MODEL 1
REMARK VINA RESULT:      -5.2      0.000      0.000
REMARK  11 active torsions:
REMARK  status: ('A' for Active; 'I' for Inactive)
REMARK    1  A    between atoms: C_2  and  N_3 
REMARK    2  A    between atoms: C_2  and  C_13 
REMARK    3  A    between atoms: N_3  and  C_4 
REMARK    4  A    between atoms: C_4  and  C_5 
REMARK    5  A    between atoms: C_5  and  C_6 
REMARK    6  A    between atoms: C_6  and  C_7 
REMARK    7  A    between atoms: C_7  and  C_8 
REMARK    8  A    between atoms: C_8  and  N_9 
REMARK    9  A    between atoms: C_8  and  C_10 
REMARK   10  A    between atoms: C_10  and  O_11 
REMARK   11  A    between atoms: C_13  and  O_14 
ROOT
HETATM    1  C   UNK N   1      34.579  14.700  10.815  0.00  0.00     0.019 C 
ENDROOT
BRANCH   1   2
HETATM    2  C   UNK N   1      35.247  15.833  10.066  0.00  0.00     0.114 C 
BRANCH   2   3
HETATM    3  N   UNK N   1      34.432  17.035  10.177  0.00  0.00    -0.409 N 
HETATM    4  H   UNK N   1      34.319  17.572  11.037  0.00  0.00     0.154 HD
BRANCH   3   5
HETATM    5  C   UNK N   1      33.791  17.381   8.902  0.00  0.00     0.171 C 
HETATM    6  C   UNK N   1      32.420  16.829   8.516  0.00  0.00     0.043 C 
BRANCH   5   7
HETATM    7  C   UNK N   1      34.534  18.301   7.981  0.00  0.00     0.162 C 
HETATM    8  O   UNK N   1      34.426  18.180   6.771  0.00  0.00    -0.648 OA
BRANCH   7   9
HETATM    9  O   UNK N   1      35.326  19.266   8.486  0.00  0.00    -0.775 OA
HETATM   10  H   UNK N   1      34.967  20.106   8.693  0.00  0.00     0.167 HD
ENDBRANCH   7   9
ENDBRANCH   5   7
ENDBRANCH   3   5
ENDBRANCH   2   3
ENDBRANCH   1   2
BRANCH   1  11
HETATM   11  C   UNK N   1      35.615  13.919  11.598  0.00  0.00     0.004 C 
BRANCH  11  12
HETATM   12  C   UNK N   1      35.830  14.585  12.946  0.00  0.00     0.035 C 
BRANCH  12  13
HETATM   13  C   UNK N   1      36.631  13.713  13.912  0.00  0.00     0.173 C 
BRANCH  13  14
HETATM   14  N   UNK N   1      37.267  12.494  13.431  0.00  0.00    -0.418 N 
HETATM   15  H   UNK N   1      38.132  12.549  12.893  0.00  0.00     0.150 HD
HETATM   16  H   UNK N   1      36.849  11.587  13.633  0.00  0.00     0.150 HD
ENDBRANCH  13  14
BRANCH  13  17
HETATM   17  C   UNK N   1      36.793  14.065  15.358  0.00  0.00     0.163 C 
HETATM   18  O   UNK N   1      36.117  13.504  16.204  0.00  0.00    -0.648 OA
BRANCH  17  19
HETATM   19  O   UNK N   1      37.686  15.002  15.731  0.00  0.00    -0.775 OA
HETATM   20  H   UNK N   1      38.013  15.615  15.102  0.00  0.00     0.167 HD
ENDBRANCH  17  19
ENDBRANCH  13  17
ENDBRANCH  12  13
ENDBRANCH  11  12
ENDBRANCH   1  11
TORSDOF 11
ENDMDL
MODEL 2
REMARK VINA RESULT:      -5.1      4.827      7.967
REMARK  11 active torsions:
REMARK  status: ('A' for Active; 'I' for Inactive)
REMARK    1  A    between atoms: C_2  and  N_3 
REMARK    2  A    between atoms: C_2  and  C_13 
REMARK    3  A    between atoms: N_3  and  C_4 
REMARK    4  A    between atoms: C_4  and  C_5 
REMARK    5  A    between atoms: C_5  and  C_6 
REMARK    6  A    between atoms: C_6  and  C_7 
REMARK    7  A    between atoms: C_7  and  C_8 
REMARK    8  A    between atoms: C_8  and  N_9 
REMARK    9  A    between atoms: C_8  and  C_10 
REMARK   10  A    between atoms: C_10  and  O_11 
REMARK   11  A    between atoms: C_13  and  O_14 
ROOT
HETATM    1  C   UNK N   1      31.105  17.085   6.957  0.00  0.00     0.019 C 
ENDROOT
BRANCH   1   2
HETATM    2  C   UNK N   1      31.536  16.496   8.283  0.00  0.00     0.114 C 
BRANCH   2   3
HETATM    3  N   UNK N   1      32.300  17.488   9.029  0.00  0.00    -0.409 N 
HETATM    4  H   UNK N   1      31.881  18.230   9.588  0.00  0.00     0.154 HD
BRANCH   3   5
HETATM    5  C   UNK N   1      33.747  17.290   8.877  0.00  0.00     0.171 C 
HETATM    6  C   UNK N   1      34.487  16.173   9.613  0.00  0.00     0.043 C 
BRANCH   5   7
HETATM    7  C   UNK N   1      34.483  18.227   7.968  0.00  0.00     0.162 C 
HETATM    8  O   UNK N   1      35.090  19.181   8.430  0.00  0.00    -0.648 OA
BRANCH   7   9
HETATM    9  O   UNK N   1      34.476  18.022   6.638  0.00  0.00    -0.775 OA
HETATM   10  H   UNK N   1      33.848  18.460   6.099  0.00  0.00     0.167 HD
ENDBRANCH   7   9
ENDBRANCH   5   7
ENDBRANCH   3   5
ENDBRANCH   2   3
ENDBRANCH   1   2
BRANCH   1  11
HETATM   11  C   UNK N   1      29.925  16.309   6.409  0.00  0.00     0.004 C 
BRANCH  11  12
HETATM   12  C   UNK N   1      28.717  17.225   6.328  0.00  0.00     0.035 C 
BRANCH  12  13
HETATM   13  C   UNK N   1      27.711  16.973   7.451  0.00  0.00     0.173 C 
BRANCH  13  14
HETATM   14  N   UNK N   1      26.591  16.069   7.232  0.00  0.00    -0.418 N 
HETATM   15  H   UNK N   1      26.619  15.399   6.462  0.00  0.00     0.150 HD
HETATM   16  H   UNK N   1      25.780  16.104   7.847  0.00  0.00     0.150 HD
ENDBRANCH  13  14
BRANCH  13  17
HETATM   17  C   UNK N   1      27.830  17.630   8.791  0.00  0.00     0.163 C 
HETATM   18  O   UNK N   1      28.087  16.962   9.779  0.00  0.00    -0.648 OA
BRANCH  17  19
HETATM   19  O   UNK N   1      27.654  18.960   8.912  0.00  0.00    -0.775 OA
HETATM   20  H   UNK N   1      27.634  19.501   8.147  0.00  0.00     0.167 HD
ENDBRANCH  17  19
ENDBRANCH  13  17
ENDBRANCH  12  13
ENDBRANCH  11  12
ENDBRANCH   1  11
TORSDOF 11
ENDMDL
MODEL 3
REMARK VINA RESULT:      -5.1      5.360      7.790
REMARK  11 active torsions:
REMARK  status: ('A' for Active; 'I' for Inactive)
REMARK    1  A    between atoms: C_2  and  N_3 
REMARK    2  A    between atoms: C_2  and  C_13 
REMARK    3  A    between atoms: N_3  and  C_4 
REMARK    4  A    between atoms: C_4  and  C_5 
REMARK    5  A    between atoms: C_5  and  C_6 
REMARK    6  A    between atoms: C_6  and  C_7 
REMARK    7  A    between atoms: C_7  and  C_8 
REMARK    8  A    between atoms: C_8  and  N_9 
REMARK    9  A    between atoms: C_8  and  C_10 
REMARK   10  A    between atoms: C_10  and  O_11 
REMARK   11  A    between atoms: C_13  and  O_14 
ROOT
HETATM    1  C   UNK N   1      29.941  17.100   6.640  0.00  0.00     0.019 C 
ENDROOT
BRANCH   1   2
HETATM    2  C   UNK N   1      29.174  18.076   7.507  0.00  0.00     0.114 C 
BRANCH   2   3
HETATM    3  N   UNK N   1      27.781  18.111   7.081  0.00  0.00    -0.409 N 
HETATM    4  H   UNK N   1      27.080  17.426   7.364  0.00  0.00     0.154 HD
BRANCH   3   5
HETATM    5  C   UNK N   1      27.508  19.252   6.198  0.00  0.00     0.171 C 
HETATM    6  C   UNK N   1      27.596  19.130   4.678  0.00  0.00     0.043 C 
BRANCH   5   7
HETATM    7  C   UNK N   1      27.137  20.553   6.843  0.00  0.00     0.162 C 
HETATM    8  O   UNK N   1      27.530  21.608   6.369  0.00  0.00    -0.648 OA
BRANCH   7   9
HETATM    9  O   UNK N   1      26.368  20.564   7.948  0.00  0.00    -0.775 OA
HETATM   10  H   UNK N   1      25.510  20.189   7.926  0.00  0.00     0.167 HD
ENDBRANCH   7   9
ENDBRANCH   5   7
ENDBRANCH   3   5
ENDBRANCH   2   3
ENDBRANCH   1   2
BRANCH   1  11
HETATM   11  C   UNK N   1      31.178  16.624   7.372  0.00  0.00     0.004 C 
BRANCH  11  12
HETATM   12  C   UNK N   1      31.726  17.759   8.221  0.00  0.00     0.035 C 
BRANCH  12  13
HETATM   13  C   UNK N   1      33.198  17.567   8.581  0.00  0.00     0.173 C 
BRANCH  13  14
HETATM   14  N   UNK N   1      33.567  16.692   9.685  0.00  0.00    -0.418 N 
HETATM   15  H   UNK N   1      34.498  16.755  10.097  0.00  0.00     0.150 HD
HETATM   16  H   UNK N   1      32.895  16.016  10.046  0.00  0.00     0.150 HD
ENDBRANCH  13  14
BRANCH  13  17
HETATM   17  C   UNK N   1      34.299  18.253   7.833  0.00  0.00     0.163 C 
HETATM   18  O   UNK N   1      34.464  18.028   6.645  0.00  0.00    -0.648 OA
BRANCH  17  19
HETATM   19  O   UNK N   1      35.110  19.120   8.467  0.00  0.00    -0.775 OA
HETATM   20  H   UNK N   1      36.039  18.994   8.447  0.00  0.00     0.167 HD
ENDBRANCH  17  19
ENDBRANCH  13  17
ENDBRANCH  12  13
ENDBRANCH  11  12
ENDBRANCH   1  11
TORSDOF 11
ENDMDL
MODEL 4
REMARK VINA RESULT:      -5.0     13.077     15.987
REMARK  11 active torsions:
REMARK  status: ('A' for Active; 'I' for Inactive)
REMARK    1  A    between atoms: C_2  and  N_3 
REMARK    2  A    between atoms: C_2  and  C_13 
REMARK    3  A    between atoms: N_3  and  C_4 
REMARK    4  A    between atoms: C_4  and  C_5 
REMARK    5  A    between atoms: C_5  and  C_6 
REMARK    6  A    between atoms: C_6  and  C_7 
REMARK    7  A    between atoms: C_7  and  C_8 
REMARK    8  A    between atoms: C_8  and  N_9 
REMARK    9  A    between atoms: C_8  and  C_10 
REMARK   10  A    between atoms: C_10  and  O_11 
REMARK   11  A    between atoms: C_13  and  O_14 
ROOT
HETATM    1  C   UNK N   1      20.387  14.731   9.307  0.00  0.00     0.019 C 
ENDROOT
BRANCH   1   2
HETATM    2  C   UNK N   1      21.263  13.503   9.180  0.00  0.00     0.114 C 
BRANCH   2   3
HETATM    3  N   UNK N   1      21.494  12.933  10.502  0.00  0.00    -0.409 N 
HETATM    4  H   UNK N   1      20.891  13.097  11.308  0.00  0.00     0.154 HD
BRANCH   3   5
HETATM    5  C   UNK N   1      22.699  12.096  10.533  0.00  0.00     0.171 C 
HETATM    6  C   UNK N   1      23.287  11.486   9.261  0.00  0.00     0.043 C 
BRANCH   5   7
HETATM    7  C   UNK N   1      23.341  11.856  11.865  0.00  0.00     0.162 C 
HETATM    8  O   UNK N   1      24.536  12.061  12.019  0.00  0.00    -0.648 OA
BRANCH   7   9
HETATM    9  O   UNK N   1      22.603  11.414  12.901  0.00  0.00    -0.775 OA
HETATM   10  H   UNK N   1      23.019  10.996  13.629  0.00  0.00     0.167 HD
ENDBRANCH   7   9
ENDBRANCH   5   7
ENDBRANCH   3   5
ENDBRANCH   2   3
ENDBRANCH   1   2
BRANCH   1  11
HETATM   11  C   UNK N   1      20.660  15.678   8.157  0.00  0.00     0.004 C 
BRANCH  11  12
HETATM   12  C   UNK N   1      19.368  16.373   7.764  0.00  0.00     0.035 C 
BRANCH  12  13
HETATM   13  C   UNK N   1      18.892  17.371   8.818  0.00  0.00     0.173 C 
BRANCH  13  14
HETATM   14  N   UNK N   1      17.685  17.097   9.585  0.00  0.00    -0.418 N 
HETATM   15  H   UNK N   1      16.984  17.827   9.712  0.00  0.00     0.150 HD
HETATM   16  H   UNK N   1      17.541  16.175   9.996  0.00  0.00     0.150 HD
ENDBRANCH  13  14
BRANCH  13  17
HETATM   17  C   UNK N   1      19.628  18.644   9.102  0.00  0.00     0.163 C 
HETATM   18  O   UNK N   1      20.415  19.092   8.284  0.00  0.00    -0.648 OA
BRANCH  17  19
HETATM   19  O   UNK N   1      19.425  19.300  10.261  0.00  0.00    -0.775 OA
HETATM   20  H   UNK N   1      20.101  19.844  10.616  0.00  0.00     0.167 HD
ENDBRANCH  17  19
ENDBRANCH  13  17
ENDBRANCH  12  13
ENDBRANCH  11  12
ENDBRANCH   1  11
TORSDOF 11
ENDMDL
MODEL 5
REMARK VINA RESULT:      -5.0      3.483      7.378
REMARK  11 active torsions:
REMARK  status: ('A' for Active; 'I' for Inactive)
REMARK    1  A    between atoms: C_2  and  N_3 
REMARK    2  A    between atoms: C_2  and  C_13 
REMARK    3  A    between atoms: N_3  and  C_4 
REMARK    4  A    between atoms: C_4  and  C_5 
REMARK    5  A    between atoms: C_5  and  C_6 
REMARK    6  A    between atoms: C_6  and  C_7 
REMARK    7  A    between atoms: C_7  and  C_8 
REMARK    8  A    between atoms: C_8  and  N_9 
REMARK    9  A    between atoms: C_8  and  C_10 
REMARK   10  A    between atoms: C_10  and  O_11 
REMARK   11  A    between atoms: C_13  and  O_14 
ROOT
HETATM    1  C   UNK N   1      33.119  16.260   8.336  0.00  0.00     0.019 C 
ENDROOT
BRANCH   1   2
HETATM    2  C   UNK N   1      32.720  15.111   9.238  0.00  0.00     0.114 C 
BRANCH   2   3
HETATM    3  N   UNK N   1      33.242  15.343  10.578  0.00  0.00    -0.409 N 
HETATM    4  H   UNK N   1      32.678  15.668  11.363  0.00  0.00     0.154 HD
BRANCH   3   5
HETATM    5  C   UNK N   1      34.679  15.052  10.663  0.00  0.00     0.171 C 
HETATM    6  C   UNK N   1      35.213  13.621  10.613  0.00  0.00     0.043 C 
BRANCH   5   7
HETATM    7  C   UNK N   1      35.614  16.215  10.801  0.00  0.00     0.162 C 
HETATM    8  O   UNK N   1      35.184  17.358  10.761  0.00  0.00    -0.648 OA
BRANCH   7   9
HETATM    9  O   UNK N   1      36.933  16.005  10.970  0.00  0.00    -0.775 OA
HETATM   10  H   UNK N   1      37.542  16.699  10.814  0.00  0.00     0.167 HD
ENDBRANCH   7   9
ENDBRANCH   5   7
ENDBRANCH   3   5
ENDBRANCH   2   3
ENDBRANCH   1   2
BRANCH   1  11
HETATM   11  C   UNK N   1      32.173  17.425   8.539  0.00  0.00     0.004 C 
BRANCH  11  12
HETATM   12  C   UNK N   1      30.792  17.044   8.034  0.00  0.00     0.035 C 
BRANCH  12  13
HETATM   13  C   UNK N   1      29.681  17.431   9.008  0.00  0.00     0.173 C 
BRANCH  13  14
HETATM   14  N   UNK N   1      29.751  16.998  10.397  0.00  0.00    -0.418 N 
HETATM   15  H   UNK N   1      29.434  16.064  10.656  0.00  0.00     0.150 HD
HETATM   16  H   UNK N   1      30.116  17.629  11.109  0.00  0.00     0.150 HD
ENDBRANCH  13  14
BRANCH  13  17
HETATM   17  C   UNK N   1      28.501  18.252   8.588  0.00  0.00     0.163 C 
HETATM   18  O   UNK N   1      28.522  18.857   7.530  0.00  0.00    -0.648 OA
BRANCH  17  19
HETATM   19  O   UNK N   1      27.412  18.325   9.378  0.00  0.00    -0.775 OA
HETATM   20  H   UNK N   1      26.662  17.795   9.191  0.00  0.00     0.167 HD
ENDBRANCH  17  19
ENDBRANCH  13  17
ENDBRANCH  12  13
ENDBRANCH  11  12
ENDBRANCH   1  11
TORSDOF 11
ENDMDL
MODEL 6
REMARK VINA RESULT:      -5.0      4.890      9.339
REMARK  11 active torsions:
REMARK  status: ('A' for Active; 'I' for Inactive)
REMARK    1  A    between atoms: C_2  and  N_3 
REMARK    2  A    between atoms: C_2  and  C_13 
REMARK    3  A    between atoms: N_3  and  C_4 
REMARK    4  A    between atoms: C_4  and  C_5 
REMARK    5  A    between atoms: C_5  and  C_6 
REMARK    6  A    between atoms: C_6  and  C_7 
REMARK    7  A    between atoms: C_7  and  C_8 
REMARK    8  A    between atoms: C_8  and  N_9 
REMARK    9  A    between atoms: C_8  and  C_10 
REMARK   10  A    between atoms: C_10  and  O_11 
REMARK   11  A    between atoms: C_13  and  O_14 
ROOT
HETATM    1  C   UNK N   1      30.139  17.541   8.679  0.00  0.00     0.019 C 
ENDROOT
BRANCH   1   2
HETATM    2  C   UNK N   1      31.445  16.910   8.244  0.00  0.00     0.114 C 
BRANCH   2   3
HETATM    3  N   UNK N   1      32.496  17.272   9.186  0.00  0.00    -0.409 N 
HETATM    4  H   UNK N   1      32.324  17.658  10.114  0.00  0.00     0.154 HD
BRANCH   3   5
HETATM    5  C   UNK N   1      33.834  17.012   8.637  0.00  0.00     0.171 C 
HETATM    6  C   UNK N   1      34.550  15.682   8.861  0.00  0.00     0.043 C 
BRANCH   5   7
HETATM    7  C   UNK N   1      34.480  18.107   7.843  0.00  0.00     0.162 C 
HETATM    8  O   UNK N   1      34.376  18.127   6.626  0.00  0.00    -0.648 OA
BRANCH   7   9
HETATM    9  O   UNK N   1      35.178  19.073   8.469  0.00  0.00    -0.775 OA
HETATM   10  H   UNK N   1      35.621  19.730   7.969  0.00  0.00     0.167 HD
ENDBRANCH   7   9
ENDBRANCH   5   7
ENDBRANCH   3   5
ENDBRANCH   2   3
ENDBRANCH   1   2
BRANCH   1  11
HETATM   11  C   UNK N   1      29.311  17.899   7.464  0.00  0.00     0.004 C 
BRANCH  11  12
HETATM   12  C   UNK N   1      28.184  18.829   7.881  0.00  0.00     0.035 C 
BRANCH  12  13
HETATM   13  C   UNK N   1      27.651  19.667   6.720  0.00  0.00     0.173 C 
BRANCH  13  14
HETATM   14  N   UNK N   1      27.958  19.285   5.349  0.00  0.00    -0.418 N 
HETATM   15  H   UNK N   1      27.277  19.452   4.609  0.00  0.00     0.150 HD
HETATM   16  H   UNK N   1      28.854  18.851   5.129  0.00  0.00     0.150 HD
ENDBRANCH  13  14
BRANCH  13  17
HETATM   17  C   UNK N   1      26.811  20.888   6.936  0.00  0.00     0.163 C 
HETATM   18  O   UNK N   1      26.894  21.832   6.168  0.00  0.00    -0.648 OA
BRANCH  17  19
HETATM   19  O   UNK N   1      25.961  20.948   7.979  0.00  0.00    -0.775 OA
HETATM   20  H   UNK N   1      25.350  21.655   8.045  0.00  0.00     0.167 HD
ENDBRANCH  17  19
ENDBRANCH  13  17
ENDBRANCH  12  13
ENDBRANCH  11  12
ENDBRANCH   1  11
TORSDOF 11
ENDMDL
MODEL 7
REMARK VINA RESULT:      -5.0     13.594     16.675
REMARK  11 active torsions:
REMARK  status: ('A' for Active; 'I' for Inactive)
REMARK    1  A    between atoms: C_2  and  N_3 
REMARK    2  A    between atoms: C_2  and  C_13 
REMARK    3  A    between atoms: N_3  and  C_4 
REMARK    4  A    between atoms: C_4  and  C_5 
REMARK    5  A    between atoms: C_5  and  C_6 
REMARK    6  A    between atoms: C_6  and  C_7 
REMARK    7  A    between atoms: C_7  and  C_8 
REMARK    8  A    between atoms: C_8  and  N_9 
REMARK    9  A    between atoms: C_8  and  C_10 
REMARK   10  A    between atoms: C_10  and  O_11 
REMARK   11  A    between atoms: C_13  and  O_14 
ROOT
HETATM    1  C   UNK N   1      22.592  17.600   3.650  0.00  0.00     0.019 C 
ENDROOT
BRANCH   1   2
HETATM    2  C   UNK N   1      23.324  17.710   4.971  0.00  0.00     0.114 C 
BRANCH   2   3
HETATM    3  N   UNK N   1      23.966  19.015   5.062  0.00  0.00    -0.409 N 
HETATM    4  H   UNK N   1      23.784  19.691   5.805  0.00  0.00     0.154 HD
BRANCH   3   5
HETATM    5  C   UNK N   1      24.906  19.240   3.957  0.00  0.00     0.171 C 
HETATM    6  C   UNK N   1      26.089  18.307   3.706  0.00  0.00     0.043 C 
BRANCH   5   7
HETATM    7  C   UNK N   1      24.665  20.427   3.075  0.00  0.00     0.162 C 
HETATM    8  O   UNK N   1      23.606  21.032   3.133  0.00  0.00    -0.648 OA
BRANCH   7   9
HETATM    9  O   UNK N   1      25.617  20.832   2.213  0.00  0.00    -0.775 OA
HETATM   10  H   UNK N   1      26.023  20.213   1.638  0.00  0.00     0.167 HD
ENDBRANCH   7   9
ENDBRANCH   5   7
ENDBRANCH   3   5
ENDBRANCH   2   3
ENDBRANCH   1   2
BRANCH   1  11
HETATM   11  C   UNK N   1      21.102  17.750   3.875  0.00  0.00     0.004 C 
BRANCH  11  12
HETATM   12  C   UNK N   1      20.673  19.151   3.473  0.00  0.00     0.035 C 
BRANCH  12  13
HETATM   13  C   UNK N   1      20.542  19.315   1.960  0.00  0.00     0.173 C 
BRANCH  13  14
HETATM   14  N   UNK N   1      20.069  18.203   1.148  0.00  0.00    -0.418 N 
HETATM   15  H   UNK N   1      19.102  17.886   1.230  0.00  0.00     0.150 HD
HETATM   16  H   UNK N   1      20.703  17.740   0.498  0.00  0.00     0.150 HD
ENDBRANCH  13  14
BRANCH  13  17
HETATM   17  C   UNK N   1      20.885  20.595   1.262  0.00  0.00     0.163 C 
HETATM   18  O   UNK N   1      21.078  20.603   0.058  0.00  0.00    -0.648 OA
BRANCH  17  19
HETATM   19  O   UNK N   1      20.981  21.742   1.962  0.00  0.00    -0.775 OA
HETATM   20  H   UNK N   1      21.445  21.757   2.776  0.00  0.00     0.167 HD
ENDBRANCH  17  19
ENDBRANCH  13  17
ENDBRANCH  12  13
ENDBRANCH  11  12
ENDBRANCH   1  11
TORSDOF 11
ENDMDL
MODEL 8
REMARK VINA RESULT:      -4.9     11.998     15.733
REMARK  11 active torsions:
REMARK  status: ('A' for Active; 'I' for Inactive)
REMARK    1  A    between atoms: C_2  and  N_3 
REMARK    2  A    between atoms: C_2  and  C_13 
REMARK    3  A    between atoms: N_3  and  C_4 
REMARK    4  A    between atoms: C_4  and  C_5 
REMARK    5  A    between atoms: C_5  and  C_6 
REMARK    6  A    between atoms: C_6  and  C_7 
REMARK    7  A    between atoms: C_7  and  C_8 
REMARK    8  A    between atoms: C_8  and  N_9 
REMARK    9  A    between atoms: C_8  and  C_10 
REMARK   10  A    between atoms: C_10  and  O_11 
REMARK   11  A    between atoms: C_13  and  O_14 
ROOT
HETATM    1  C   UNK N   1      23.337  18.348   5.022  0.00  0.00     0.019 C 
ENDROOT
BRANCH   1   2
HETATM    2  C   UNK N   1      24.741  18.003   4.573  0.00  0.00     0.114 C 
BRANCH   2   3
HETATM    3  N   UNK N   1      25.702  18.560   5.516  0.00  0.00    -0.409 N 
HETATM    4  H   UNK N   1      26.042  18.069   6.343  0.00  0.00     0.154 HD
BRANCH   3   5
HETATM    5  C   UNK N   1      26.123  19.913   5.132  0.00  0.00     0.171 C 
HETATM    6  C   UNK N   1      26.148  20.363   3.672  0.00  0.00     0.043 C 
BRANCH   5   7
HETATM    7  C   UNK N   1      26.532  20.848   6.230  0.00  0.00     0.162 C 
HETATM    8  O   UNK N   1      27.357  21.722   6.017  0.00  0.00    -0.648 OA
BRANCH   7   9
HETATM    9  O   UNK N   1      25.989  20.728   7.456  0.00  0.00    -0.775 OA
HETATM   10  H   UNK N   1      26.542  20.617   8.204  0.00  0.00     0.167 HD
ENDBRANCH   7   9
ENDBRANCH   5   7
ENDBRANCH   3   5
ENDBRANCH   2   3
ENDBRANCH   1   2
BRANCH   1  11
HETATM   11  C   UNK N   1      22.375  18.198   3.862  0.00  0.00     0.004 C 
BRANCH  11  12
HETATM   12  C   UNK N   1      21.132  19.029   4.131  0.00  0.00     0.035 C 
BRANCH  12  13
HETATM   13  C   UNK N   1      20.526  19.613   2.855  0.00  0.00     0.173 C 
BRANCH  13  14
HETATM   14  N   UNK N   1      19.216  19.165   2.403  0.00  0.00    -0.418 N 
HETATM   15  H   UNK N   1      18.375  19.487   2.881  0.00  0.00     0.150 HD
HETATM   16  H   UNK N   1      19.141  18.530   1.610  0.00  0.00     0.150 HD
ENDBRANCH  13  14
BRANCH  13  17
HETATM   17  C   UNK N   1      21.236  20.645   2.034  0.00  0.00     0.163 C 
HETATM   18  O   UNK N   1      21.301  20.524   0.822  0.00  0.00    -0.648 OA
BRANCH  17  19
HETATM   19  O   UNK N   1      21.805  21.710   2.630  0.00  0.00    -0.775 OA
HETATM   20  H   UNK N   1      22.640  22.019   2.340  0.00  0.00     0.167 HD
ENDBRANCH  17  19
ENDBRANCH  13  17
ENDBRANCH  12  13
ENDBRANCH  11  12
ENDBRANCH   1  11
TORSDOF 11
ENDMDL
MODEL 9
REMARK VINA RESULT:      -4.8      5.093      9.378
REMARK  11 active torsions:
REMARK  status: ('A' for Active; 'I' for Inactive)
REMARK    1  A    between atoms: C_2  and  N_3 
REMARK    2  A    between atoms: C_2  and  C_13 
REMARK    3  A    between atoms: N_3  and  C_4 
REMARK    4  A    between atoms: C_4  and  C_5 
REMARK    5  A    between atoms: C_5  and  C_6 
REMARK    6  A    between atoms: C_6  and  C_7 
REMARK    7  A    between atoms: C_7  and  C_8 
REMARK    8  A    between atoms: C_8  and  N_9 
REMARK    9  A    between atoms: C_8  and  C_10 
REMARK   10  A    between atoms: C_10  and  O_11 
REMARK   11  A    between atoms: C_13  and  O_14 
ROOT
HETATM    1  C   UNK N   1      30.490  17.200   7.101  0.00  0.00     0.019 C 
ENDROOT
BRANCH   1   2
HETATM    2  C   UNK N   1      30.939  17.015   8.534  0.00  0.00     0.114 C 
BRANCH   2   3
HETATM    3  N   UNK N   1      31.991  17.976   8.841  0.00  0.00    -0.409 N 
HETATM    4  H   UNK N   1      31.818  18.930   9.160  0.00  0.00     0.154 HD
BRANCH   3   5
HETATM    5  C   UNK N   1      33.328  17.407   8.634  0.00  0.00     0.171 C 
HETATM    6  C   UNK N   1      33.722  16.049   9.213  0.00  0.00     0.043 C 
BRANCH   5   7
HETATM    7  C   UNK N   1      34.304  18.209   7.828  0.00  0.00     0.162 C 
HETATM    8  O   UNK N   1      34.394  18.038   6.622  0.00  0.00    -0.648 OA
BRANCH   7   9
HETATM    9  O   UNK N   1      35.088  19.123   8.431  0.00  0.00    -0.775 OA
HETATM   10  H   UNK N   1      35.274  19.936   8.004  0.00  0.00     0.167 HD
ENDBRANCH   7   9
ENDBRANCH   5   7
ENDBRANCH   3   5
ENDBRANCH   2   3
ENDBRANCH   1   2
BRANCH   1  11
HETATM   11  C   UNK N   1      28.983  17.340   7.048  0.00  0.00     0.004 C 
BRANCH  11  12
HETATM   12  C   UNK N   1      28.588  18.706   7.583  0.00  0.00     0.035 C 
BRANCH  12  13
HETATM   13  C   UNK N   1      27.665  19.466   6.632  0.00  0.00     0.173 C 
BRANCH  13  14
HETATM   14  N   UNK N   1      26.756  20.476   7.156  0.00  0.00    -0.418 N 
HETATM   15  H   UNK N   1      25.747  20.336   7.092  0.00  0.00     0.150 HD
HETATM   16  H   UNK N   1      27.127  21.322   7.586  0.00  0.00     0.150 HD
ENDBRANCH  13  14
BRANCH  13  17
HETATM   17  C   UNK N   1      27.654  19.212   5.156  0.00  0.00     0.163 C 
HETATM   18  O   UNK N   1      26.728  18.605   4.646  0.00  0.00    -0.648 OA
BRANCH  17  19
HETATM   19  O   UNK N   1      28.668  19.653   4.386  0.00  0.00    -0.775 OA
HETATM   20  H   UNK N   1      28.644  19.519   3.459  0.00  0.00     0.167 HD
ENDBRANCH  17  19
ENDBRANCH  13  17
ENDBRANCH  12  13
ENDBRANCH  11  12
ENDBRANCH   1  11
TORSDOF 11
ENDMDL
