REMARK  0 active torsions:
REMARK  status: ('A' for Active; 'I' for Inactive)
ROOT
HETATM    1  C   UNK N   1       6.962   0.261   0.000  0.00  0.00     0.049 C 
HETATM    2  C   UNK N   1       5.477   0.262   0.000  0.00  0.00    -0.046 A 
HETATM    3  C   UNK N   1       4.782  -0.940   0.000  0.00  0.00     0.095 A 
HETATM    4  N   UNK N   1       3.425  -0.940   0.000  0.00  0.00    -0.363 N 
ATOM      5  HN  UNK N   1       2.935  -1.835   0.000  1.00  0.00     0.165 HD
HETATM    6  C   UNK N   1       2.689   0.208   0.000  0.00  0.00     0.071 A 
HETATM    7  C   UNK N   1       3.365   1.454   0.000  0.00  0.00    -0.000 A 
HETATM    8  C   UNK N   1       4.769   1.461   0.000  0.00  0.00     0.022 A 
HETATM    9  C   UNK N   1       2.641   2.659   0.000  0.00  0.00    -0.043 A 
HETATM   10  C   UNK N   1       3.366   3.975   0.000  0.00  0.00     0.049 C 
HETATM   11  C   UNK N   1       1.236   2.632   0.000  0.00  0.00    -0.043 A 
HETATM   12  C   UNK N   1       0.467   3.923   0.000  0.00  0.00     0.049 C 
HETATM   13  C   UNK N   1       0.552   1.399   0.000  0.00  0.00     0.000 A 
HETATM   14  C   UNK N   1       1.265   0.166  -0.000  0.00  0.00     0.072 A 
HETATM   15  N   UNK N   1       0.550  -1.022  -0.000  0.00  0.00    -0.358 N 
HETATM   16  C   UNK N   1       1.174  -2.339  -0.000  0.00  0.00     0.156 C 
HETATM   17  C   UNK N   1      -0.809  -1.022  -0.000  0.00  0.00     0.097 A 
HETATM   18  C   UNK N   1      -1.527   0.164  -0.000  0.00  0.00    -0.045 A 
HETATM   19  C   UNK N   1      -3.012   0.133  -0.000  0.00  0.00     0.049 C 
HETATM   20  C   UNK N   1      -0.848   1.374  -0.000  0.00  0.00     0.022 A 
ENDROOT
TORSDOF 0
