MODEL 1
REMARK VINA RESULT:      -4.8      0.000      0.000
REMARK  5 active torsions:
REMARK  status: ('A' for Active; 'I' for Inactive)
REMARK    1  A    between atoms: C_7  and  C_2 
REMARK    2  A    between atoms: O_8  and  C_2 
REMARK    3  A    between atoms: C_3  and  O_9 
REMARK    4  A    between atoms: C_5  and  O_10 
REMARK    5  A    between atoms: C_6  and  O_11 
ROOT
HETATM    1  C   UNK N   1      22.380  18.657   4.228  0.00  0.00     0.069 C 
HETATM    2  C   UNK N   1      21.111  18.000   4.789  0.00  0.00     0.152 C 
HETATM    3  C   UNK N   1      22.123  19.753   3.187  0.00  0.00     0.164 A 
HETATM    4  C   UNK N   1      20.211  17.530   3.639  0.00  0.00     0.178 C 
HETATM    5  C   UNK N   1      19.703  18.725   2.808  0.00  0.00     0.188 C 
HETATM    6  C   UNK N   1      20.829  19.710   2.423  0.00  0.00     0.137 A 
HETATM    7  O   UNK N   1      21.043  20.554   3.553  0.00  0.00    -0.364 OA
ENDROOT
BRANCH   6   8
HETATM    8  C   UNK N   1      20.625  20.637   1.232  0.00  0.00     0.207 C 
BRANCH   8   9
HETATM    9  O   UNK N   1      20.641  19.911   0.039  0.00  0.00    -0.398 OA
HETATM   10  H   UNK N   1      21.204  19.363  -0.530  0.00  0.00     0.209 HD
ENDBRANCH   8   9
ENDBRANCH   6   8
BRANCH   5  11
HETATM   11  O   UNK N   1      19.076  18.240   1.654  0.00  0.00    -0.390 OA
HETATM   12  H   UNK N   1      18.128  18.089   1.509  0.00  0.00     0.210 HD
ENDBRANCH   5  11
BRANCH   4  13
HETATM   13  O   UNK N   1      20.923  16.642   2.826  0.00  0.00    -0.390 OA
HETATM   14  H   UNK N   1      21.417  16.172   2.137  0.00  0.00     0.210 HD
ENDBRANCH   4  13
BRANCH   2  15
HETATM   15  O   UNK N   1      21.482  16.909   5.575  0.00  0.00    -0.393 OA
HETATM   16  H   UNK N   1      22.414  16.757   5.801  0.00  0.00     0.210 HD
ENDBRANCH   2  15
TORSDOF 5
ENDMDL
MODEL 2
REMARK VINA RESULT:      -4.8     13.841     14.914
REMARK  5 active torsions:
REMARK  status: ('A' for Active; 'I' for Inactive)
REMARK    1  A    between atoms: C_7  and  C_2 
REMARK    2  A    between atoms: O_8  and  C_2 
REMARK    3  A    between atoms: C_3  and  O_9 
REMARK    4  A    between atoms: C_5  and  O_10 
REMARK    5  A    between atoms: C_6  and  O_11 
ROOT
HETATM    1  C   UNK N   1      32.684  14.582   8.226  0.00  0.00     0.069 C 
HETATM    2  C   UNK N   1      33.856  14.013   9.038  0.00  0.00     0.152 C 
HETATM    3  C   UNK N   1      32.889  16.020   7.734  0.00  0.00     0.164 A 
HETATM    4  C   UNK N   1      34.234  14.981  10.166  0.00  0.00     0.178 C 
HETATM    5  C   UNK N   1      34.755  16.316   9.601  0.00  0.00     0.188 C 
HETATM    6  C   UNK N   1      33.848  16.894   8.492  0.00  0.00     0.137 A 
HETATM    7  O   UNK N   1      34.192  16.219   7.284  0.00  0.00    -0.364 OA
ENDROOT
BRANCH   6   8
HETATM    8  C   UNK N   1      33.918  18.384   8.182  0.00  0.00     0.207 C 
BRANCH   8   9
HETATM    9  O   UNK N   1      35.197  18.879   8.444  0.00  0.00    -0.398 OA
HETATM   10  H   UNK N   1      35.681  19.668   8.734  0.00  0.00     0.209 HD
ENDBRANCH   8   9
ENDBRANCH   6   8
BRANCH   5  11
HETATM   11  O   UNK N   1      34.875  17.236  10.649  0.00  0.00    -0.390 OA
HETATM   12  H   UNK N   1      34.402  17.241  11.496  0.00  0.00     0.210 HD
ENDBRANCH   5  11
BRANCH   4  13
HETATM   13  O   UNK N   1      33.116  15.202  10.980  0.00  0.00    -0.390 OA
HETATM   14  H   UNK N   1      32.249  15.374  11.376  0.00  0.00     0.210 HD
ENDBRANCH   4  13
BRANCH   2  15
HETATM   15  O   UNK N   1      33.474  12.784   9.577  0.00  0.00    -0.393 OA
HETATM   16  H   UNK N   1      32.772  12.736  10.246  0.00  0.00     0.210 HD
ENDBRANCH   2  15
TORSDOF 5
ENDMDL
MODEL 3
REMARK VINA RESULT:      -4.6     21.408     22.521
REMARK  5 active torsions:
REMARK  status: ('A' for Active; 'I' for Inactive)
REMARK    1  A    between atoms: C_7  and  C_2 
REMARK    2  A    between atoms: O_8  and  C_2 
REMARK    3  A    between atoms: C_3  and  O_9 
REMARK    4  A    between atoms: C_5  and  O_10 
REMARK    5  A    between atoms: C_6  and  O_11 
ROOT
HETATM    1  C   UNK N   1      44.170  20.991   3.827  0.00  0.00     0.069 C 
HETATM    2  C   UNK N   1      44.847  22.215   3.196  0.00  0.00     0.152 C 
HETATM    3  C   UNK N   1      42.885  20.540   3.123  0.00  0.00     0.164 A 
HETATM    4  C   UNK N   1      43.829  23.351   3.029  0.00  0.00     0.178 C 
HETATM    5  C   UNK N   1      42.717  22.958   2.037  0.00  0.00     0.188 C 
HETATM    6  C   UNK N   1      42.126  21.559   2.321  0.00  0.00     0.137 A 
HETATM    7  O   UNK N   1      43.016  20.609   1.738  0.00  0.00    -0.364 OA
ENDROOT
BRANCH   6   8
HETATM    8  C   UNK N   1      40.738  21.222   1.792  0.00  0.00     0.207 C 
BRANCH   8   9
HETATM    9  O   UNK N   1      39.762  21.545   2.738  0.00  0.00    -0.398 OA
HETATM   10  H   UNK N   1      39.578  21.561   3.690  0.00  0.00     0.209 HD
ENDBRANCH   8   9
ENDBRANCH   6   8
BRANCH   5  11
HETATM   11  O   UNK N   1      41.704  23.924   2.086  0.00  0.00    -0.390 OA
HETATM   12  H   UNK N   1      40.744  23.783   2.079  0.00  0.00     0.210 HD
ENDBRANCH   5  11
BRANCH   4  13
HETATM   13  O   UNK N   1      43.277  23.665   4.276  0.00  0.00    -0.390 OA
HETATM   14  H   UNK N   1      42.753  23.766   5.085  0.00  0.00     0.210 HD
ENDBRANCH   4  13
BRANCH   2  15
HETATM   15  O   UNK N   1      45.887  22.631   4.027  0.00  0.00    -0.393 OA
HETATM   16  H   UNK N   1      46.011  22.228   4.901  0.00  0.00     0.210 HD
ENDBRANCH   2  15
TORSDOF 5
ENDMDL
MODEL 4
REMARK VINA RESULT:      -4.6     15.428     17.252
REMARK  5 active torsions:
REMARK  status: ('A' for Active; 'I' for Inactive)
REMARK    1  A    between atoms: C_7  and  C_2 
REMARK    2  A    between atoms: O_8  and  C_2 
REMARK    3  A    between atoms: C_3  and  O_9 
REMARK    4  A    between atoms: C_5  and  O_10 
REMARK    5  A    between atoms: C_6  and  O_11 
ROOT
HETATM    1  C   UNK N   1      37.199  13.523  10.845  0.00  0.00     0.069 C 
HETATM    2  C   UNK N   1      36.569  13.589  12.243  0.00  0.00     0.152 C 
HETATM    3  C   UNK N   1      36.748  14.635   9.890  0.00  0.00     0.164 A 
HETATM    4  C   UNK N   1      35.043  13.694  12.128  0.00  0.00     0.178 C 
HETATM    5  C   UNK N   1      34.627  15.011  11.444  0.00  0.00     0.188 C 
HETATM    6  C   UNK N   1      35.421  15.292  10.149  0.00  0.00     0.137 A 
HETATM    7  O   UNK N   1      36.667  15.861  10.545  0.00  0.00    -0.364 OA
ENDROOT
BRANCH   6   8
HETATM    8  C   UNK N   1      34.832  16.237   9.111  0.00  0.00     0.207 C 
BRANCH   8   9
HETATM    9  O   UNK N   1      34.169  17.296   9.734  0.00  0.00    -0.398 OA
HETATM   10  H   UNK N   1      33.666  18.108   9.562  0.00  0.00     0.209 HD
ENDBRANCH   8   9
ENDBRANCH   6   8
BRANCH   5  11
HETATM   11  O   UNK N   1      33.256  14.962  11.164  0.00  0.00    -0.390 OA
HETATM   12  H   UNK N   1      32.768  14.269  10.692  0.00  0.00     0.210 HD
ENDBRANCH   5  11
BRANCH   4  13
HETATM   13  O   UNK N   1      34.556  12.598  11.407  0.00  0.00    -0.390 OA
HETATM   14  H   UNK N   1      34.114  11.971  10.815  0.00  0.00     0.210 HD
ENDBRANCH   4  13
BRANCH   2  15
HETATM   15  O   UNK N   1      36.912  12.433  12.945  0.00  0.00    -0.393 OA
HETATM   16  H   UNK N   1      37.126  11.614  12.471  0.00  0.00     0.210 HD
ENDBRANCH   2  15
TORSDOF 5
ENDMDL
MODEL 5
REMARK VINA RESULT:      -4.4      7.245      9.049
REMARK  5 active torsions:
REMARK  status: ('A' for Active; 'I' for Inactive)
REMARK    1  A    between atoms: C_7  and  C_2 
REMARK    2  A    between atoms: O_8  and  C_2 
REMARK    3  A    between atoms: C_3  and  O_9 
REMARK    4  A    between atoms: C_5  and  O_10 
REMARK    5  A    between atoms: C_6  and  O_11 
ROOT
HETATM    1  C   UNK N   1      24.445  12.260   9.061  0.00  0.00     0.069 C 
HETATM    2  C   UNK N   1      24.180  12.862  10.448  0.00  0.00     0.152 C 
HETATM    3  C   UNK N   1      23.426  12.660   7.988  0.00  0.00     0.164 A 
HETATM    4  C   UNK N   1      22.731  12.591  10.871  0.00  0.00     0.178 C 
HETATM    5  C   UNK N   1      21.737  13.302   9.934  0.00  0.00     0.188 C 
HETATM    6  C   UNK N   1      22.055  13.080   8.439  0.00  0.00     0.137 A 
HETATM    7  O   UNK N   1      23.083  14.006   8.094  0.00  0.00    -0.364 OA
ENDROOT
BRANCH   6   8
HETATM    8  C   UNK N   1      20.948  13.270   7.410  0.00  0.00     0.207 C 
BRANCH   8   9
HETATM    9  O   UNK N   1      20.042  14.241   7.842  0.00  0.00    -0.398 OA
HETATM   10  H   UNK N   1      19.107  14.500   7.811  0.00  0.00     0.209 HD
ENDBRANCH   8   9
ENDBRANCH   6   8
BRANCH   5  11
HETATM   11  O   UNK N   1      20.442  12.851  10.220  0.00  0.00    -0.390 OA
HETATM   12  H   UNK N   1      19.652  12.911   9.660  0.00  0.00     0.210 HD
ENDBRANCH   5  11
BRANCH   4  13
HETATM   13  O   UNK N   1      22.498  11.210  10.867  0.00  0.00    -0.390 OA
HETATM   14  H   UNK N   1      22.523  10.242  10.911  0.00  0.00     0.210 HD
ENDBRANCH   4  13
BRANCH   2  15
HETATM   15  O   UNK N   1      25.057  12.281  11.364  0.00  0.00    -0.393 OA
HETATM   16  H   UNK N   1      25.497  11.440  11.161  0.00  0.00     0.210 HD
ENDBRANCH   2  15
TORSDOF 5
ENDMDL
MODEL 6
REMARK VINA RESULT:      -4.4     12.144     13.547
REMARK  5 active torsions:
REMARK  status: ('A' for Active; 'I' for Inactive)
REMARK    1  A    between atoms: C_7  and  C_2 
REMARK    2  A    between atoms: O_8  and  C_2 
REMARK    3  A    between atoms: C_3  and  O_9 
REMARK    4  A    between atoms: C_5  and  O_10 
REMARK    5  A    between atoms: C_6  and  O_11 
ROOT
HETATM    1  C   UNK N   1      30.896  20.571  -5.986  0.00  0.00     0.069 C 
HETATM    2  C   UNK N   1      32.419  20.707  -5.845  0.00  0.00     0.152 C 
HETATM    3  C   UNK N   1      30.087  21.389  -4.973  0.00  0.00     0.164 A 
HETATM    4  C   UNK N   1      32.838  20.440  -4.394  0.00  0.00     0.178 C 
HETATM    5  C   UNK N   1      32.256  21.504  -3.443  0.00  0.00     0.188 C 
HETATM    6  C   UNK N   1      30.750  21.756  -3.674  0.00  0.00     0.137 A 
HETATM    7  O   UNK N   1      30.646  22.651  -4.780  0.00  0.00    -0.364 OA
ENDROOT
BRANCH   6   8
HETATM    8  C   UNK N   1      29.922  22.369  -2.552  0.00  0.00     0.207 C 
BRANCH   8   9
HETATM    9  O   UNK N   1      30.733  23.122  -1.701  0.00  0.00    -0.398 OA
HETATM   10  H   UNK N   1      31.490  23.729  -1.684  0.00  0.00     0.209 HD
ENDBRANCH   8   9
ENDBRANCH   6   8
BRANCH   5  11
HETATM   11  O   UNK N   1      32.476  21.100  -2.121  0.00  0.00    -0.390 OA
HETATM   12  H   UNK N   1      32.303  20.231  -1.726  0.00  0.00     0.210 HD
ENDBRANCH   5  11
BRANCH   4  13
HETATM   13  O   UNK N   1      32.407  19.163  -4.014  0.00  0.00    -0.390 OA
HETATM   14  H   UNK N   1      32.055  18.367  -3.589  0.00  0.00     0.210 HD
ENDBRANCH   4  13
BRANCH   2  15
HETATM   15  O   UNK N   1      33.032  19.783  -6.692  0.00  0.00    -0.393 OA
HETATM   16  H   UNK N   1      33.482  19.003  -6.328  0.00  0.00     0.210 HD
ENDBRANCH   2  15
TORSDOF 5
ENDMDL
MODEL 7
REMARK VINA RESULT:      -4.3     12.504     14.531
REMARK  5 active torsions:
REMARK  status: ('A' for Active; 'I' for Inactive)
REMARK    1  A    between atoms: C_7  and  C_2 
REMARK    2  A    between atoms: O_8  and  C_2 
REMARK    3  A    between atoms: C_3  and  O_9 
REMARK    4  A    between atoms: C_5  and  O_10 
REMARK    5  A    between atoms: C_6  and  O_11 
ROOT
HETATM    1  C   UNK N   1      32.986  15.315   6.927  0.00  0.00     0.069 C 
HETATM    2  C   UNK N   1      32.261  16.661   6.793  0.00  0.00     0.152 C 
HETATM    3  C   UNK N   1      33.839  15.174   8.194  0.00  0.00     0.164 A 
HETATM    4  C   UNK N   1      33.256  17.814   6.974  0.00  0.00     0.178 C 
HETATM    5  C   UNK N   1      33.844  17.822   8.398  0.00  0.00     0.188 C 
HETATM    6  C   UNK N   1      34.337  16.431   8.852  0.00  0.00     0.137 A 
HETATM    7  O   UNK N   1      33.189  15.714   9.302  0.00  0.00    -0.364 OA
ENDROOT
BRANCH   6   8
HETATM    8  C   UNK N   1      35.363  16.339   9.974  0.00  0.00     0.207 C 
BRANCH   8   9
HETATM    9  O   UNK N   1      35.021  17.197  11.021  0.00  0.00    -0.398 OA
HETATM   10  H   UNK N   1      34.320  17.405  11.658  0.00  0.00     0.209 HD
ENDBRANCH   8   9
ENDBRANCH   6   8
BRANCH   5  11
HETATM   11  O   UNK N   1      34.898  18.743   8.448  0.00  0.00    -0.390 OA
HETATM   12  H   UNK N   1      35.364  19.157   7.704  0.00  0.00     0.210 HD
ENDBRANCH   5  11
BRANCH   4  13
HETATM   13  O   UNK N   1      34.280  17.696   6.027  0.00  0.00    -0.390 OA
HETATM   14  H   UNK N   1      34.909  17.770   5.293  0.00  0.00     0.210 HD
ENDBRANCH   4  13
BRANCH   2  15
HETATM   15  O   UNK N   1      31.679  16.732   5.527  0.00  0.00    -0.393 OA
HETATM   16  H   UNK N   1      31.709  15.970   4.927  0.00  0.00     0.210 HD
ENDBRANCH   2  15
TORSDOF 5
ENDMDL
MODEL 8
REMARK VINA RESULT:      -4.3      9.213     11.128
REMARK  5 active torsions:
REMARK  status: ('A' for Active; 'I' for Inactive)
REMARK    1  A    between atoms: C_7  and  C_2 
REMARK    2  A    between atoms: O_8  and  C_2 
REMARK    3  A    between atoms: C_3  and  O_9 
REMARK    4  A    between atoms: C_5  and  O_10 
REMARK    5  A    between atoms: C_6  and  O_11 
ROOT
HETATM    1  C   UNK N   1      28.424  18.087   7.270  0.00  0.00     0.069 C 
HETATM    2  C   UNK N   1      28.402  17.468   8.674  0.00  0.00     0.152 C 
HETATM    3  C   UNK N   1      29.579  17.610   6.381  0.00  0.00     0.164 A 
HETATM    4  C   UNK N   1      29.773  17.631   9.342  0.00  0.00     0.178 C 
HETATM    5  C   UNK N   1      30.858  16.846   8.580  0.00  0.00     0.188 C 
HETATM    6  C   UNK N   1      30.818  17.090   7.056  0.00  0.00     0.137 A 
HETATM    7  O   UNK N   1      29.799  16.242   6.529  0.00  0.00    -0.364 OA
ENDROOT
BRANCH   6   8
HETATM    8  C   UNK N   1      32.068  16.816   6.229  0.00  0.00     0.207 C 
BRANCH   8   9
HETATM    9  O   UNK N   1      33.080  17.720   6.560  0.00  0.00    -0.398 OA
HETATM   10  H   UNK N   1      33.247  18.589   6.958  0.00  0.00     0.209 HD
ENDBRANCH   8   9
ENDBRANCH   6   8
BRANCH   5  11
HETATM   11  O   UNK N   1      32.114  17.200   9.089  0.00  0.00    -0.390 OA
HETATM   12  H   UNK N   1      32.887  17.524   8.599  0.00  0.00     0.210 HD
ENDBRANCH   5  11
BRANCH   4  13
HETATM   13  O   UNK N   1      30.104  18.991   9.393  0.00  0.00    -0.390 OA
HETATM   14  H   UNK N   1      30.327  19.906   9.619  0.00  0.00     0.210 HD
ENDBRANCH   4  13
BRANCH   2  15
HETATM   15  O   UNK N   1      27.426  18.114   9.433  0.00  0.00    -0.393 OA
HETATM   16  H   UNK N   1      26.536  17.735   9.519  0.00  0.00     0.210 HD
ENDBRANCH   2  15
TORSDOF 5
ENDMDL
MODEL 9
REMARK VINA RESULT:      -4.2      7.579      9.122
REMARK  5 active torsions:
REMARK  status: ('A' for Active; 'I' for Inactive)
REMARK    1  A    between atoms: C_7  and  C_2 
REMARK    2  A    between atoms: O_8  and  C_2 
REMARK    3  A    between atoms: C_3  and  O_9 
REMARK    4  A    between atoms: C_5  and  O_10 
REMARK    5  A    between atoms: C_6  and  O_11 
ROOT
HETATM    1  C   UNK N   1      30.144  17.243   5.223  0.00  0.00     0.069 C 
HETATM    2  C   UNK N   1      28.815  17.166   4.459  0.00  0.00     0.152 C 
HETATM    3  C   UNK N   1      29.999  17.474   6.732  0.00  0.00     0.164 A 
HETATM    4  C   UNK N   1      27.945  18.383   4.794  0.00  0.00     0.178 C 
HETATM    5  C   UNK N   1      27.546  18.387   6.282  0.00  0.00     0.188 C 
HETATM    6  C   UNK N   1      28.742  18.134   7.226  0.00  0.00     0.137 A 
HETATM    7  O   UNK N   1      28.950  16.724   7.259  0.00  0.00    -0.364 OA
ENDROOT
BRANCH   6   8
HETATM    8  C   UNK N   1      28.648  18.584   8.678  0.00  0.00     0.207 C 
BRANCH   8   9
HETATM    9  O   UNK N   1      27.432  18.183   9.236  0.00  0.00    -0.398 OA
HETATM   10  H   UNK N   1      26.633  17.661   9.064  0.00  0.00     0.209 HD
ENDBRANCH   8   9
ENDBRANCH   6   8
BRANCH   5  11
HETATM   11  O   UNK N   1      26.947  19.616   6.588  0.00  0.00    -0.390 OA
HETATM   12  H   UNK N   1      27.382  20.444   6.846  0.00  0.00     0.210 HD
ENDBRANCH   5  11
BRANCH   4  13
HETATM   13  O   UNK N   1      28.643  19.554   4.476  0.00  0.00    -0.390 OA
HETATM   14  H   UNK N   1      29.135  20.289   4.080  0.00  0.00     0.210 HD
ENDBRANCH   4  13
BRANCH   2  15
HETATM   15  O   UNK N   1      29.085  17.140   3.090  0.00  0.00    -0.393 OA
HETATM   16  H   UNK N   1      29.913  17.511   2.744  0.00  0.00     0.210 HD
ENDBRANCH   2  15
TORSDOF 5
ENDMDL
