MODEL 1
REMARK VINA RESULT:      -3.2      0.000      0.000
REMARK  3 active torsions:
REMARK  status: ('A' for Active; 'I' for Inactive)
REMARK    1  A    between atoms: C_2  and  O_3 
REMARK    2  A    between atoms: C_2  and  C_4 
REMARK    3  A    between atoms: C_4  and  O_5 
ROOT
HETATM    1  C   UNK N   1      21.905  19.440   3.361  0.00  0.00     0.041 C 
HETATM    2  C   UNK N   1      21.472  20.482   2.350  0.00  0.00     0.137 C 
ENDROOT
BRANCH   2   3
HETATM    3  O   UNK N   1      21.786  21.817   2.601  0.00  0.00    -0.394 OA
HETATM    4  H   UNK N   1      21.912  22.433   1.863  0.00  0.00     0.210 HD
ENDBRANCH   2   3
BRANCH   2   5
HETATM    5  C   UNK N   1      20.713  20.120   1.084  0.00  0.00     0.195 C 
BRANCH   5   6
HETATM    6  O   UNK N   1      21.067  20.983   0.045  0.00  0.00    -0.398 OA
HETATM    7  H   UNK N   1      20.487  21.078  -0.726  0.00  0.00     0.209 HD
ENDBRANCH   5   6
ENDBRANCH   2   5
TORSDOF 3
ENDMDL
MODEL 2
REMARK VINA RESULT:      -3.2     11.085     11.232
REMARK  3 active torsions:
REMARK  status: ('A' for Active; 'I' for Inactive)
REMARK    1  A    between atoms: C_2  and  O_3 
REMARK    2  A    between atoms: C_2  and  C_4 
REMARK    3  A    between atoms: C_4  and  O_5 
ROOT
HETATM    1  C   UNK N   1      31.124  20.715  -4.056  0.00  0.00     0.041 C 
HETATM    2  C   UNK N   1      31.550  21.646  -2.938  0.00  0.00     0.137 C 
ENDROOT
BRANCH   2   3
HETATM    3  O   UNK N   1      32.596  21.245  -2.108  0.00  0.00    -0.394 OA
HETATM    4  H   UNK N   1      32.711  20.306  -1.893  0.00  0.00     0.210 HD
ENDBRANCH   2   3
BRANCH   2   5
HETATM    5  C   UNK N   1      30.880  22.988  -2.699  0.00  0.00     0.195 C 
BRANCH   5   6
HETATM    6  O   UNK N   1      30.377  23.051  -1.397  0.00  0.00    -0.398 OA
HETATM    7  H   UNK N   1      29.464  23.341  -1.244  0.00  0.00     0.209 HD
ENDBRANCH   5   6
ENDBRANCH   2   5
TORSDOF 3
ENDMDL
MODEL 3
REMARK VINA RESULT:      -3.2     12.720     13.232
REMARK  3 active torsions:
REMARK  status: ('A' for Active; 'I' for Inactive)
REMARK    1  A    between atoms: C_2  and  O_3 
REMARK    2  A    between atoms: C_2  and  C_4 
REMARK    3  A    between atoms: C_4  and  O_5 
ROOT
HETATM    1  C   UNK N   1      23.258  11.913  13.107  0.00  0.00     0.041 C 
HETATM    2  C   UNK N   1      23.143  11.899  11.596  0.00  0.00     0.137 C 
ENDROOT
BRANCH   2   3
HETATM    3  O   UNK N   1      21.907  11.587  11.031  0.00  0.00    -0.394 OA
HETATM    4  H   UNK N   1      21.092  11.732  11.537  0.00  0.00     0.210 HD
ENDBRANCH   2   3
BRANCH   2   5
HETATM    5  C   UNK N   1      24.321  12.210  10.689  0.00  0.00     0.195 C 
BRANCH   5   6
HETATM    6  O   UNK N   1      25.381  12.730  11.435  0.00  0.00    -0.398 OA
HETATM    7  H   UNK N   1      26.094  12.146  11.736  0.00  0.00     0.209 HD
ENDBRANCH   5   6
ENDBRANCH   2   5
TORSDOF 3
ENDMDL
MODEL 4
REMARK VINA RESULT:      -3.1     12.366     13.200
REMARK  3 active torsions:
REMARK  status: ('A' for Active; 'I' for Inactive)
REMARK    1  A    between atoms: C_2  and  O_3 
REMARK    2  A    between atoms: C_2  and  C_4 
REMARK    3  A    between atoms: C_4  and  O_5 
ROOT
HETATM    1  C   UNK N   1      24.089  11.858   9.494  0.00  0.00     0.041 C 
HETATM    2  C   UNK N   1      24.317  12.226  10.946  0.00  0.00     0.137 C 
ENDROOT
BRANCH   2   3
HETATM    3  O   UNK N   1      25.514  12.851  11.289  0.00  0.00    -0.394 OA
HETATM    4  H   UNK N   1      25.990  12.581  12.090  0.00  0.00     0.210 HD
ENDBRANCH   2   3
BRANCH   2   5
HETATM    5  C   UNK N   1      23.289  11.936  12.028  0.00  0.00     0.195 C 
BRANCH   5   6
HETATM    6  O   UNK N   1      23.791  12.297  13.280  0.00  0.00    -0.398 OA
HETATM    7  H   UNK N   1      24.641  12.759  13.347  0.00  0.00     0.209 HD
ENDBRANCH   5   6
ENDBRANCH   2   5
TORSDOF 3
ENDMDL
MODEL 5
REMARK VINA RESULT:      -3.1     11.179     11.347
REMARK  3 active torsions:
REMARK  status: ('A' for Active; 'I' for Inactive)
REMARK    1  A    between atoms: C_2  and  O_3 
REMARK    2  A    between atoms: C_2  and  C_4 
REMARK    3  A    between atoms: C_4  and  O_5 
ROOT
HETATM    1  C   UNK N   1      30.731  23.998  -3.648  0.00  0.00     0.041 C 
HETATM    2  C   UNK N   1      31.011  22.870  -2.675  0.00  0.00     0.137 C 
ENDROOT
BRANCH   2   3
HETATM    3  O   UNK N   1      30.480  22.960  -1.390  0.00  0.00    -0.394 OA
HETATM    4  H   UNK N   1      30.792  22.362  -0.693  0.00  0.00     0.210 HD
ENDBRANCH   2   3
BRANCH   2   5
HETATM    5  C   UNK N   1      31.844  21.658  -3.056  0.00  0.00     0.195 C 
BRANCH   5   6
HETATM    6  O   UNK N   1      32.630  21.253  -1.975  0.00  0.00    -0.398 OA
HETATM    7  H   UNK N   1      32.288  21.332  -1.071  0.00  0.00     0.209 HD
ENDBRANCH   5   6
ENDBRANCH   2   5
TORSDOF 3
ENDMDL
MODEL 6
REMARK VINA RESULT:      -3.1     12.706     13.240
REMARK  3 active torsions:
REMARK  status: ('A' for Active; 'I' for Inactive)
REMARK    1  A    between atoms: C_2  and  O_3 
REMARK    2  A    between atoms: C_2  and  C_4 
REMARK    3  A    between atoms: C_4  and  O_5 
ROOT
HETATM    1  C   UNK N   1      23.300  11.926  13.243  0.00  0.00     0.041 C 
HETATM    2  C   UNK N   1      23.768  12.003  11.803  0.00  0.00     0.137 C 
ENDROOT
BRANCH   2   3
HETATM    3  O   UNK N   1      25.094  12.357  11.559  0.00  0.00    -0.394 OA
HETATM    4  H   UNK N   1      25.312  13.260  11.281  0.00  0.00     0.210 HD
ENDBRANCH   2   3
BRANCH   2   5
HETATM    5  C   UNK N   1      22.845  11.710  10.632  0.00  0.00     0.195 C 
BRANCH   5   6
HETATM    6  O   UNK N   1      21.512  11.738  11.049  0.00  0.00    -0.398 OA
HETATM    7  H   UNK N   1      20.802  11.571  10.411  0.00  0.00     0.209 HD
ENDBRANCH   5   6
ENDBRANCH   2   5
TORSDOF 3
ENDMDL
MODEL 7
REMARK VINA RESULT:      -3.0     22.675     23.211
REMARK  3 active torsions:
REMARK  status: ('A' for Active; 'I' for Inactive)
REMARK    1  A    between atoms: C_2  and  O_3 
REMARK    2  A    between atoms: C_2  and  C_4 
REMARK    3  A    between atoms: C_4  and  O_5 
ROOT
HETATM    1  C   UNK N   1      44.502  20.441   3.342  0.00  0.00     0.041 C 
HETATM    2  C   UNK N   1      44.605  21.914   3.681  0.00  0.00     0.137 C 
ENDROOT
BRANCH   2   3
HETATM    3  O   UNK N   1      45.793  22.382   4.239  0.00  0.00    -0.394 OA
HETATM    4  H   UNK N   1      46.049  23.311   4.128  0.00  0.00     0.210 HD
ENDBRANCH   2   3
BRANCH   2   5
HETATM    5  C   UNK N   1      43.463  22.886   3.434  0.00  0.00     0.195 C 
BRANCH   5   6
HETATM    6  O   UNK N   1      43.561  23.978   4.299  0.00  0.00    -0.398 OA
HETATM    7  H   UNK N   1      44.432  24.341   4.524  0.00  0.00     0.209 HD
ENDBRANCH   5   6
ENDBRANCH   2   5
TORSDOF 3
ENDMDL
MODEL 8
REMARK VINA RESULT:      -3.0     16.910     17.629
REMARK  3 active torsions:
REMARK  status: ('A' for Active; 'I' for Inactive)
REMARK    1  A    between atoms: C_2  and  O_3 
REMARK    2  A    between atoms: C_2  and  C_4 
REMARK    3  A    between atoms: C_4  and  O_5 
ROOT
HETATM    1  C   UNK N   1      35.461  14.199  12.349  0.00  0.00     0.041 C 
HETATM    2  C   UNK N   1      34.783  15.196  11.431  0.00  0.00     0.137 C 
ENDROOT
BRANCH   2   3
HETATM    3  O   UNK N   1      33.427  15.024  11.157  0.00  0.00    -0.394 OA
HETATM    4  H   UNK N   1      33.095  14.157  10.876  0.00  0.00     0.210 HD
ENDBRANCH   2   3
BRANCH   2   5
HETATM    5  C   UNK N   1      35.528  16.364  10.807  0.00  0.00     0.195 C 
BRANCH   5   6
HETATM    6  O   UNK N   1      36.906  16.140  10.858  0.00  0.00    -0.398 OA
HETATM    7  H   UNK N   1      37.317  15.511  10.246  0.00  0.00     0.209 HD
ENDBRANCH   5   6
ENDBRANCH   2   5
TORSDOF 3
ENDMDL
MODEL 9
REMARK VINA RESULT:      -3.0     13.291     14.304
REMARK  3 active torsions:
REMARK  status: ('A' for Active; 'I' for Inactive)
REMARK    1  A    between atoms: C_2  and  O_3 
REMARK    2  A    between atoms: C_2  and  C_4 
REMARK    3  A    between atoms: C_4  and  O_5 
ROOT
HETATM    1  C   UNK N   1      32.238  17.356   7.509  0.00  0.00     0.041 C 
HETATM    2  C   UNK N   1      33.690  17.774   7.400  0.00  0.00     0.137 C 
ENDROOT
BRANCH   2   3
HETATM    3  O   UNK N   1      34.245  17.910   6.128  0.00  0.00    -0.394 OA
HETATM    4  H   UNK N   1      34.263  17.152   5.524  0.00  0.00     0.210 HD
ENDBRANCH   2   3
BRANCH   2   5
HETATM    5  C   UNK N   1      34.551  18.047   8.622  0.00  0.00     0.195 C 
BRANCH   5   6
HETATM    6  O   UNK N   1      35.344  19.177   8.412  0.00  0.00    -0.398 OA
HETATM    7  H   UNK N   1      35.229  19.707   7.608  0.00  0.00     0.209 HD
ENDBRANCH   5   6
ENDBRANCH   2   5
TORSDOF 3
ENDMDL
