MODEL 1
REMARK VINA RESULT:      -3.5      0.000      0.000
REMARK  0 active torsions:
REMARK  status: ('A' for Active; 'I' for Inactive)
ROOT
HETATM    1  O   UNK N   1      20.571  20.298   3.995  0.00  0.00    -0.614 OA
HETATM    2  P   UNK N   1      21.223  20.618   2.419  0.00  0.00     0.462 P 
HETATM    3  O   UNK N   1      21.355  20.586   0.689  0.00  0.00    -0.614 OA
HETATM    4  F   UNK N   1      19.844  19.685   2.011  0.00  0.00    -0.122 F 
HETATM    5  O   UNK N   1      22.474  21.464   2.790  0.00  0.00    -0.614 OA
ENDROOT
TORSDOF 0
ENDMDL
MODEL 2
REMARK VINA RESULT:      -3.5      0.069      2.157
REMARK  0 active torsions:
REMARK  status: ('A' for Active; 'I' for Inactive)
ROOT
HETATM    1  O   UNK N   1      21.399  20.585   0.677  0.00  0.00    -0.614 OA
HETATM    2  P   UNK N   1      21.239  20.634   2.404  0.00  0.00     0.462 P 
HETATM    3  O   UNK N   1      20.543  20.360   3.970  0.00  0.00    -0.614 OA
HETATM    4  F   UNK N   1      19.818  19.776   1.976  0.00  0.00    -0.122 F 
HETATM    5  O   UNK N   1      22.528  21.412   2.792  0.00  0.00    -0.614 OA
ENDROOT
TORSDOF 0
ENDMDL
MODEL 3
REMARK VINA RESULT:      -3.2     14.439     14.786
REMARK  0 active torsions:
REMARK  status: ('A' for Active; 'I' for Inactive)
ROOT
HETATM    1  O   UNK N   1      35.223  19.108   8.487  0.00  0.00    -0.614 OA
HETATM    2  P   UNK N   1      34.266  17.776   7.921  0.00  0.00     0.462 P 
HETATM    3  O   UNK N   1      33.304  16.333   7.991  0.00  0.00    -0.614 OA
HETATM    4  F   UNK N   1      34.256  17.481   9.609  0.00  0.00    -0.122 F 
HETATM    5  O   UNK N   1      34.275  18.044   6.389  0.00  0.00    -0.614 OA
ENDROOT
TORSDOF 0
ENDMDL
MODEL 4
REMARK VINA RESULT:      -3.2     14.420     14.735
REMARK  0 active torsions:
REMARK  status: ('A' for Active; 'I' for Inactive)
ROOT
HETATM    1  O   UNK N   1      33.377  16.237   7.945  0.00  0.00    -0.614 OA
HETATM    2  P   UNK N   1      34.233  17.745   7.867  0.00  0.00     0.462 P 
HETATM    3  O   UNK N   1      35.086  19.148   8.428  0.00  0.00    -0.614 OA
HETATM    4  F   UNK N   1      34.223  17.470   9.559  0.00  0.00    -0.122 F 
HETATM    5  O   UNK N   1      34.242  17.994   6.332  0.00  0.00    -0.614 OA
ENDROOT
TORSDOF 0
ENDMDL
MODEL 5
REMARK VINA RESULT:      -3.1      1.411      2.182
REMARK  0 active torsions:
REMARK  status: ('A' for Active; 'I' for Inactive)
ROOT
HETATM    1  O   UNK N   1      22.423  21.405   2.827  0.00  0.00    -0.614 OA
HETATM    2  P   UNK N   1      21.179  20.377   2.189  0.00  0.00     0.462 P 
HETATM    3  O   UNK N   1      19.862  19.246   2.184  0.00  0.00    -0.614 OA
HETATM    4  F   UNK N   1      20.986  20.105   3.870  0.00  0.00    -0.122 F 
HETATM    5  O   UNK N   1      21.354  20.623   0.663  0.00  0.00    -0.614 OA
ENDROOT
TORSDOF 0
ENDMDL
MODEL 6
REMARK VINA RESULT:      -3.1      1.410      2.135
REMARK  0 active torsions:
REMARK  status: ('A' for Active; 'I' for Inactive)
ROOT
HETATM    1  O   UNK N   1      19.864  19.226   2.170  0.00  0.00    -0.614 OA
HETATM    2  P   UNK N   1      21.157  20.384   2.168  0.00  0.00     0.462 P 
HETATM    3  O   UNK N   1      22.374  21.447   2.800  0.00  0.00    -0.614 OA
HETATM    4  F   UNK N   1      20.956  20.134   3.852  0.00  0.00    -0.122 F 
HETATM    5  O   UNK N   1      21.340  20.610   0.640  0.00  0.00    -0.614 OA
ENDROOT
TORSDOF 0
ENDMDL
MODEL 7
REMARK VINA RESULT:      -3.0     14.567     15.119
REMARK  0 active torsions:
REMARK  status: ('A' for Active; 'I' for Inactive)
ROOT
HETATM    1  O   UNK N   1      35.297  19.293   8.448  0.00  0.00    -0.614 OA
HETATM    2  P   UNK N   1      34.560  17.734   8.650  0.00  0.00     0.462 P 
HETATM    3  O   UNK N   1      33.534  16.377   8.311  0.00  0.00    -0.614 OA
HETATM    4  F   UNK N   1      33.791  18.267   7.214  0.00  0.00    -0.122 F 
HETATM    5  O   UNK N   1      35.258  17.251   9.953  0.00  0.00    -0.614 OA
ENDROOT
TORSDOF 0
ENDMDL
MODEL 8
REMARK VINA RESULT:      -3.0     14.414     14.942
REMARK  0 active torsions:
REMARK  status: ('A' for Active; 'I' for Inactive)
ROOT
HETATM    1  O   UNK N   1      33.308  16.434   8.212  0.00  0.00    -0.614 OA
HETATM    2  P   UNK N   1      34.389  17.736   8.598  0.00  0.00     0.462 P 
HETATM    3  O   UNK N   1      35.258  19.225   8.403  0.00  0.00    -0.614 OA
HETATM    4  F   UNK N   1      33.828  18.233   7.057  0.00  0.00    -0.122 F 
HETATM    5  O   UNK N   1      34.897  17.285   9.997  0.00  0.00    -0.614 OA
ENDROOT
TORSDOF 0
ENDMDL
MODEL 9
REMARK VINA RESULT:      -2.9     10.883     11.334
REMARK  0 active torsions:
REMARK  status: ('A' for Active; 'I' for Inactive)
ROOT
HETATM    1  O   UNK N   1      30.315  23.060  -1.418  0.00  0.00    -0.614 OA
HETATM    2  P   UNK N   1      30.989  22.374  -2.862  0.00  0.00     0.462 P 
HETATM    3  O   UNK N   1      31.141  21.981  -4.546  0.00  0.00    -0.614 OA
HETATM    4  F   UNK N   1      29.602  23.154  -3.498  0.00  0.00    -0.122 F 
HETATM    5  O   UNK N   1      32.248  21.666  -2.285  0.00  0.00    -0.614 OA
ENDROOT
TORSDOF 0
ENDMDL
