MODEL 1
REMARK VINA RESULT:      -7.4      0.000      0.000
REMARK  17 active torsions:
REMARK  status: ('A' for Active; 'I' for Inactive)
REMARK       I    between atoms: C_2  and  N_4 
REMARK    1  A    between atoms: C_5  and  N_4 
REMARK    2  A    between atoms: C_6  and  O_7 
REMARK    3  A    between atoms: C_8  and  O_9 
REMARK    4  A    between atoms: C_10  and  C_11 
REMARK    5  A    between atoms: C_11  and  O_12 
REMARK    6  A    between atoms: C_14  and  O_15 
REMARK    7  A    between atoms: P_16  and  O_15 
REMARK    8  A    between atoms: P_16  and  O_17 
REMARK    9  A    between atoms: P_16  and  O_19 
REMARK   10  A    between atoms: P_20  and  O_19 
REMARK   11  A    between atoms: P_20  and  O_21 
REMARK   12  A    between atoms: P_20  and  O_23 
REMARK   13  A    between atoms: O_23  and  C_24 
REMARK   14  A    between atoms: C_25  and  C_24 
REMARK   15  A    between atoms: C_27  and  N_32 
REMARK   16  A    between atoms: C_28  and  O_29 
REMARK   17  A    between atoms: C_30  and  O_31 
ROOT
HETATM    1  O   UNK N   1      35.401  14.746   9.049  0.00  0.00    -0.195 OA
ENDROOT
BRANCH   1   2
HETATM    2  P   UNK N   1      34.973  15.391  10.605  0.00  0.00     0.404 P 
HETATM    3  O   UNK N   1      34.964  16.930  10.438  0.00  0.00    -0.631 OA
BRANCH   2   4
HETATM    4  O   UNK N   1      36.109  14.889  11.843  0.00  0.00    -0.263 OA
BRANCH   4   5
HETATM    5  C   UNK N   1      35.747  13.651  12.402  0.00  0.00     0.297 C 
HETATM    6  O   UNK N   1      35.419  12.625  11.491  0.00  0.00    -0.348 OA
HETATM    7  C   UNK N   1      36.548  11.794  11.367  0.00  0.00     0.179 C 
HETATM    8  C   UNK N   1      36.799  11.033  12.672  0.00  0.00     0.180 C 
HETATM    9  C   UNK N   1      37.201  12.071  13.725  0.00  0.00     0.177 C 
HETATM   10  C   UNK N   1      36.229  13.255  13.814  0.00  0.00     0.171 C 
BRANCH   7  11
HETATM   11  C   UNK N   1      36.420  10.883  10.162  0.00  0.00     0.198 C 
BRANCH  11  12
HETATM   12  O   UNK N   1      35.127  10.359  10.117  0.00  0.00    -0.398 OA
HETATM   13  H   UNK N   1      34.495  10.553  10.826  0.00  0.00     0.209 HD
ENDBRANCH  11  12
ENDBRANCH   7  11
BRANCH   8  14
HETATM   14  O   UNK N   1      35.651  10.338  13.062  0.00  0.00    -0.390 OA
HETATM   15  H   UNK N   1      35.195  10.057  13.870  0.00  0.00     0.210 HD
ENDBRANCH   8  14
BRANCH   9  16
HETATM   16  O   UNK N   1      37.397  11.486  14.975  0.00  0.00    -0.391 OA
HETATM   17  H   UNK N   1      37.572  12.013  15.770  0.00  0.00     0.210 HD
ENDBRANCH   9  16
BRANCH  10  18
HETATM   18  N   UNK N   1      36.914  14.380  14.413  0.00  0.00    -0.349 N 
HETATM   19  C   UNK N   1      36.854  14.681  15.729  0.00  0.00     0.214 C 
HETATM   20  C   UNK N   1      37.569  15.886  16.234  0.00  0.00     0.117 C 
HETATM   21  O   UNK N   1      36.218  13.983  16.502  0.00  0.00    -0.274 OA
HETATM   22  H   UNK N   1      37.454  14.960  13.828  0.00  0.00     0.163 HD
ENDBRANCH  10  18
ENDBRANCH   4   5
ENDBRANCH   2   4
BRANCH   2  23
HETATM   23  O   UNK N   1      33.350  14.998  11.081  0.00  0.00    -0.307 OA
HETATM   24  H   UNK N   1      32.696  15.639  11.400  0.00  0.00     0.222 HD
ENDBRANCH   2  23
ENDBRANCH   1   2
BRANCH   1  25
HETATM   25  P   UNK N   1      33.981  13.932   8.488  0.00  0.00     0.401 P 
HETATM   26  O   UNK N   1      34.357  13.215   7.162  0.00  0.00    -0.631 OA
BRANCH  25  27
HETATM   27  O   UNK N   1      33.466  12.697   9.592  0.00  0.00    -0.307 OA
HETATM   28  H   UNK N   1      33.192  12.156  10.349  0.00  0.00     0.222 HD
ENDBRANCH  25  27
BRANCH  25  29
HETATM   29  O   UNK N   1      32.686  15.062   8.205  0.00  0.00    -0.294 OA
BRANCH  29  30
HETATM   30  C   UNK N   1      32.861  15.610   6.937  0.00  0.00     0.215 C 
BRANCH  30  31
HETATM   31  C   UNK N   1      31.868  16.749   6.747  0.00  0.00     0.180 C 
HETATM   32  O   UNK N   1      30.559  16.214   6.835  0.00  0.00    -0.353 OA
HETATM   33  C   UNK N   1      29.859  16.984   7.781  0.00  0.00     0.263 C 
HETATM   34  C   UNK N   1      30.910  17.523   8.733  0.00  0.00     0.198 C 
HETATM   35  C   UNK N   1      32.007  17.868   7.789  0.00  0.00     0.182 C 
BRANCH  33  36
HETATM   36  N   UNK N   1      28.979  17.904   7.033  0.00  0.00    -0.280 N 
HETATM   37  C   UNK N   1      29.174  17.904   5.685  0.00  0.00     0.104 A 
HETATM   38  C   UNK N   1      28.485  18.778   4.852  0.00  0.00     0.092 A 
HETATM   39  C   UNK N   1      27.592  19.672   5.420  0.00  0.00     0.250 A 
HETATM   40  O   UNK N   1      26.992  20.463   4.715  0.00  0.00    -0.268 OA
HETATM   41  N   UNK N   1      27.394  19.672   6.770  0.00  0.00    -0.275 N 
HETATM   42  C   UNK N   1      28.072  18.804   7.585  0.00  0.00     0.331 A 
HETATM   43  H   UNK N   1      26.752  20.305   7.166  0.00  0.00     0.173 HD
HETATM   44  O   UNK N   1      27.885  18.865   8.784  0.00  0.00    -0.246 OA
ENDBRANCH  33  36
BRANCH  34  45
HETATM   45  O   UNK N   1      30.479  18.584   9.531  0.00  0.00    -0.388 OA
HETATM   46  H   UNK N   1      30.429  19.523   9.290  0.00  0.00     0.210 HD
ENDBRANCH  34  45
BRANCH  35  47
HETATM   47  O   UNK N   1      33.249  17.899   8.431  0.00  0.00    -0.390 OA
HETATM   48  H   UNK N   1      34.089  17.945   7.949  0.00  0.00     0.210 HD
ENDBRANCH  35  47
ENDBRANCH  30  31
ENDBRANCH  29  30
ENDBRANCH  25  29
ENDBRANCH   1  25
TORSDOF 17
ENDMDL
MODEL 2
REMARK VINA RESULT:      -7.3      6.231     13.703
REMARK  17 active torsions:
REMARK  status: ('A' for Active; 'I' for Inactive)
REMARK       I    between atoms: C_2  and  N_4 
REMARK    1  A    between atoms: C_5  and  N_4 
REMARK    2  A    between atoms: C_6  and  O_7 
REMARK    3  A    between atoms: C_8  and  O_9 
REMARK    4  A    between atoms: C_10  and  C_11 
REMARK    5  A    between atoms: C_11  and  O_12 
REMARK    6  A    between atoms: C_14  and  O_15 
REMARK    7  A    between atoms: P_16  and  O_15 
REMARK    8  A    between atoms: P_16  and  O_17 
REMARK    9  A    between atoms: P_16  and  O_19 
REMARK   10  A    between atoms: P_20  and  O_19 
REMARK   11  A    between atoms: P_20  and  O_21 
REMARK   12  A    between atoms: P_20  and  O_23 
REMARK   13  A    between atoms: O_23  and  C_24 
REMARK   14  A    between atoms: C_25  and  C_24 
REMARK   15  A    between atoms: C_27  and  N_32 
REMARK   16  A    between atoms: C_28  and  O_29 
REMARK   17  A    between atoms: C_30  and  O_31 
ROOT
HETATM    1  O   UNK N   1      24.754  14.691   4.396  0.00  0.00    -0.195 OA
ENDROOT
BRANCH   1   2
HETATM    2  P   UNK N   1      23.344  15.589   4.871  0.00  0.00     0.404 P 
HETATM    3  O   UNK N   1      22.399  14.567   5.550  0.00  0.00    -0.631 OA
BRANCH   2   4
HETATM    4  O   UNK N   1      22.575  16.352   3.492  0.00  0.00    -0.263 OA
BRANCH   4   5
HETATM    5  C   UNK N   1      21.746  17.417   3.888  0.00  0.00     0.297 C 
HETATM    6  O   UNK N   1      22.378  18.664   4.072  0.00  0.00    -0.348 OA
HETATM    7  C   UNK N   1      22.144  19.430   2.915  0.00  0.00     0.179 C 
HETATM    8  C   UNK N   1      20.663  19.803   2.808  0.00  0.00     0.180 C 
HETATM    9  C   UNK N   1      19.891  18.501   2.568  0.00  0.00     0.177 C 
HETATM   10  C   UNK N   1      20.235  17.395   3.574  0.00  0.00     0.171 C 
BRANCH   7  11
HETATM   11  C   UNK N   1      23.065  20.634   2.869  0.00  0.00     0.198 C 
BRANCH  11  12
HETATM   12  O   UNK N   1      22.298  21.798   2.798  0.00  0.00    -0.398 OA
HETATM   13  H   UNK N   1      22.020  22.252   3.609  0.00  0.00     0.209 HD
ENDBRANCH  11  12
ENDBRANCH   7  11
BRANCH   8  14
HETATM   14  O   UNK N   1      20.231  20.436   3.977  0.00  0.00    -0.390 OA
HETATM   15  H   UNK N   1      19.573  20.322   4.681  0.00  0.00     0.210 HD
ENDBRANCH   8  14
BRANCH   9  16
HETATM   16  O   UNK N   1      18.516  18.721   2.514  0.00  0.00    -0.391 OA
HETATM   17  H   UNK N   1      18.062  19.312   3.134  0.00  0.00     0.210 HD
ENDBRANCH   9  16
BRANCH  10  18
HETATM   18  N   UNK N   1      19.890  16.113   2.999  0.00  0.00    -0.349 N 
HETATM   19  C   UNK N   1      19.386  15.082   3.713  0.00  0.00     0.214 C 
HETATM   20  C   UNK N   1      19.100  13.792   3.026  0.00  0.00     0.117 C 
HETATM   21  O   UNK N   1      19.172  15.195   4.909  0.00  0.00    -0.274 OA
HETATM   22  H   UNK N   1      20.030  15.984   2.033  0.00  0.00     0.163 HD
ENDBRANCH  10  18
ENDBRANCH   4   5
ENDBRANCH   2   4
BRANCH   2  23
HETATM   23  O   UNK N   1      23.670  16.764   6.106  0.00  0.00    -0.307 OA
HETATM   24  H   UNK N   1      23.002  17.326   6.526  0.00  0.00     0.222 HD
ENDBRANCH   2  23
ENDBRANCH   1   2
BRANCH   1  25
HETATM   25  P   UNK N   1      25.924  15.884   3.948  0.00  0.00     0.401 P 
HETATM   26  O   UNK N   1      26.293  15.628   2.460  0.00  0.00    -0.631 OA
BRANCH  25  27
HETATM   27  O   UNK N   1      25.270  17.490   4.028  0.00  0.00    -0.307 OA
HETATM   28  H   UNK N   1      24.806  18.332   3.903  0.00  0.00     0.222 HD
ENDBRANCH  25  27
BRANCH  25  29
HETATM   29  O   UNK N   1      27.348  15.766   4.943  0.00  0.00    -0.294 OA
BRANCH  29  30
HETATM   30  C   UNK N   1      27.308  16.799   5.877  0.00  0.00     0.215 C 
BRANCH  30  31
HETATM   31  C   UNK N   1      28.719  17.330   6.089  0.00  0.00     0.180 C 
HETATM   32  O   UNK N   1      29.564  16.232   6.388  0.00  0.00    -0.353 OA
HETATM   33  C   UNK N   1      30.658  16.300   5.506  0.00  0.00     0.263 C 
HETATM   34  C   UNK N   1      30.147  17.009   4.267  0.00  0.00     0.198 C 
HETATM   35  C   UNK N   1      29.291  18.066   4.870  0.00  0.00     0.182 C 
BRANCH  33  36
HETATM   36  N   UNK N   1      31.801  16.845   6.267  0.00  0.00    -0.280 N 
HETATM   37  C   UNK N   1      31.478  17.353   7.489  0.00  0.00     0.104 A 
HETATM   38  C   UNK N   1      32.426  17.980   8.288  0.00  0.00     0.092 A 
HETATM   39  C   UNK N   1      33.723  18.095   7.814  0.00  0.00     0.250 A 
HETATM   40  O   UNK N   1      34.568  18.660   8.484  0.00  0.00    -0.268 OA
HETATM   41  N   UNK N   1      34.049  17.584   6.591  0.00  0.00    -0.275 N 
HETATM   42  C   UNK N   1      33.111  16.962   5.811  0.00  0.00     0.331 A 
HETATM   43  H   UNK N   1      34.975  17.663   6.264  0.00  0.00     0.173 HD
HETATM   44  O   UNK N   1      33.442  16.554   4.716  0.00  0.00    -0.246 OA
ENDBRANCH  33  36
BRANCH  34  45
HETATM   45  O   UNK N   1      31.147  17.488   3.419  0.00  0.00    -0.388 OA
HETATM   46  H   UNK N   1      31.715  18.263   3.554  0.00  0.00     0.210 HD
ENDBRANCH  34  45
BRANCH  35  47
HETATM   47  O   UNK N   1      28.322  18.521   3.971  0.00  0.00    -0.390 OA
HETATM   48  H   UNK N   1      28.024  17.999   3.209  0.00  0.00     0.210 HD
ENDBRANCH  35  47
ENDBRANCH  30  31
ENDBRANCH  29  30
ENDBRANCH  25  29
ENDBRANCH   1  25
TORSDOF 17
ENDMDL
MODEL 3
REMARK VINA RESULT:      -7.3      2.552      9.813
REMARK  17 active torsions:
REMARK  status: ('A' for Active; 'I' for Inactive)
REMARK       I    between atoms: C_2  and  N_4 
REMARK    1  A    between atoms: C_5  and  N_4 
REMARK    2  A    between atoms: C_6  and  O_7 
REMARK    3  A    between atoms: C_8  and  O_9 
REMARK    4  A    between atoms: C_10  and  C_11 
REMARK    5  A    between atoms: C_11  and  O_12 
REMARK    6  A    between atoms: C_14  and  O_15 
REMARK    7  A    between atoms: P_16  and  O_15 
REMARK    8  A    between atoms: P_16  and  O_17 
REMARK    9  A    between atoms: P_16  and  O_19 
REMARK   10  A    between atoms: P_20  and  O_19 
REMARK   11  A    between atoms: P_20  and  O_21 
REMARK   12  A    between atoms: P_20  and  O_23 
REMARK   13  A    between atoms: O_23  and  C_24 
REMARK   14  A    between atoms: C_25  and  C_24 
REMARK   15  A    between atoms: C_27  and  N_32 
REMARK   16  A    between atoms: C_28  and  O_29 
REMARK   17  A    between atoms: C_30  and  O_31 
ROOT
HETATM    1  O   UNK N   1      34.921  16.562   7.244  0.00  0.00    -0.195 OA
ENDROOT
BRANCH   1   2
HETATM    2  P   UNK N   1      33.758  16.633   5.955  0.00  0.00     0.404 P 
HETATM    3  O   UNK N   1      33.810  18.084   5.417  0.00  0.00    -0.631 OA
BRANCH   2   4
HETATM    4  O   UNK N   1      32.150  16.217   6.518  0.00  0.00    -0.263 OA
BRANCH   4   5
HETATM    5  C   UNK N   1      31.160  16.664   5.625  0.00  0.00     0.297 C 
HETATM    6  O   UNK N   1      31.188  16.104   4.331  0.00  0.00    -0.348 OA
HETATM    7  C   UNK N   1      30.213  15.090   4.288  0.00  0.00     0.179 C 
HETATM    8  C   UNK N   1      28.809  15.693   4.375  0.00  0.00     0.180 C 
HETATM    9  C   UNK N   1      28.669  16.300   5.775  0.00  0.00     0.177 C 
HETATM   10  C   UNK N   1      29.826  17.235   6.151  0.00  0.00     0.171 C 
BRANCH   7  11
HETATM   11  C   UNK N   1      30.406  14.205   3.073  0.00  0.00     0.198 C 
BRANCH  11  12
HETATM   12  O   UNK N   1      29.158  13.822   2.578  0.00  0.00    -0.398 OA
HETATM   13  H   UNK N   1      28.351  14.245   2.909  0.00  0.00     0.209 HD
ENDBRANCH  11  12
ENDBRANCH   7  11
BRANCH   8  14
HETATM   14  O   UNK N   1      28.630  16.663   3.385  0.00  0.00    -0.390 OA
HETATM   15  H   UNK N   1      27.917  17.172   2.968  0.00  0.00     0.210 HD
ENDBRANCH   8  14
BRANCH   9  16
HETATM   16  O   UNK N   1      27.438  16.932   5.942  0.00  0.00    -0.391 OA
HETATM   17  H   UNK N   1      27.268  17.550   6.669  0.00  0.00     0.210 HD
ENDBRANCH   9  16
BRANCH  10  18
HETATM   18  N   UNK N   1      29.893  17.343   7.593  0.00  0.00    -0.349 N 
HETATM   19  C   UNK N   1      29.274  18.311   8.302  0.00  0.00     0.214 C 
HETATM   20  C   UNK N   1      29.441  18.350   9.781  0.00  0.00     0.117 C 
HETATM   21  O   UNK N   1      28.590  19.155   7.745  0.00  0.00    -0.274 OA
HETATM   22  H   UNK N   1      30.420  16.672   8.084  0.00  0.00     0.163 HD
ENDBRANCH  10  18
ENDBRANCH   4   5
ENDBRANCH   2   4
BRANCH   2  23
HETATM   23  O   UNK N   1      34.192  15.649   4.592  0.00  0.00    -0.307 OA
HETATM   24  H   UNK N   1      34.522  14.740   4.648  0.00  0.00     0.222 HD
ENDBRANCH   2  23
ENDBRANCH   1   2
BRANCH   1  25
HETATM   25  P   UNK N   1      34.423  17.774   8.374  0.00  0.00     0.401 P 
HETATM   26  O   UNK N   1      35.362  18.997   8.179  0.00  0.00    -0.631 OA
BRANCH  25  27
HETATM   27  O   UNK N   1      32.810  18.329   8.054  0.00  0.00    -0.307 OA
HETATM   28  H   UNK N   1      31.876  18.445   7.822  0.00  0.00     0.222 HD
ENDBRANCH  25  27
BRANCH  25  29
HETATM   29  O   UNK N   1      34.542  17.188  10.009  0.00  0.00    -0.294 OA
BRANCH  29  30
HETATM   30  C   UNK N   1      34.425  15.800   9.979  0.00  0.00     0.215 C 
BRANCH  30  31
HETATM   31  C   UNK N   1      34.781  15.242  11.350  0.00  0.00     0.180 C 
HETATM   32  O   UNK N   1      34.263  13.927  11.442  0.00  0.00    -0.353 OA
HETATM   33  C   UNK N   1      35.321  13.091  11.842  0.00  0.00     0.263 C 
HETATM   34  C   UNK N   1      36.587  13.758  11.340  0.00  0.00     0.198 C 
HETATM   35  C   UNK N   1      36.292  15.189  11.621  0.00  0.00     0.182 C 
BRANCH  33  36
HETATM   36  N   UNK N   1      35.138  12.810  13.281  0.00  0.00    -0.280 N 
HETATM   37  C   UNK N   1      35.759  13.692  14.113  0.00  0.00     0.104 A 
HETATM   38  C   UNK N   1      35.755  13.515  15.491  0.00  0.00     0.092 A 
HETATM   39  C   UNK N   1      35.112  12.406  16.017  0.00  0.00     0.250 A 
HETATM   40  O   UNK N   1      35.112  12.215  17.219  0.00  0.00    -0.268 OA
HETATM   41  N   UNK N   1      34.487  11.523  15.184  0.00  0.00    -0.275 N 
HETATM   42  C   UNK N   1      34.490  11.707  13.826  0.00  0.00     0.331 A 
HETATM   43  H   UNK N   1      34.026  10.741  15.566  0.00  0.00     0.173 HD
HETATM   44  O   UNK N   1      33.950  10.875  13.125  0.00  0.00    -0.246 OA
ENDBRANCH  33  36
BRANCH  34  45
HETATM   45  O   UNK N   1      37.762  13.285  11.924  0.00  0.00    -0.388 OA
HETATM   46  H   UNK N   1      37.846  12.630  12.636  0.00  0.00     0.210 HD
ENDBRANCH  34  45
BRANCH  35  47
HETATM   47  O   UNK N   1      37.048  16.041  10.809  0.00  0.00    -0.390 OA
HETATM   48  H   UNK N   1      36.983  17.008  10.858  0.00  0.00     0.210 HD
ENDBRANCH  35  47
ENDBRANCH  30  31
ENDBRANCH  29  30
ENDBRANCH  25  29
ENDBRANCH   1  25
TORSDOF 17
ENDMDL
MODEL 4
REMARK VINA RESULT:      -7.1      3.451      9.580
REMARK  17 active torsions:
REMARK  status: ('A' for Active; 'I' for Inactive)
REMARK       I    between atoms: C_2  and  N_4 
REMARK    1  A    between atoms: C_5  and  N_4 
REMARK    2  A    between atoms: C_6  and  O_7 
REMARK    3  A    between atoms: C_8  and  O_9 
REMARK    4  A    between atoms: C_10  and  C_11 
REMARK    5  A    between atoms: C_11  and  O_12 
REMARK    6  A    between atoms: C_14  and  O_15 
REMARK    7  A    between atoms: P_16  and  O_15 
REMARK    8  A    between atoms: P_16  and  O_17 
REMARK    9  A    between atoms: P_16  and  O_19 
REMARK   10  A    between atoms: P_20  and  O_19 
REMARK   11  A    between atoms: P_20  and  O_21 
REMARK   12  A    between atoms: P_20  and  O_23 
REMARK   13  A    between atoms: O_23  and  C_24 
REMARK   14  A    between atoms: C_25  and  C_24 
REMARK   15  A    between atoms: C_27  and  N_32 
REMARK   16  A    between atoms: C_28  and  O_29 
REMARK   17  A    between atoms: C_30  and  O_31 
ROOT
HETATM    1  O   UNK N   1      35.052  10.872   8.848  0.00  0.00    -0.195 OA
ENDROOT
BRANCH   1   2
HETATM    2  P   UNK N   1      33.922  12.055   8.262  0.00  0.00     0.404 P 
HETATM    3  O   UNK N   1      33.142  11.365   7.116  0.00  0.00    -0.631 OA
BRANCH   2   4
HETATM    4  O   UNK N   1      34.742  13.499   7.698  0.00  0.00    -0.263 OA
BRANCH   4   5
HETATM    5  C   UNK N   1      33.975  14.653   7.937  0.00  0.00     0.297 C 
HETATM    6  O   UNK N   1      34.060  15.201   9.234  0.00  0.00    -0.348 OA
HETATM    7  C   UNK N   1      34.954  16.286   9.176  0.00  0.00     0.179 C 
HETATM    8  C   UNK N   1      34.358  17.430   8.353  0.00  0.00     0.180 C 
HETATM    9  C   UNK N   1      34.260  16.936   6.906  0.00  0.00     0.177 C 
HETATM   10  C   UNK N   1      33.560  15.578   6.772  0.00  0.00     0.171 C 
BRANCH   7  11
HETATM   11  C   UNK N   1      35.379  16.712  10.568  0.00  0.00     0.198 C 
BRANCH  11  12
HETATM   12  O   UNK N   1      36.688  16.287  10.801  0.00  0.00    -0.398 OA
HETATM   13  H   UNK N   1      36.880  15.668  11.522  0.00  0.00     0.209 HD
ENDBRANCH  11  12
ENDBRANCH   7  11
BRANCH   8  14
HETATM   14  O   UNK N   1      33.101  17.787   8.850  0.00  0.00    -0.390 OA
HETATM   15  H   UNK N   1      32.490  17.543   9.563  0.00  0.00     0.210 HD
ENDBRANCH   8  14
BRANCH   9  16
HETATM   16  O   UNK N   1      33.670  17.889   6.076  0.00  0.00    -0.391 OA
HETATM   17  H   UNK N   1      34.084  18.748   5.899  0.00  0.00     0.210 HD
ENDBRANCH   9  16
BRANCH  10  18
HETATM   18  N   UNK N   1      33.955  14.967   5.521  0.00  0.00    -0.349 N 
HETATM   19  C   UNK N   1      33.253  15.089   4.373  0.00  0.00     0.214 C 
HETATM   20  C   UNK N   1      33.730  14.387   3.149  0.00  0.00     0.117 C 
HETATM   21  O   UNK N   1      32.233  15.758   4.331  0.00  0.00    -0.274 OA
HETATM   22  H   UNK N   1      34.781  14.433   5.505  0.00  0.00     0.163 HD
ENDBRANCH  10  18
ENDBRANCH   4   5
ENDBRANCH   2   4
BRANCH   2  23
HETATM   23  O   UNK N   1      32.705  12.468   9.427  0.00  0.00    -0.307 OA
HETATM   24  H   UNK N   1      32.751  12.263  10.374  0.00  0.00     0.222 HD
ENDBRANCH   2  23
ENDBRANCH   1   2
BRANCH   1  25
HETATM   25  P   UNK N   1      34.154   9.898   9.961  0.00  0.00     0.401 P 
HETATM   26  O   UNK N   1      32.766   9.627   9.319  0.00  0.00    -0.631 OA
BRANCH  25  27
HETATM   27  O   UNK N   1      34.898   8.350  10.209  0.00  0.00    -0.307 OA
HETATM   28  H   UNK N   1      35.404   7.578  10.506  0.00  0.00     0.222 HD
ENDBRANCH  25  27
BRANCH  25  29
HETATM   29  O   UNK N   1      33.954  10.718  11.485  0.00  0.00    -0.294 OA
BRANCH  29  30
HETATM   30  C   UNK N   1      35.214  10.881  12.055  0.00  0.00     0.215 C 
BRANCH  30  31
HETATM   31  C   UNK N   1      35.100  11.816  13.251  0.00  0.00     0.180 C 
HETATM   32  O   UNK N   1      36.258  11.655  14.052  0.00  0.00    -0.353 OA
HETATM   33  C   UNK N   1      36.797  12.936  14.264  0.00  0.00     0.263 C 
HETATM   34  C   UNK N   1      36.378  13.765  13.066  0.00  0.00     0.198 C 
HETATM   35  C   UNK N   1      34.979  13.298  12.865  0.00  0.00     0.182 C 
BRANCH  33  36
HETATM   36  N   UNK N   1      36.423  13.348  15.632  0.00  0.00    -0.280 N 
HETATM   37  C   UNK N   1      35.508  12.539  16.237  0.00  0.00     0.104 A 
HETATM   38  C   UNK N   1      34.990  12.840  17.491  0.00  0.00     0.092 A 
HETATM   39  C   UNK N   1      35.411  13.999  18.123  0.00  0.00     0.250 A 
HETATM   40  O   UNK N   1      34.956  14.298  19.211  0.00  0.00    -0.268 OA
HETATM   41  N   UNK N   1      36.329  14.809  17.519  0.00  0.00    -0.275 N 
HETATM   42  C   UNK N   1      36.841  14.503  16.286  0.00  0.00     0.331 A 
HETATM   43  H   UNK N   1      36.629  15.627  17.979  0.00  0.00     0.173 HD
HETATM   44  O   UNK N   1      37.629  15.273  15.776  0.00  0.00    -0.246 OA
ENDBRANCH  33  36
BRANCH  34  45
HETATM   45  O   UNK N   1      36.507  15.143  13.241  0.00  0.00    -0.388 OA
HETATM   46  H   UNK N   1      35.859  15.831  13.019  0.00  0.00     0.210 HD
ENDBRANCH  34  45
BRANCH  35  47
HETATM   47  O   UNK N   1      34.546  13.513  11.553  0.00  0.00    -0.390 OA
HETATM   48  H   UNK N   1      34.864  14.250  11.009  0.00  0.00     0.210 HD
ENDBRANCH  35  47
ENDBRANCH  30  31
ENDBRANCH  29  30
ENDBRANCH  25  29
ENDBRANCH   1  25
TORSDOF 17
ENDMDL
MODEL 5
REMARK VINA RESULT:      -7.0      2.586     10.635
REMARK  17 active torsions:
REMARK  status: ('A' for Active; 'I' for Inactive)
REMARK       I    between atoms: C_2  and  N_4 
REMARK    1  A    between atoms: C_5  and  N_4 
REMARK    2  A    between atoms: C_6  and  O_7 
REMARK    3  A    between atoms: C_8  and  O_9 
REMARK    4  A    between atoms: C_10  and  C_11 
REMARK    5  A    between atoms: C_11  and  O_12 
REMARK    6  A    between atoms: C_14  and  O_15 
REMARK    7  A    between atoms: P_16  and  O_15 
REMARK    8  A    between atoms: P_16  and  O_17 
REMARK    9  A    between atoms: P_16  and  O_19 
REMARK   10  A    between atoms: P_20  and  O_19 
REMARK   11  A    between atoms: P_20  and  O_21 
REMARK   12  A    between atoms: P_20  and  O_23 
REMARK   13  A    between atoms: O_23  and  C_24 
REMARK   14  A    between atoms: C_25  and  C_24 
REMARK   15  A    between atoms: C_27  and  N_32 
REMARK   16  A    between atoms: C_28  and  O_29 
REMARK   17  A    between atoms: C_30  and  O_31 
ROOT
HETATM    1  O   UNK N   1      33.900  15.479   9.920  0.00  0.00    -0.195 OA
ENDROOT
BRANCH   1   2
HETATM    2  P   UNK N   1      33.593  16.417   8.490  0.00  0.00     0.404 P 
HETATM    3  O   UNK N   1      33.348  17.865   8.978  0.00  0.00    -0.631 OA
BRANCH   2   4
HETATM    4  O   UNK N   1      32.212  15.799   7.602  0.00  0.00    -0.263 OA
BRANCH   4   5
HETATM    5  C   UNK N   1      31.933  16.586   6.471  0.00  0.00     0.297 C 
HETATM    6  O   UNK N   1      32.736  16.353   5.335  0.00  0.00    -0.348 OA
HETATM    7  C   UNK N   1      32.000  15.534   4.459  0.00  0.00     0.179 C 
HETATM    8  C   UNK N   1      30.802  16.298   3.888  0.00  0.00     0.180 C 
HETATM    9  C   UNK N   1      29.847  16.568   5.055  0.00  0.00     0.177 C 
HETATM   10  C   UNK N   1      30.533  17.206   6.270  0.00  0.00     0.171 C 
BRANCH   7  11
HETATM   11  C   UNK N   1      32.896  14.946   3.387  0.00  0.00     0.198 C 
BRANCH  11  12
HETATM   12  O   UNK N   1      33.334  15.967   2.542  0.00  0.00    -0.398 OA
HETATM   13  H   UNK N   1      32.820  16.204   1.755  0.00  0.00     0.209 HD
ENDBRANCH  11  12
ENDBRANCH   7  11
BRANCH   8  14
HETATM   14  O   UNK N   1      31.222  17.492   3.294  0.00  0.00    -0.390 OA
HETATM   15  H   UNK N   1      31.859  17.806   2.634  0.00  0.00     0.210 HD
ENDBRANCH   8  14
BRANCH   9  16
HETATM   16  O   UNK N   1      28.741  17.316   4.653  0.00  0.00    -0.391 OA
HETATM   17  H   UNK N   1      28.049  16.949   4.081  0.00  0.00     0.210 HD
ENDBRANCH   9  16
BRANCH  10  18
HETATM   18  N   UNK N   1      29.732  16.955   7.448  0.00  0.00    -0.349 N 
HETATM   19  C   UNK N   1      28.816  17.824   7.930  0.00  0.00     0.214 C 
HETATM   20  C   UNK N   1      28.071  17.481   9.174  0.00  0.00     0.117 C 
HETATM   21  O   UNK N   1      28.600  18.884   7.365  0.00  0.00    -0.274 OA
HETATM   22  H   UNK N   1      29.861  16.104   7.925  0.00  0.00     0.163 HD
ENDBRANCH  10  18
ENDBRANCH   4   5
ENDBRANCH   2   4
BRANCH   2  23
HETATM   23  O   UNK N   1      34.975  16.539   7.447  0.00  0.00    -0.307 OA
HETATM   24  H   UNK N   1      35.403  17.370   7.189  0.00  0.00     0.222 HD
ENDBRANCH   2  23
ENDBRANCH   1   2
BRANCH   1  25
HETATM   25  P   UNK N   1      35.483  15.947  10.440  0.00  0.00     0.401 P 
HETATM   26  O   UNK N   1      36.502  15.226   9.514  0.00  0.00    -0.631 OA
BRANCH  25  27
HETATM   27  O   UNK N   1      35.749  17.650  10.241  0.00  0.00    -0.307 OA
HETATM   28  H   UNK N   1      35.701  18.604  10.077  0.00  0.00     0.222 HD
ENDBRANCH  25  27
BRANCH  25  29
HETATM   29  O   UNK N   1      35.756  15.486  12.097  0.00  0.00    -0.294 OA
BRANCH  29  30
HETATM   30  C   UNK N   1      35.298  14.181  12.263  0.00  0.00     0.215 C 
BRANCH  30  31
HETATM   31  C   UNK N   1      35.623  13.717  13.675  0.00  0.00     0.180 C 
HETATM   32  O   UNK N   1      34.474  13.081  14.209  0.00  0.00    -0.353 OA
HETATM   33  C   UNK N   1      34.880  11.823  14.686  0.00  0.00     0.263 C 
HETATM   34  C   UNK N   1      36.083  11.431  13.849  0.00  0.00     0.198 C 
HETATM   35  C   UNK N   1      36.799  12.731  13.745  0.00  0.00     0.182 C 
BRANCH  33  36
HETATM   36  N   UNK N   1      34.988  11.925  16.156  0.00  0.00    -0.280 N 
HETATM   37  C   UNK N   1      34.974  13.199  16.638  0.00  0.00     0.104 A 
HETATM   38  C   UNK N   1      35.153  13.466  17.989  0.00  0.00     0.092 A 
HETATM   39  C   UNK N   1      35.363  12.404  18.854  0.00  0.00     0.250 A 
HETATM   40  O   UNK N   1      35.546  12.611  20.039  0.00  0.00    -0.268 OA
HETATM   41  N   UNK N   1      35.375  11.127  18.373  0.00  0.00    -0.275 N 
HETATM   42  C   UNK N   1      35.191  10.870  17.040  0.00  0.00     0.331 A 
HETATM   43  H   UNK N   1      35.517  10.376  18.995  0.00  0.00     0.173 HD
HETATM   44  O   UNK N   1      35.244   9.719  16.656  0.00  0.00    -0.246 OA
ENDBRANCH  33  36
BRANCH  34  45
HETATM   45  O   UNK N   1      36.846  10.392  14.382  0.00  0.00    -0.388 OA
HETATM   46  H   UNK N   1      36.537   9.653  14.931  0.00  0.00     0.210 HD
ENDBRANCH  34  45
BRANCH  35  47
HETATM   47  O   UNK N   1      37.642  12.768  12.630  0.00  0.00    -0.390 OA
HETATM   48  H   UNK N   1      37.492  12.226  11.839  0.00  0.00     0.210 HD
ENDBRANCH  35  47
ENDBRANCH  30  31
ENDBRANCH  29  30
ENDBRANCH  25  29
ENDBRANCH   1  25
TORSDOF 17
ENDMDL
MODEL 6
REMARK VINA RESULT:      -7.0      2.457     10.663
REMARK  17 active torsions:
REMARK  status: ('A' for Active; 'I' for Inactive)
REMARK       I    between atoms: C_2  and  N_4 
REMARK    1  A    between atoms: C_5  and  N_4 
REMARK    2  A    between atoms: C_6  and  O_7 
REMARK    3  A    between atoms: C_8  and  O_9 
REMARK    4  A    between atoms: C_10  and  C_11 
REMARK    5  A    between atoms: C_11  and  O_12 
REMARK    6  A    between atoms: C_14  and  O_15 
REMARK    7  A    between atoms: P_16  and  O_15 
REMARK    8  A    between atoms: P_16  and  O_17 
REMARK    9  A    between atoms: P_16  and  O_19 
REMARK   10  A    between atoms: P_20  and  O_19 
REMARK   11  A    between atoms: P_20  and  O_21 
REMARK   12  A    between atoms: P_20  and  O_23 
REMARK   13  A    between atoms: O_23  and  C_24 
REMARK   14  A    between atoms: C_25  and  C_24 
REMARK   15  A    between atoms: C_27  and  N_32 
REMARK   16  A    between atoms: C_28  and  O_29 
REMARK   17  A    between atoms: C_30  and  O_31 
ROOT
HETATM    1  O   UNK N   1      34.611  14.577   8.984  0.00  0.00    -0.195 OA
ENDROOT
BRANCH   1   2
HETATM    2  P   UNK N   1      32.899  14.849   8.868  0.00  0.00     0.404 P 
HETATM    3  O   UNK N   1      32.290  13.515   8.374  0.00  0.00    -0.631 OA
BRANCH   2   4
HETATM    4  O   UNK N   1      32.532  16.165   7.768  0.00  0.00    -0.263 OA
BRANCH   4   5
HETATM    5  C   UNK N   1      31.185  16.141   7.367  0.00  0.00     0.297 C 
HETATM    6  O   UNK N   1      30.234  16.485   8.350  0.00  0.00    -0.348 OA
HETATM    7  C   UNK N   1      29.866  17.825   8.130  0.00  0.00     0.179 C 
HETATM    8  C   UNK N   1      29.079  17.958   6.824  0.00  0.00     0.180 C 
HETATM    9  C   UNK N   1      30.049  17.635   5.683  0.00  0.00     0.177 C 
HETATM   10  C   UNK N   1      30.804  16.314   5.881  0.00  0.00     0.171 C 
BRANCH   7  11
HETATM   11  C   UNK N   1      29.127  18.387   9.329  0.00  0.00     0.198 C 
BRANCH  11  12
HETATM   12  O   UNK N   1      27.839  18.760   8.943  0.00  0.00    -0.398 OA
HETATM   13  H   UNK N   1      27.293  19.308   9.527  0.00  0.00     0.209 HD
ENDBRANCH  11  12
ENDBRANCH   7  11
BRANCH   8  14
HETATM   14  O   UNK N   1      27.987  17.085   6.819  0.00  0.00    -0.390 OA
HETATM   15  H   UNK N   1      27.687  16.278   6.373  0.00  0.00     0.210 HD
ENDBRANCH   8  14
BRANCH   9  16
HETATM   16  O   UNK N   1      29.414  17.670   4.442  0.00  0.00    -0.391 OA
HETATM   17  H   UNK N   1      29.846  17.357   3.632  0.00  0.00     0.210 HD
ENDBRANCH   9  16
BRANCH  10  18
HETATM   18  N   UNK N   1      32.011  16.338   5.083  0.00  0.00    -0.349 N 
HETATM   19  C   UNK N   1      32.094  15.830   3.834  0.00  0.00     0.214 C 
HETATM   20  C   UNK N   1      33.398  15.874   3.115  0.00  0.00     0.117 C 
HETATM   21  O   UNK N   1      31.120  15.330   3.295  0.00  0.00    -0.274 OA
HETATM   22  H   UNK N   1      32.816  16.748   5.472  0.00  0.00     0.163 HD
ENDBRANCH  10  18
ENDBRANCH   4   5
ENDBRANCH   2   4
BRANCH   2  23
HETATM   23  O   UNK N   1      32.148  15.124  10.409  0.00  0.00    -0.307 OA
HETATM   24  H   UNK N   1      31.431  15.756  10.571  0.00  0.00     0.222 HD
ENDBRANCH   2  23
ENDBRANCH   1   2
BRANCH   1  25
HETATM   25  P   UNK N   1      35.141  15.566  10.302  0.00  0.00     0.401 P 
HETATM   26  O   UNK N   1      36.684  15.704  10.181  0.00  0.00    -0.631 OA
BRANCH  25  27
HETATM   27  O   UNK N   1      34.490  17.172  10.205  0.00  0.00    -0.307 OA
HETATM   28  H   UNK N   1      33.970  17.977  10.056  0.00  0.00     0.222 HD
ENDBRANCH  25  27
BRANCH  25  29
HETATM   29  O   UNK N   1      34.727  14.842  11.830  0.00  0.00    -0.294 OA
BRANCH  29  30
HETATM   30  C   UNK N   1      35.748  15.128  12.734  0.00  0.00     0.215 C 
BRANCH  30  31
HETATM   31  C   UNK N   1      36.009  13.899  13.593  0.00  0.00     0.180 C 
HETATM   32  O   UNK N   1      34.762  13.303  13.903  0.00  0.00    -0.353 OA
HETATM   33  C   UNK N   1      34.854  11.944  13.552  0.00  0.00     0.263 C 
HETATM   34  C   UNK N   1      35.875  11.875  12.433  0.00  0.00     0.198 C 
HETATM   35  C   UNK N   1      36.895  12.847  12.911  0.00  0.00     0.182 C 
BRANCH  33  36
HETATM   36  N   UNK N   1      35.052  11.180  14.800  0.00  0.00    -0.280 N 
HETATM   37  C   UNK N   1      35.253  11.948  15.908  0.00  0.00     0.104 A 
HETATM   38  C   UNK N   1      35.541  11.379  17.143  0.00  0.00     0.092 A 
HETATM   39  C   UNK N   1      35.636  10.000  17.233  0.00  0.00     0.250 A 
HETATM   40  O   UNK N   1      35.909   9.477  18.297  0.00  0.00    -0.268 OA
HETATM   41  N   UNK N   1      35.433   9.230  16.125  0.00  0.00    -0.275 N 
HETATM   42  C   UNK N   1      35.143   9.796  14.912  0.00  0.00     0.331 A 
HETATM   43  H   UNK N   1      35.495   8.249  16.198  0.00  0.00     0.173 HD
HETATM   44  O   UNK N   1      35.004   9.070  13.948  0.00  0.00    -0.246 OA
ENDBRANCH  33  36
BRANCH  34  45
HETATM   45  O   UNK N   1      36.371  10.595  12.180  0.00  0.00    -0.388 OA
HETATM   46  H   UNK N   1      37.109  10.351  11.598  0.00  0.00     0.210 HD
ENDBRANCH  34  45
BRANCH  35  47
HETATM   47  O   UNK N   1      37.666  13.346  11.857  0.00  0.00    -0.390 OA
HETATM   48  H   UNK N   1      38.040  14.241  11.857  0.00  0.00     0.210 HD
ENDBRANCH  35  47
ENDBRANCH  30  31
ENDBRANCH  29  30
ENDBRANCH  25  29
ENDBRANCH   1  25
TORSDOF 17
ENDMDL
MODEL 7
REMARK VINA RESULT:      -6.9      5.487      9.010
REMARK  17 active torsions:
REMARK  status: ('A' for Active; 'I' for Inactive)
REMARK       I    between atoms: C_2  and  N_4 
REMARK    1  A    between atoms: C_5  and  N_4 
REMARK    2  A    between atoms: C_6  and  O_7 
REMARK    3  A    between atoms: C_8  and  O_9 
REMARK    4  A    between atoms: C_10  and  C_11 
REMARK    5  A    between atoms: C_11  and  O_12 
REMARK    6  A    between atoms: C_14  and  O_15 
REMARK    7  A    between atoms: P_16  and  O_15 
REMARK    8  A    between atoms: P_16  and  O_17 
REMARK    9  A    between atoms: P_16  and  O_19 
REMARK   10  A    between atoms: P_20  and  O_19 
REMARK   11  A    between atoms: P_20  and  O_21 
REMARK   12  A    between atoms: P_20  and  O_23 
REMARK   13  A    between atoms: O_23  and  C_24 
REMARK   14  A    between atoms: C_25  and  C_24 
REMARK   15  A    between atoms: C_27  and  N_32 
REMARK   16  A    between atoms: C_28  and  O_29 
REMARK   17  A    between atoms: C_30  and  O_31 
ROOT
HETATM    1  O   UNK N   1      28.842  19.529   7.628  0.00  0.00    -0.195 OA
ENDROOT
BRANCH   1   2
HETATM    2  P   UNK N   1      28.987  18.289   8.837  0.00  0.00     0.404 P 
HETATM    3  O   UNK N   1      29.677  18.959  10.050  0.00  0.00    -0.631 OA
BRANCH   2   4
HETATM    4  O   UNK N   1      29.916  16.924   8.246  0.00  0.00    -0.263 OA
BRANCH   4   5
HETATM    5  C   UNK N   1      30.965  17.338   7.407  0.00  0.00     0.297 C 
HETATM    6  O   UNK N   1      32.090  17.900   8.046  0.00  0.00    -0.348 OA
HETATM    7  C   UNK N   1      33.074  16.898   8.125  0.00  0.00     0.179 C 
HETATM    8  C   UNK N   1      33.603  16.553   6.730  0.00  0.00     0.180 C 
HETATM    9  C   UNK N   1      32.449  15.897   5.965  0.00  0.00     0.177 C 
HETATM   10  C   UNK N   1      31.149  16.710   6.009  0.00  0.00     0.171 C 
BRANCH   7  11
HETATM   11  C   UNK N   1      34.171  17.292   9.096  0.00  0.00     0.198 C 
BRANCH  11  12
HETATM   12  O   UNK N   1      34.760  18.482   8.665  0.00  0.00    -0.398 OA
HETATM   13  H   UNK N   1      34.997  19.171   9.306  0.00  0.00     0.209 HD
ENDBRANCH  11  12
ENDBRANCH   7  11
BRANCH   8  14
HETATM   14  O   UNK N   1      34.049  17.705   6.077  0.00  0.00    -0.390 OA
HETATM   15  H   UNK N   1      34.628  17.962   5.342  0.00  0.00     0.210 HD
ENDBRANCH   8  14
BRANCH   9  16
HETATM   16  O   UNK N   1      32.808  15.594   4.653  0.00  0.00    -0.391 OA
HETATM   17  H   UNK N   1      32.194  15.706   3.910  0.00  0.00     0.210 HD
ENDBRANCH   9  16
BRANCH  10  18
HETATM   18  N   UNK N   1      30.034  15.829   5.736  0.00  0.00    -0.349 N 
HETATM   19  C   UNK N   1      29.531  15.616   4.500  0.00  0.00     0.214 C 
HETATM   20  C   UNK N   1      28.356  14.716   4.337  0.00  0.00     0.117 C 
HETATM   21  O   UNK N   1      30.022  16.158   3.523  0.00  0.00    -0.274 OA
HETATM   22  H   UNK N   1      29.618  15.358   6.494  0.00  0.00     0.163 HD
ENDBRANCH  10  18
ENDBRANCH   4   5
ENDBRANCH   2   4
BRANCH   2  23
HETATM   23  O   UNK N   1      27.454  17.755   9.450  0.00  0.00    -0.307 OA
HETATM   24  H   UNK N   1      26.593  18.104   9.171  0.00  0.00     0.222 HD
ENDBRANCH   2  23
ENDBRANCH   1   2
BRANCH   1  25
HETATM   25  P   UNK N   1      27.818  18.856   6.406  0.00  0.00     0.401 P 
HETATM   26  O   UNK N   1      28.659  18.765   5.102  0.00  0.00    -0.631 OA
BRANCH  25  27
HETATM   27  O   UNK N   1      27.328  17.237   6.795  0.00  0.00    -0.307 OA
HETATM   28  H   UNK N   1      27.255  16.292   7.000  0.00  0.00     0.222 HD
ENDBRANCH  25  27
BRANCH  25  29
HETATM   29  O   UNK N   1      26.419  19.859   6.143  0.00  0.00    -0.294 OA
BRANCH  29  30
HETATM   30  C   UNK N   1      26.400  20.227   4.799  0.00  0.00     0.215 C 
BRANCH  30  31
HETATM   31  C   UNK N   1      25.457  19.301   4.044  0.00  0.00     0.180 C 
HETATM   32  O   UNK N   1      24.363  18.996   4.892  0.00  0.00    -0.353 OA
HETATM   33  C   UNK N   1      23.189  19.276   4.171  0.00  0.00     0.263 C 
HETATM   34  C   UNK N   1      23.562  20.362   3.180  0.00  0.00     0.198 C 
HETATM   35  C   UNK N   1      24.909  19.905   2.744  0.00  0.00     0.182 C 
BRANCH  33  36
HETATM   36  N   UNK N   1      22.642  17.986   3.704  0.00  0.00    -0.280 N 
HETATM   37  C   UNK N   1      23.513  16.941   3.782  0.00  0.00     0.104 A 
HETATM   38  C   UNK N   1      23.178  15.681   3.301  0.00  0.00     0.092 A 
HETATM   39  C   UNK N   1      21.934  15.501   2.719  0.00  0.00     0.250 A 
HETATM   40  O   UNK N   1      21.624  14.413   2.269  0.00  0.00    -0.268 OA
HETATM   41  N   UNK N   1      21.060  16.547   2.642  0.00  0.00    -0.275 N 
HETATM   42  C   UNK N   1      21.394  17.785   3.124  0.00  0.00     0.331 A 
HETATM   43  H   UNK N   1      20.174  16.409   2.234  0.00  0.00     0.173 HD
HETATM   44  O   UNK N   1      20.595  18.691   3.002  0.00  0.00    -0.246 OA
ENDBRANCH  33  36
BRANCH  34  45
HETATM   45  O   UNK N   1      22.647  20.538   2.142  0.00  0.00    -0.388 OA
HETATM   46  H   UNK N   1      21.817  20.055   1.997  0.00  0.00     0.210 HD
ENDBRANCH  34  45
BRANCH  35  47
HETATM   47  O   UNK N   1      25.674  20.961   2.238  0.00  0.00    -0.390 OA
HETATM   48  H   UNK N   1      26.637  20.909   2.129  0.00  0.00     0.210 HD
ENDBRANCH  35  47
ENDBRANCH  30  31
ENDBRANCH  29  30
ENDBRANCH  25  29
ENDBRANCH   1  25
TORSDOF 17
ENDMDL
MODEL 8
REMARK VINA RESULT:      -6.9      2.891      9.973
REMARK  17 active torsions:
REMARK  status: ('A' for Active; 'I' for Inactive)
REMARK       I    between atoms: C_2  and  N_4 
REMARK    1  A    between atoms: C_5  and  N_4 
REMARK    2  A    between atoms: C_6  and  O_7 
REMARK    3  A    between atoms: C_8  and  O_9 
REMARK    4  A    between atoms: C_10  and  C_11 
REMARK    5  A    between atoms: C_11  and  O_12 
REMARK    6  A    between atoms: C_14  and  O_15 
REMARK    7  A    between atoms: P_16  and  O_15 
REMARK    8  A    between atoms: P_16  and  O_17 
REMARK    9  A    between atoms: P_16  and  O_19 
REMARK   10  A    between atoms: P_20  and  O_19 
REMARK   11  A    between atoms: P_20  and  O_21 
REMARK   12  A    between atoms: P_20  and  O_23 
REMARK   13  A    between atoms: O_23  and  C_24 
REMARK   14  A    between atoms: C_25  and  C_24 
REMARK   15  A    between atoms: C_27  and  N_32 
REMARK   16  A    between atoms: C_28  and  O_29 
REMARK   17  A    between atoms: C_30  and  O_31 
ROOT
HETATM    1  O   UNK N   1      30.819  15.606   3.138  0.00  0.00    -0.195 OA
ENDROOT
BRANCH   1   2
HETATM    2  P   UNK N   1      29.634  15.714   4.404  0.00  0.00     0.404 P 
HETATM    3  O   UNK N   1      28.349  15.062   3.839  0.00  0.00    -0.631 OA
BRANCH   2   4
HETATM    4  O   UNK N   1      29.350  17.380   4.876  0.00  0.00    -0.263 OA
BRANCH   4   5
HETATM    5  C   UNK N   1      28.528  17.460   6.014  0.00  0.00     0.297 C 
HETATM    6  O   UNK N   1      29.050  16.909   7.202  0.00  0.00    -0.348 OA
HETATM    7  C   UNK N   1      29.553  17.973   7.975  0.00  0.00     0.179 C 
HETATM    8  C   UNK N   1      28.409  18.859   8.476  0.00  0.00     0.180 C 
HETATM    9  C   UNK N   1      27.796  19.535   7.245  0.00  0.00     0.177 C 
HETATM   10  C   UNK N   1      27.441  18.551   6.123  0.00  0.00     0.171 C 
BRANCH   7  11
HETATM   11  C   UNK N   1      30.439  17.458   9.092  0.00  0.00     0.198 C 
BRANCH  11  12
HETATM   12  O   UNK N   1      29.678  17.309  10.253  0.00  0.00    -0.398 OA
HETATM   13  H   UNK N   1      30.081  17.453  11.123  0.00  0.00     0.209 HD
ENDBRANCH  11  12
ENDBRANCH   7  11
BRANCH   8  14
HETATM   14  O   UNK N   1      27.458  18.093   9.156  0.00  0.00    -0.390 OA
HETATM   15  H   UNK N   1      26.742  17.466   8.969  0.00  0.00     0.210 HD
ENDBRANCH   8  14
BRANCH   9  16
HETATM   16  O   UNK N   1      26.699  20.326   7.585  0.00  0.00    -0.391 OA
HETATM   17  H   UNK N   1      26.463  21.124   7.087  0.00  0.00     0.210 HD
ENDBRANCH   9  16
BRANCH  10  18
HETATM   18  N   UNK N   1      27.368  19.273   4.871  0.00  0.00    -0.349 N 
HETATM   19  C   UNK N   1      26.219  19.758   4.351  0.00  0.00     0.214 C 
HETATM   20  C   UNK N   1      26.253  20.454   3.035  0.00  0.00     0.117 C 
HETATM   21  O   UNK N   1      25.160  19.625   4.942  0.00  0.00    -0.274 OA
HETATM   22  H   UNK N   1      28.203  19.418   4.369  0.00  0.00     0.163 HD
ENDBRANCH  10  18
ENDBRANCH   4   5
ENDBRANCH   2   4
BRANCH   2  23
HETATM   23  O   UNK N   1      30.033  14.753   5.794  0.00  0.00    -0.307 OA
HETATM   24  H   UNK N   1      29.796  14.975   6.707  0.00  0.00     0.222 HD
ENDBRANCH   2  23
ENDBRANCH   1   2
BRANCH   1  25
HETATM   25  P   UNK N   1      32.188  16.491   3.719  0.00  0.00     0.401 P 
HETATM   26  O   UNK N   1      33.338  16.280   2.696  0.00  0.00    -0.631 OA
BRANCH  25  27
HETATM   27  O   UNK N   1      31.876  18.197   3.773  0.00  0.00    -0.307 OA
HETATM   28  H   UNK N   1      31.559  19.098   3.939  0.00  0.00     0.222 HD
ENDBRANCH  25  27
BRANCH  25  29
HETATM   29  O   UNK N   1      32.678  15.920   5.290  0.00  0.00    -0.294 OA
BRANCH  29  30
HETATM   30  C   UNK N   1      33.820  15.140   5.128  0.00  0.00     0.215 C 
BRANCH  30  31
HETATM   31  C   UNK N   1      34.280  14.644   6.492  0.00  0.00     0.180 C 
HETATM   32  O   UNK N   1      34.615  15.772   7.282  0.00  0.00    -0.353 OA
HETATM   33  C   UNK N   1      33.914  15.650   8.495  0.00  0.00     0.263 C 
HETATM   34  C   UNK N   1      32.670  14.843   8.174  0.00  0.00     0.198 C 
HETATM   35  C   UNK N   1      33.220  13.824   7.240  0.00  0.00     0.182 C 
BRANCH  33  36
HETATM   36  N   UNK N   1      34.875  15.180   9.513  0.00  0.00    -0.280 N 
HETATM   37  C   UNK N   1      34.934  13.825   9.653  0.00  0.00     0.104 A 
HETATM   38  C   UNK N   1      35.725  13.231  10.628  0.00  0.00     0.092 A 
HETATM   39  C   UNK N   1      36.455  14.045  11.479  0.00  0.00     0.250 A 
HETATM   40  O   UNK N   1      37.139  13.551  12.356  0.00  0.00    -0.268 OA
HETATM   41  N   UNK N   1      36.399  15.401  11.338  0.00  0.00    -0.275 N 
HETATM   42  C   UNK N   1      35.622  15.981  10.370  0.00  0.00     0.331 A 
HETATM   43  H   UNK N   1      36.927  15.973  11.942  0.00  0.00     0.173 HD
HETATM   44  O   UNK N   1      35.579  17.193  10.307  0.00  0.00    -0.246 OA
ENDBRANCH  33  36
BRANCH  34  45
HETATM   45  O   UNK N   1      32.020  14.314   9.290  0.00  0.00    -0.388 OA
HETATM   46  H   UNK N   1      32.342  13.619   9.887  0.00  0.00     0.210 HD
ENDBRANCH  34  45
BRANCH  35  47
HETATM   47  O   UNK N   1      32.225  13.290   6.415  0.00  0.00    -0.390 OA
HETATM   48  H   UNK N   1      32.411  12.643   5.717  0.00  0.00     0.210 HD
ENDBRANCH  35  47
ENDBRANCH  30  31
ENDBRANCH  29  30
ENDBRANCH  25  29
ENDBRANCH   1  25
TORSDOF 17
ENDMDL
MODEL 9
REMARK VINA RESULT:      -6.9      5.910      9.886
REMARK  17 active torsions:
REMARK  status: ('A' for Active; 'I' for Inactive)
REMARK       I    between atoms: C_2  and  N_4 
REMARK    1  A    between atoms: C_5  and  N_4 
REMARK    2  A    between atoms: C_6  and  O_7 
REMARK    3  A    between atoms: C_8  and  O_9 
REMARK    4  A    between atoms: C_10  and  C_11 
REMARK    5  A    between atoms: C_11  and  O_12 
REMARK    6  A    between atoms: C_14  and  O_15 
REMARK    7  A    between atoms: P_16  and  O_15 
REMARK    8  A    between atoms: P_16  and  O_17 
REMARK    9  A    between atoms: P_16  and  O_19 
REMARK   10  A    between atoms: P_20  and  O_19 
REMARK   11  A    between atoms: P_20  and  O_21 
REMARK   12  A    between atoms: P_20  and  O_23 
REMARK   13  A    between atoms: O_23  and  C_24 
REMARK   14  A    between atoms: C_25  and  C_24 
REMARK   15  A    between atoms: C_27  and  N_32 
REMARK   16  A    between atoms: C_28  and  O_29 
REMARK   17  A    between atoms: C_30  and  O_31 
ROOT
HETATM    1  O   UNK N   1      27.040  16.115   5.391  0.00  0.00    -0.195 OA
ENDROOT
BRANCH   1   2
HETATM    2  P   UNK N   1      28.458  16.561   4.492  0.00  0.00     0.404 P 
HETATM    3  O   UNK N   1      28.387  15.763   3.167  0.00  0.00    -0.631 OA
BRANCH   2   4
HETATM    4  O   UNK N   1      29.924  16.194   5.381  0.00  0.00    -0.263 OA
BRANCH   4   5
HETATM    5  C   UNK N   1      30.252  17.223   6.281  0.00  0.00     0.297 C 
HETATM    6  O   UNK N   1      29.178  17.790   6.999  0.00  0.00    -0.348 OA
HETATM    7  C   UNK N   1      29.172  17.207   8.280  0.00  0.00     0.179 C 
HETATM    8  C   UNK N   1      30.399  17.655   9.079  0.00  0.00     0.180 C 
HETATM    9  C   UNK N   1      31.626  17.051   8.388  0.00  0.00     0.177 C 
HETATM   10  C   UNK N   1      31.672  17.322   6.879  0.00  0.00     0.171 C 
BRANCH   7  11
HETATM   11  C   UNK N   1      27.864  17.485   8.994  0.00  0.00     0.198 C 
BRANCH  11  12
HETATM   12  O   UNK N   1      27.533  18.833   8.842  0.00  0.00    -0.398 OA
HETATM   13  H   UNK N   1      26.604  19.109   8.823  0.00  0.00     0.209 HD
ENDBRANCH  11  12
ENDBRANCH   7  11
BRANCH   8  14
HETATM   14  O   UNK N   1      30.478  19.050   9.115  0.00  0.00    -0.390 OA
HETATM   15  H   UNK N   1      30.485  19.807   8.509  0.00  0.00     0.210 HD
ENDBRANCH   8  14
BRANCH   9  16
HETATM   16  O   UNK N   1      32.812  17.447   9.006  0.00  0.00    -0.391 OA
HETATM   17  H   UNK N   1      33.208  18.319   8.852  0.00  0.00     0.210 HD
ENDBRANCH   9  16
BRANCH  10  18
HETATM   18  N   UNK N   1      32.520  16.334   6.249  0.00  0.00    -0.349 N 
HETATM   19  C   UNK N   1      33.819  16.547   5.942  0.00  0.00     0.214 C 
HETATM   20  C   UNK N   1      34.591  15.472   5.259  0.00  0.00     0.117 C 
HETATM   21  O   UNK N   1      34.359  17.608   6.209  0.00  0.00    -0.274 OA
HETATM   22  H   UNK N   1      32.130  15.457   6.032  0.00  0.00     0.163 HD
ENDBRANCH  10  18
ENDBRANCH   4   5
ENDBRANCH   2   4
BRANCH   2  23
HETATM   23  O   UNK N   1      28.454  18.225   3.996  0.00  0.00    -0.307 OA
HETATM   24  H   UNK N   1      27.661  18.774   3.905  0.00  0.00     0.222 HD
ENDBRANCH   2  23
ENDBRANCH   1   2
BRANCH   1  25
HETATM   25  P   UNK N   1      25.766  17.091   4.745  0.00  0.00     0.401 P 
HETATM   26  O   UNK N   1      26.017  18.549   5.223  0.00  0.00    -0.631 OA
BRANCH  25  27
HETATM   27  O   UNK N   1      25.796  17.125   3.011  0.00  0.00    -0.307 OA
HETATM   28  H   UNK N   1      25.791  16.941   2.059  0.00  0.00     0.222 HD
ENDBRANCH  25  27
BRANCH  25  29
HETATM   29  O   UNK N   1      24.212  16.541   5.308  0.00  0.00    -0.294 OA
BRANCH  29  30
HETATM   30  C   UNK N   1      24.028  15.236   4.855  0.00  0.00     0.215 C 
BRANCH  30  31
HETATM   31  C   UNK N   1      23.599  14.361   6.025  0.00  0.00     0.180 C 
HETATM   32  O   UNK N   1      23.172  15.208   7.078  0.00  0.00    -0.353 OA
HETATM   33  C   UNK N   1      21.895  14.769   7.470  0.00  0.00     0.263 C 
HETATM   34  C   UNK N   1      21.283  14.123   6.242  0.00  0.00     0.198 C 
HETATM   35  C   UNK N   1      22.455  13.395   5.684  0.00  0.00     0.182 C 
BRANCH  33  36
HETATM   36  N   UNK N   1      22.060  14.001   8.721  0.00  0.00    -0.280 N 
HETATM   37  C   UNK N   1      23.329  13.563   8.953  0.00  0.00     0.104 A 
HETATM   38  C   UNK N   1      23.630  12.754  10.042  0.00  0.00     0.092 A 
HETATM   39  C   UNK N   1      22.604  12.380  10.895  0.00  0.00     0.250 A 
HETATM   40  O   UNK N   1      22.836  11.653  11.843  0.00  0.00    -0.268 OA
HETATM   41  N   UNK N   1      21.333  12.819  10.665  0.00  0.00    -0.275 N 
HETATM   42  C   UNK N   1      21.044  13.622   9.593  0.00  0.00     0.331 A 
HETATM   43  H   UNK N   1      20.610  12.556  11.280  0.00  0.00     0.173 HD
HETATM   44  O   UNK N   1      19.892  13.960   9.412  0.00  0.00    -0.246 OA
ENDBRANCH  33  36
BRANCH  34  45
HETATM   45  O   UNK N   1      20.173  13.320   6.502  0.00  0.00    -0.388 OA
HETATM   46  H   UNK N   1      19.236  13.569   6.446  0.00  0.00     0.210 HD
ENDBRANCH  34  45
BRANCH  35  47
HETATM   47  O   UNK N   1      22.305  13.146   4.317  0.00  0.00    -0.390 OA
HETATM   48  H   UNK N   1      22.982  12.697   3.786  0.00  0.00     0.210 HD
ENDBRANCH  35  47
ENDBRANCH  30  31
ENDBRANCH  29  30
ENDBRANCH  25  29
ENDBRANCH   1  25
TORSDOF 17
ENDMDL
