MODEL 1
REMARK VINA RESULT:      -6.3      0.000      0.000
REMARK  11 active torsions:
REMARK  status: ('A' for Active; 'I' for Inactive)
REMARK    1  A    between atoms: C_7  and  C_9 
REMARK       I    between atoms: C_9  and  N_11 
REMARK    2  A    between atoms: N_11  and  C_12 
REMARK    3  A    between atoms: C_12  and  C_13 
REMARK    4  A    between atoms: C_13  and  O_14 
REMARK    5  A    between atoms: O_14  and  C_15 
REMARK    6  A    between atoms: C_15  and  C_16 
REMARK    7  A    between atoms: C_16  and  O_17 
REMARK    8  A    between atoms: O_17  and  C_18 
REMARK    9  A    between atoms: C_18  and  C_19 
REMARK   10  A    between atoms: C_19  and  N_20 
REMARK       I    between atoms: N_20  and  C_21 
REMARK   11  A    between atoms: C_21  and  C_23 
ROOT
HETATM    1  C   UNK N   1      31.318  20.654  -7.076  0.00  0.00     0.193 C 
ENDROOT
BRANCH   1   2
HETATM    2  O   UNK N   1      32.119  21.536  -6.352  0.00  0.00    -0.387 OA
BRANCH   2   3
HETATM    3  C   UNK N   1      32.246  20.937  -5.099  0.00  0.00     0.187 C 
BRANCH   3   4
HETATM    4  C   UNK N   1      32.707  21.984  -4.106  0.00  0.00     0.149 C 
BRANCH   4   5
HETATM    5  N   UNK N   1      31.880  21.988  -2.924  0.00  0.00    -0.354 N 
HETATM    6  C   UNK N   1      30.939  22.929  -2.652  0.00  0.00     0.268 C 
HETATM    7  O   UNK N   1      30.402  22.918  -1.554  0.00  0.00    -0.266 OA
HETATM    8  H   UNK N   1      32.004  21.261  -2.272  0.00  0.00     0.162 HD
BRANCH   6   9
HETATM    9  C   UNK N   1      30.551  23.984  -3.622  0.00  0.00     0.102 A 
HETATM   10  N   UNK N   1      30.205  23.753  -4.913  0.00  0.00    -0.351 N 
HETATM   11  C   UNK N   1      29.889  24.951  -5.419  0.00  0.00     0.043 A 
HETATM   12  H   UNK N   1      30.190  22.886  -5.379  0.00  0.00     0.166 HD
HETATM   13  C   UNK N   1      30.045  25.934  -4.484  0.00  0.00    -0.005 A 
HETATM   14  C   UNK N   1      29.452  25.224  -6.713  0.00  0.00     0.032 A 
HETATM   15  C   UNK N   1      29.799  27.270  -4.776  0.00  0.00     0.037 A 
HETATM   16  C   UNK N   1      30.455  25.341  -3.313  0.00  0.00     0.049 A 
HETATM   17  C   UNK N   1      29.369  27.587  -6.079  0.00  0.00     0.035 A 
HETATM   18 Cl   UNK N   1      29.067  29.255  -6.511  0.00  0.00    -0.084 Cl
HETATM   19  C   UNK N   1      29.188  26.566  -7.041  0.00  0.00     0.026 A 
ENDBRANCH   6   9
ENDBRANCH   4   5
ENDBRANCH   3   4
ENDBRANCH   2   3
ENDBRANCH   1   2
BRANCH   1  20
HETATM   20  C   UNK N   1      29.943  20.542  -6.426  0.00  0.00     0.193 C 
BRANCH  20  21
HETATM   21  O   UNK N   1      29.167  21.654  -6.752  0.00  0.00    -0.387 OA
BRANCH  21  22
HETATM   22  C   UNK N   1      28.870  21.481  -8.104  0.00  0.00     0.187 C 
BRANCH  22  23
HETATM   23  C   UNK N   1      27.959  22.606  -8.548  0.00  0.00     0.149 C 
BRANCH  23  24
HETATM   24  N   UNK N   1      26.585  22.172  -8.621  0.00  0.00    -0.354 N 
HETATM   25  C   UNK N   1      25.564  22.749  -7.937  0.00  0.00     0.268 C 
HETATM   26  O   UNK N   1      24.420  22.396  -8.188  0.00  0.00    -0.266 OA
HETATM   27  H   UNK N   1      26.374  21.407  -9.204  0.00  0.00     0.162 HD
BRANCH  25  28
HETATM   28  C   UNK N   1      25.772  23.807  -6.917  0.00  0.00     0.102 A 
HETATM   29  C   UNK N   1      25.560  25.168  -7.137  0.00  0.00     0.049 A 
HETATM   30  C   UNK N   1      25.846  25.762  -5.930  0.00  0.00    -0.005 A 
HETATM   31  C   UNK N   1      26.185  24.777  -5.048  0.00  0.00     0.043 A 
HETATM   32  C   UNK N   1      25.825  27.102  -5.561  0.00  0.00     0.037 A 
HETATM   33  N   UNK N   1      26.157  23.575  -5.637  0.00  0.00    -0.351 N 
HETATM   34  C   UNK N   1      26.506  25.051  -3.721  0.00  0.00     0.032 A 
HETATM   35  H   UNK N   1      26.369  22.706  -5.226  0.00  0.00     0.166 HD
HETATM   36  C   UNK N   1      26.487  26.397  -3.312  0.00  0.00     0.026 A 
HETATM   37  C   UNK N   1      26.158  27.420  -4.231  0.00  0.00     0.035 A 
HETATM   38 Cl   UNK N   1      26.170  29.091  -3.715  0.00  0.00    -0.084 Cl
ENDBRANCH  25  28
ENDBRANCH  23  24
ENDBRANCH  22  23
ENDBRANCH  21  22
ENDBRANCH  20  21
ENDBRANCH   1  20
TORSDOF 11
ENDMDL
MODEL 2
REMARK VINA RESULT:      -6.2     17.004     20.640
REMARK  11 active torsions:
REMARK  status: ('A' for Active; 'I' for Inactive)
REMARK    1  A    between atoms: C_7  and  C_9 
REMARK       I    between atoms: C_9  and  N_11 
REMARK    2  A    between atoms: N_11  and  C_12 
REMARK    3  A    between atoms: C_12  and  C_13 
REMARK    4  A    between atoms: C_13  and  O_14 
REMARK    5  A    between atoms: O_14  and  C_15 
REMARK    6  A    between atoms: C_15  and  C_16 
REMARK    7  A    between atoms: C_16  and  O_17 
REMARK    8  A    between atoms: O_17  and  C_18 
REMARK    9  A    between atoms: C_18  and  C_19 
REMARK   10  A    between atoms: C_19  and  N_20 
REMARK       I    between atoms: N_20  and  C_21 
REMARK   11  A    between atoms: C_21  and  C_23 
ROOT
HETATM    1  C   UNK N   1      34.299  11.645   9.115  0.00  0.00     0.193 C 
ENDROOT
BRANCH   1   2
HETATM    2  O   UNK N   1      34.304  12.812   9.876  0.00  0.00    -0.387 OA
BRANCH   2   3
HETATM    3  C   UNK N   1      33.913  13.809   8.982  0.00  0.00     0.187 C 
BRANCH   3   4
HETATM    4  C   UNK N   1      33.277  14.939   9.764  0.00  0.00     0.149 C 
BRANCH   4   5
HETATM    5  N   UNK N   1      34.045  16.155   9.650  0.00  0.00    -0.354 N 
HETATM    6  C   UNK N   1      33.648  17.246   8.944  0.00  0.00     0.268 C 
HETATM    7  O   UNK N   1      34.442  18.163   8.792  0.00  0.00    -0.266 OA
HETATM    8  H   UNK N   1      34.912  16.198  10.113  0.00  0.00     0.162 HD
BRANCH   6   9
HETATM    9  C   UNK N   1      32.301  17.364   8.330  0.00  0.00     0.102 A 
HETATM   10  N   UNK N   1      31.206  17.852   8.966  0.00  0.00    -0.351 N 
HETATM   11  C   UNK N   1      30.224  17.825   8.058  0.00  0.00     0.043 A 
HETATM   12  H   UNK N   1      31.148  18.160   9.899  0.00  0.00     0.166 HD
HETATM   13  C   UNK N   1      30.668  17.317   6.871  0.00  0.00    -0.005 A 
HETATM   14  C   UNK N   1      28.909  18.248   8.235  0.00  0.00     0.032 A 
HETATM   15  C   UNK N   1      29.826  17.167   5.776  0.00  0.00     0.037 A 
HETATM   16  C   UNK N   1      32.005  17.025   7.011  0.00  0.00     0.049 A 
HETATM   17  C   UNK N   1      28.485  17.570   5.921  0.00  0.00     0.035 A 
HETATM   18 Cl   UNK N   1      27.373  17.385   4.583  0.00  0.00    -0.084 Cl
HETATM   19  C   UNK N   1      28.031  18.117   7.144  0.00  0.00     0.026 A 
ENDBRANCH   6   9
ENDBRANCH   4   5
ENDBRANCH   3   4
ENDBRANCH   2   3
ENDBRANCH   1   2
BRANCH   1  20
HETATM   20  C   UNK N   1      35.635  10.924   9.252  0.00  0.00     0.193 C 
BRANCH  20  21
HETATM   21  O   UNK N   1      36.328  11.407  10.361  0.00  0.00    -0.387 OA
BRANCH  21  22
HETATM   22  C   UNK N   1      37.379  12.145   9.815  0.00  0.00     0.187 C 
BRANCH  22  23
HETATM   23  C   UNK N   1      37.923  13.075  10.879  0.00  0.00     0.149 C 
BRANCH  23  24
HETATM   24  N   UNK N   1      37.160  14.298  10.948  0.00  0.00    -0.354 N 
HETATM   25  C   UNK N   1      36.266  14.588  11.928  0.00  0.00     0.268 C 
HETATM   26  O   UNK N   1      35.787  15.712  11.968  0.00  0.00    -0.266 OA
HETATM   27  H   UNK N   1      37.295  14.966  10.236  0.00  0.00     0.162 HD
BRANCH  25  28
HETATM   28  C   UNK N   1      35.864  13.608  12.968  0.00  0.00     0.102 A 
HETATM   29  C   UNK N   1      36.417  13.543  14.247  0.00  0.00     0.049 A 
HETATM   30  C   UNK N   1      35.734  12.522  14.867  0.00  0.00    -0.005 A 
HETATM   31  C   UNK N   1      34.812  12.039  13.985  0.00  0.00     0.043 A 
HETATM   32  C   UNK N   1      35.872  11.998  16.147  0.00  0.00     0.037 A 
HETATM   33  N   UNK N   1      34.883  12.683  12.814  0.00  0.00    -0.351 N 
HETATM   34  C   UNK N   1      33.936  11.010  14.322  0.00  0.00     0.032 A 
HETATM   35  H   UNK N   1      34.337  12.520  12.011  0.00  0.00     0.166 HD
HETATM   36  C   UNK N   1      34.043  10.461  15.613  0.00  0.00     0.026 A 
HETATM   37  C   UNK N   1      35.014  10.946  16.519  0.00  0.00     0.035 A 
HETATM   38 Cl   UNK N   1      35.156  10.232  18.109  0.00  0.00    -0.084 Cl
ENDBRANCH  25  28
ENDBRANCH  23  24
ENDBRANCH  22  23
ENDBRANCH  21  22
ENDBRANCH  20  21
ENDBRANCH   1  20
TORSDOF 11
ENDMDL
MODEL 3
REMARK VINA RESULT:      -6.2     17.856     21.211
REMARK  11 active torsions:
REMARK  status: ('A' for Active; 'I' for Inactive)
REMARK    1  A    between atoms: C_7  and  C_9 
REMARK       I    between atoms: C_9  and  N_11 
REMARK    2  A    between atoms: N_11  and  C_12 
REMARK    3  A    between atoms: C_12  and  C_13 
REMARK    4  A    between atoms: C_13  and  O_14 
REMARK    5  A    between atoms: O_14  and  C_15 
REMARK    6  A    between atoms: C_15  and  C_16 
REMARK    7  A    between atoms: C_16  and  O_17 
REMARK    8  A    between atoms: O_17  and  C_18 
REMARK    9  A    between atoms: C_18  and  C_19 
REMARK   10  A    between atoms: C_19  and  N_20 
REMARK       I    between atoms: N_20  and  C_21 
REMARK   11  A    between atoms: C_21  and  C_23 
ROOT
HETATM    1  C   UNK N   1      35.735  12.022  10.603  0.00  0.00     0.193 C 
ENDROOT
BRANCH   1   2
HETATM    2  O   UNK N   1      36.300  12.297  11.848  0.00  0.00    -0.387 OA
BRANCH   2   3
HETATM    3  C   UNK N   1      36.563  13.666  11.812  0.00  0.00     0.187 C 
BRANCH   3   4
HETATM    4  C   UNK N   1      35.795  14.338  12.930  0.00  0.00     0.149 C 
BRANCH   4   5
HETATM    5  N   UNK N   1      36.683  15.010  13.848  0.00  0.00    -0.354 N 
HETATM    6  C   UNK N   1      36.987  14.552  15.091  0.00  0.00     0.268 C 
HETATM    7  O   UNK N   1      37.630  15.275  15.837  0.00  0.00    -0.266 OA
HETATM    8  H   UNK N   1      37.096  15.854  13.555  0.00  0.00     0.162 HD
BRANCH   6   9
HETATM    9  C   UNK N   1      36.552  13.223  15.589  0.00  0.00     0.102 A 
HETATM   10  N   UNK N   1      36.934  12.037  15.050  0.00  0.00    -0.351 N 
HETATM   11  C   UNK N   1      36.362  11.097  15.812  0.00  0.00     0.043 A 
HETATM   12  H   UNK N   1      37.510  11.899  14.264  0.00  0.00     0.166 HD
HETATM   13  C   UNK N   1      35.615  11.662  16.807  0.00  0.00    -0.005 A 
HETATM   14  C   UNK N   1      36.476   9.718  15.666  0.00  0.00     0.032 A 
HETATM   15  C   UNK N   1      34.904  10.890  17.718  0.00  0.00     0.037 A 
HETATM   16  C   UNK N   1      35.731  13.028  16.699  0.00  0.00     0.049 A 
HETATM   17  C   UNK N   1      34.983   9.489  17.593  0.00  0.00     0.035 A 
HETATM   18 Cl   UNK N   1      34.092   8.467  18.697  0.00  0.00    -0.084 Cl
HETATM   19  C   UNK N   1      35.774   8.906  16.576  0.00  0.00     0.026 A 
ENDBRANCH   6   9
ENDBRANCH   4   5
ENDBRANCH   3   4
ENDBRANCH   2   3
ENDBRANCH   1   2
BRANCH   1  20
HETATM   20  C   UNK N   1      36.015  13.166   9.636  0.00  0.00     0.193 C 
BRANCH  20  21
HETATM   21  O   UNK N   1      34.847  13.520   8.962  0.00  0.00    -0.387 OA
BRANCH  21  22
HETATM   22  C   UNK N   1      35.104  14.805   8.481  0.00  0.00     0.187 C 
BRANCH  22  23
HETATM   23  C   UNK N   1      34.492  15.810   9.434  0.00  0.00     0.149 C 
BRANCH  23  24
HETATM   24  N   UNK N   1      35.040  17.129   9.230  0.00  0.00    -0.354 N 
HETATM   25  C   UNK N   1      34.512  18.054   8.388  0.00  0.00     0.268 C 
HETATM   26  O   UNK N   1      34.971  19.188   8.404  0.00  0.00    -0.266 OA
HETATM   27  H   UNK N   1      35.851  17.374   9.733  0.00  0.00     0.162 HD
BRANCH  25  28
HETATM   28  C   UNK N   1      33.387  17.758   7.467  0.00  0.00     0.102 A 
HETATM   29  C   UNK N   1      33.532  17.473   6.109  0.00  0.00     0.049 A 
HETATM   30  C   UNK N   1      32.251  17.239   5.666  0.00  0.00    -0.005 A 
HETATM   31  C   UNK N   1      31.410  17.362   6.733  0.00  0.00     0.043 A 
HETATM   32  C   UNK N   1      31.784  16.926   4.395  0.00  0.00     0.037 A 
HETATM   33  N   UNK N   1      32.085  17.690   7.841  0.00  0.00    -0.351 N 
HETATM   34  C   UNK N   1      30.037  17.157   6.619  0.00  0.00     0.032 A 
HETATM   35  H   UNK N   1      31.713  17.848   8.740  0.00  0.00     0.166 HD
HETATM   36  C   UNK N   1      29.531  16.831   5.348  0.00  0.00     0.026 A 
HETATM   37  C   UNK N   1      30.400  16.725   4.237  0.00  0.00     0.035 A 
HETATM   38 Cl   UNK N   1      29.752  16.351   2.656  0.00  0.00    -0.084 Cl
ENDBRANCH  25  28
ENDBRANCH  23  24
ENDBRANCH  22  23
ENDBRANCH  21  22
ENDBRANCH  20  21
ENDBRANCH   1  20
TORSDOF 11
ENDMDL
MODEL 4
REMARK VINA RESULT:      -6.0     15.442     19.146
REMARK  11 active torsions:
REMARK  status: ('A' for Active; 'I' for Inactive)
REMARK    1  A    between atoms: C_7  and  C_9 
REMARK       I    between atoms: C_9  and  N_11 
REMARK    2  A    between atoms: N_11  and  C_12 
REMARK    3  A    between atoms: C_12  and  C_13 
REMARK    4  A    between atoms: C_13  and  O_14 
REMARK    5  A    between atoms: O_14  and  C_15 
REMARK    6  A    between atoms: C_15  and  C_16 
REMARK    7  A    between atoms: C_16  and  O_17 
REMARK    8  A    between atoms: O_17  and  C_18 
REMARK    9  A    between atoms: C_18  and  C_19 
REMARK   10  A    between atoms: C_19  and  N_20 
REMARK       I    between atoms: N_20  and  C_21 
REMARK   11  A    between atoms: C_21  and  C_23 
ROOT
HETATM    1  C   UNK N   1      34.779  15.790   5.768  0.00  0.00     0.193 C 
ENDROOT
BRANCH   1   2
HETATM    2  O   UNK N   1      34.984  16.626   6.865  0.00  0.00    -0.387 OA
BRANCH   2   3
HETATM    3  C   UNK N   1      33.937  17.545   6.798  0.00  0.00     0.187 C 
BRANCH   3   4
HETATM    4  C   UNK N   1      33.513  17.901   8.209  0.00  0.00     0.149 C 
BRANCH   4   5
HETATM    5  N   UNK N   1      32.985  16.752   8.904  0.00  0.00    -0.354 N 
HETATM    6  C   UNK N   1      31.679  16.380   8.883  0.00  0.00     0.268 C 
HETATM    7  O   UNK N   1      31.317  15.480   9.626  0.00  0.00    -0.266 OA
HETATM    8  H   UNK N   1      33.612  16.202   9.428  0.00  0.00     0.162 HD
BRANCH   6   9
HETATM    9  C   UNK N   1      30.668  17.033   8.013  0.00  0.00     0.102 A 
HETATM   10  N   UNK N   1      30.467  16.728   6.706  0.00  0.00    -0.351 N 
HETATM   11  C   UNK N   1      29.451  17.505   6.310  0.00  0.00     0.043 A 
HETATM   12  H   UNK N   1      30.963  16.074   6.164  0.00  0.00     0.166 HD
HETATM   13  C   UNK N   1      29.020  18.303   7.331  0.00  0.00    -0.005 A 
HETATM   14  C   UNK N   1      28.866  17.539   5.048  0.00  0.00     0.032 A 
HETATM   15  C   UNK N   1      27.986  19.216   7.161  0.00  0.00     0.037 A 
HETATM   16  C   UNK N   1      29.774  18.012   8.443  0.00  0.00     0.049 A 
HETATM   17  C   UNK N   1      27.379  19.290   5.892  0.00  0.00     0.035 A 
HETATM   18 Cl   UNK N   1      26.088  20.437   5.613  0.00  0.00    -0.084 Cl
HETATM   19  C   UNK N   1      27.812  18.447   4.842  0.00  0.00     0.026 A 
ENDBRANCH   6   9
ENDBRANCH   4   5
ENDBRANCH   3   4
ENDBRANCH   2   3
ENDBRANCH   1   2
BRANCH   1  20
HETATM   20  C   UNK N   1      33.852  14.642   6.150  0.00  0.00     0.193 C 
BRANCH  20  21
HETATM   21  O   UNK N   1      34.061  14.280   7.481  0.00  0.00    -0.387 OA
BRANCH  21  22
HETATM   22  C   UNK N   1      35.109  13.360   7.426  0.00  0.00     0.187 C 
BRANCH  22  23
HETATM   23  C   UNK N   1      35.874  13.420   8.732  0.00  0.00     0.149 C 
BRANCH  23  24
HETATM   24  N   UNK N   1      36.032  14.780   9.187  0.00  0.00    -0.354 N 
HETATM   25  C   UNK N   1      36.247  15.133  10.480  0.00  0.00     0.268 C 
HETATM   26  O   UNK N   1      36.514  16.301  10.730  0.00  0.00    -0.266 OA
HETATM   27  H   UNK N   1      35.979  15.499   8.516  0.00  0.00     0.162 HD
BRANCH  25  28
HETATM   28  C   UNK N   1      36.197  14.162  11.601  0.00  0.00     0.102 A 
HETATM   29  C   UNK N   1      35.028  13.760  12.246  0.00  0.00     0.049 A 
HETATM   30  C   UNK N   1      35.447  12.845  13.184  0.00  0.00    -0.005 A 
HETATM   31  C   UNK N   1      36.800  12.713  13.064  0.00  0.00     0.043 A 
HETATM   32  C   UNK N   1      34.719  12.128  14.126  0.00  0.00     0.037 A 
HETATM   33  N   UNK N   1      37.279  13.518  12.109  0.00  0.00    -0.351 N 
HETATM   34  C   UNK N   1      37.529  11.834  13.860  0.00  0.00     0.032 A 
HETATM   35  H   UNK N   1      38.218  13.621  11.832  0.00  0.00     0.166 HD
HETATM   36  C   UNK N   1      36.823  11.086  14.820  0.00  0.00     0.026 A 
HETATM   37  C   UNK N   1      35.424  11.240  14.960  0.00  0.00     0.035 A 
HETATM   38 Cl   UNK N   1      34.565  10.327  16.180  0.00  0.00    -0.084 Cl
ENDBRANCH  25  28
ENDBRANCH  23  24
ENDBRANCH  22  23
ENDBRANCH  21  22
ENDBRANCH  20  21
ENDBRANCH   1  20
TORSDOF 11
ENDMDL
MODEL 5
REMARK VINA RESULT:      -5.9     16.644     19.904
REMARK  11 active torsions:
REMARK  status: ('A' for Active; 'I' for Inactive)
REMARK    1  A    between atoms: C_7  and  C_9 
REMARK       I    between atoms: C_9  and  N_11 
REMARK    2  A    between atoms: N_11  and  C_12 
REMARK    3  A    between atoms: C_12  and  C_13 
REMARK    4  A    between atoms: C_13  and  O_14 
REMARK    5  A    between atoms: O_14  and  C_15 
REMARK    6  A    between atoms: C_15  and  C_16 
REMARK    7  A    between atoms: C_16  and  O_17 
REMARK    8  A    between atoms: O_17  and  C_18 
REMARK    9  A    between atoms: C_18  and  C_19 
REMARK   10  A    between atoms: C_19  and  N_20 
REMARK       I    between atoms: N_20  and  C_21 
REMARK   11  A    between atoms: C_21  and  C_23 
ROOT
HETATM    1  C   UNK N   1      37.379  13.094   7.515  0.00  0.00     0.193 C 
ENDROOT
BRANCH   1   2
HETATM    2  O   UNK N   1      37.571  12.373   8.693  0.00  0.00    -0.387 OA
BRANCH   2   3
HETATM    3  C   UNK N   1      38.464  13.150   9.430  0.00  0.00     0.187 C 
BRANCH   3   4
HETATM    4  C   UNK N   1      37.881  13.384  10.808  0.00  0.00     0.149 C 
BRANCH   4   5
HETATM    5  N   UNK N   1      37.114  14.606  10.854  0.00  0.00    -0.354 N 
HETATM    6  C   UNK N   1      36.064  14.819  11.688  0.00  0.00     0.268 C 
HETATM    7  O   UNK N   1      35.395  15.831  11.539  0.00  0.00    -0.266 OA
HETATM    8  H   UNK N   1      37.369  15.333  10.241  0.00  0.00     0.162 HD
BRANCH   6   9
HETATM    9  C   UNK N   1      35.678  13.865  12.759  0.00  0.00     0.102 A 
HETATM   10  N   UNK N   1      34.809  12.836  12.596  0.00  0.00    -0.351 N 
HETATM   11  C   UNK N   1      34.775  12.206  13.776  0.00  0.00     0.043 A 
HETATM   12  H   UNK N   1      34.309  12.603  11.781  0.00  0.00     0.166 HD
HETATM   13  C   UNK N   1      35.587  12.824  14.684  0.00  0.00    -0.005 A 
HETATM   14  C   UNK N   1      34.036  11.071  14.098  0.00  0.00     0.032 A 
HETATM   15  C   UNK N   1      35.705  12.368  15.992  0.00  0.00     0.037 A 
HETATM   16  C   UNK N   1      36.194  13.885  14.054  0.00  0.00     0.049 A 
HETATM   17  C   UNK N   1      34.961  11.230  16.359  0.00  0.00     0.035 A 
HETATM   18 Cl   UNK N   1      35.052  10.625  17.997  0.00  0.00    -0.084 Cl
HETATM   19  C   UNK N   1      34.137  10.579  15.412  0.00  0.00     0.026 A 
ENDBRANCH   6   9
ENDBRANCH   4   5
ENDBRANCH   3   4
ENDBRANCH   2   3
ENDBRANCH   1   2
BRANCH   1  20
HETATM   20  C   UNK N   1      36.094  12.643   6.830  0.00  0.00     0.193 C 
BRANCH  20  21
HETATM   21  O   UNK N   1      34.986  13.098   7.544  0.00  0.00    -0.387 OA
BRANCH  21  22
HETATM   22  C   UNK N   1      34.861  14.436   7.170  0.00  0.00     0.187 C 
BRANCH  22  23
HETATM   23  C   UNK N   1      34.425  15.239   8.379  0.00  0.00     0.149 C 
BRANCH  23  24
HETATM   24  N   UNK N   1      34.905  16.598   8.307  0.00  0.00    -0.354 N 
HETATM   25  C   UNK N   1      34.100  17.689   8.229  0.00  0.00     0.268 C 
HETATM   26  O   UNK N   1      34.609  18.797   8.323  0.00  0.00    -0.266 OA
HETATM   27  H   UNK N   1      35.879  16.744   8.314  0.00  0.00     0.162 HD
BRANCH  25  28
HETATM   28  C   UNK N   1      32.629  17.596   8.060  0.00  0.00     0.102 A 
HETATM   29  C   UNK N   1      31.992  17.231   6.874  0.00  0.00     0.049 A 
HETATM   30  C   UNK N   1      30.652  17.251   7.180  0.00  0.00    -0.005 A 
HETATM   31  C   UNK N   1      30.528  17.591   8.496  0.00  0.00     0.043 A 
HETATM   32  C   UNK N   1      29.544  16.989   6.382  0.00  0.00     0.037 A 
HETATM   33  N   UNK N   1      31.726  17.817   9.048  0.00  0.00    -0.351 N 
HETATM   34  C   UNK N   1      29.288  17.673   9.125  0.00  0.00     0.032 A 
HETATM   35  H   UNK N   1      31.912  18.086   9.977  0.00  0.00     0.166 HD
HETATM   36  C   UNK N   1      28.146  17.407   8.348  0.00  0.00     0.026 A 
HETATM   37  C   UNK N   1      28.272  17.076   6.979  0.00  0.00     0.035 A 
HETATM   38 Cl   UNK N   1      26.841  16.780   6.018  0.00  0.00    -0.084 Cl
ENDBRANCH  25  28
ENDBRANCH  23  24
ENDBRANCH  22  23
ENDBRANCH  21  22
ENDBRANCH  20  21
ENDBRANCH   1  20
TORSDOF 11
ENDMDL
MODEL 6
REMARK VINA RESULT:      -5.8     15.426     19.093
REMARK  11 active torsions:
REMARK  status: ('A' for Active; 'I' for Inactive)
REMARK    1  A    between atoms: C_7  and  C_9 
REMARK       I    between atoms: C_9  and  N_11 
REMARK    2  A    between atoms: N_11  and  C_12 
REMARK    3  A    between atoms: C_12  and  C_13 
REMARK    4  A    between atoms: C_13  and  O_14 
REMARK    5  A    between atoms: O_14  and  C_15 
REMARK    6  A    between atoms: C_15  and  C_16 
REMARK    7  A    between atoms: C_16  and  O_17 
REMARK    8  A    between atoms: O_17  and  C_18 
REMARK    9  A    between atoms: C_18  and  C_19 
REMARK   10  A    between atoms: C_19  and  N_20 
REMARK       I    between atoms: N_20  and  C_21 
REMARK   11  A    between atoms: C_21  and  C_23 
ROOT
HETATM    1  C   UNK N   1      32.370  14.885   7.467  0.00  0.00     0.193 C 
ENDROOT
BRANCH   1   2
HETATM    2  O   UNK N   1      31.982  15.712   8.521  0.00  0.00    -0.387 OA
BRANCH   2   3
HETATM    3  C   UNK N   1      32.193  17.004   8.041  0.00  0.00     0.187 C 
BRANCH   3   4
HETATM    4  C   UNK N   1      31.170  17.928   8.669  0.00  0.00     0.149 C 
BRANCH   4   5
HETATM    5  N   UNK N   1      30.171  17.186   9.399  0.00  0.00    -0.354 N 
HETATM    6  C   UNK N   1      28.831  17.341   9.233  0.00  0.00     0.268 C 
HETATM    7  O   UNK N   1      28.077  16.770  10.008  0.00  0.00    -0.266 OA
HETATM    8  H   UNK N   1      30.478  16.524  10.059  0.00  0.00     0.162 HD
BRANCH   6   9
HETATM    9  C   UNK N   1      28.244  18.192   8.168  0.00  0.00     0.102 A 
HETATM   10  N   UNK N   1      27.705  19.421   8.374  0.00  0.00    -0.351 N 
HETATM   11  C   UNK N   1      27.335  19.856   7.164  0.00  0.00     0.043 A 
HETATM   12  H   UNK N   1      27.609  19.891   9.233  0.00  0.00     0.166 HD
HETATM   13  C   UNK N   1      27.610  18.925   6.203  0.00  0.00    -0.005 A 
HETATM   14  C   UNK N   1      26.748  21.081   6.859  0.00  0.00     0.032 A 
HETATM   15  C   UNK N   1      27.296  19.136   4.866  0.00  0.00     0.037 A 
HETATM   16  C   UNK N   1      28.209  17.850   6.817  0.00  0.00     0.049 A 
HETATM   17  C   UNK N   1      26.688  20.359   4.521  0.00  0.00     0.035 A 
HETATM   18 Cl   UNK N   1      26.250  20.671   2.857  0.00  0.00    -0.084 Cl
HETATM   19  C   UNK N   1      26.424  21.331   5.513  0.00  0.00     0.026 A 
ENDBRANCH   6   9
ENDBRANCH   4   5
ENDBRANCH   3   4
ENDBRANCH   2   3
ENDBRANCH   1   2
BRANCH   1  20
HETATM   20  C   UNK N   1      33.491  15.543   6.671  0.00  0.00     0.193 C 
BRANCH  20  21
HETATM   21  O   UNK N   1      34.717  14.968   7.007  0.00  0.00    -0.387 OA
BRANCH  21  22
HETATM   22  C   UNK N   1      34.375  13.773   7.640  0.00  0.00     0.187 C 
BRANCH  22  23
HETATM   23  C   UNK N   1      35.218  13.627   8.890  0.00  0.00     0.149 C 
BRANCH  23  24
HETATM   24  N   UNK N   1      35.735  14.902   9.326  0.00  0.00    -0.354 N 
HETATM   25  C   UNK N   1      36.236  15.140  10.565  0.00  0.00     0.268 C 
HETATM   26  O   UNK N   1      36.782  16.213  10.778  0.00  0.00    -0.266 OA
HETATM   27  H   UNK N   1      35.722  15.648   8.683  0.00  0.00     0.162 HD
BRANCH  25  28
HETATM   28  C   UNK N   1      36.172  14.146  11.666  0.00  0.00     0.102 A 
HETATM   29  C   UNK N   1      34.991  13.683  12.244  0.00  0.00     0.049 A 
HETATM   30  C   UNK N   1      35.402  12.770  13.186  0.00  0.00    -0.005 A 
HETATM   31  C   UNK N   1      36.763  12.696  13.132  0.00  0.00     0.043 A 
HETATM   32  C   UNK N   1      34.659  12.005  14.079  0.00  0.00     0.037 A 
HETATM   33  N   UNK N   1      37.254  13.538  12.216  0.00  0.00    -0.351 N 
HETATM   34  C   UNK N   1      37.489  11.833  13.949  0.00  0.00     0.032 A 
HETATM   35  H   UNK N   1      38.200  13.685  11.988  0.00  0.00     0.166 HD
HETATM   36  C   UNK N   1      36.769  11.039  14.860  0.00  0.00     0.026 A 
HETATM   37  C   UNK N   1      35.360  11.131  14.932  0.00  0.00     0.035 A 
HETATM   38 Cl   UNK N   1      34.481  10.160  16.092  0.00  0.00    -0.084 Cl
ENDBRANCH  25  28
ENDBRANCH  23  24
ENDBRANCH  22  23
ENDBRANCH  21  22
ENDBRANCH  20  21
ENDBRANCH   1  20
TORSDOF 11
ENDMDL
MODEL 7
REMARK VINA RESULT:      -5.7      3.228      5.884
REMARK  11 active torsions:
REMARK  status: ('A' for Active; 'I' for Inactive)
REMARK    1  A    between atoms: C_7  and  C_9 
REMARK       I    between atoms: C_9  and  N_11 
REMARK    2  A    between atoms: N_11  and  C_12 
REMARK    3  A    between atoms: C_12  and  C_13 
REMARK    4  A    between atoms: C_13  and  O_14 
REMARK    5  A    between atoms: O_14  and  C_15 
REMARK    6  A    between atoms: C_15  and  C_16 
REMARK    7  A    between atoms: C_16  and  O_17 
REMARK    8  A    between atoms: O_17  and  C_18 
REMARK    9  A    between atoms: C_18  and  C_19 
REMARK   10  A    between atoms: C_19  and  N_20 
REMARK       I    between atoms: N_20  and  C_21 
REMARK   11  A    between atoms: C_21  and  C_23 
ROOT
HETATM    1  C   UNK N   1      28.789  28.103  -4.648  0.00  0.00     0.193 C 
ENDROOT
BRANCH   1   2
HETATM    2  O   UNK N   1      29.266  27.068  -3.845  0.00  0.00    -0.387 OA
BRANCH   2   3
HETATM    3  C   UNK N   1      29.561  26.043  -4.744  0.00  0.00     0.187 C 
BRANCH   3   4
HETATM    4  C   UNK N   1      30.925  25.478  -4.406  0.00  0.00     0.149 C 
BRANCH   4   5
HETATM    5  N   UNK N   1      30.912  24.799  -3.133  0.00  0.00    -0.354 N 
HETATM    6  C   UNK N   1      30.881  23.448  -2.988  0.00  0.00     0.268 C 
HETATM    7  O   UNK N   1      30.722  22.985  -1.868  0.00  0.00    -0.266 OA
HETATM    8  H   UNK N   1      30.927  25.348  -2.316  0.00  0.00     0.162 HD
BRANCH   6   9
HETATM    9  C   UNK N   1      31.009  22.511  -4.132  0.00  0.00     0.102 A 
HETATM   10  N   UNK N   1      32.190  22.088  -4.651  0.00  0.00    -0.351 N 
HETATM   11  C   UNK N   1      31.864  21.232  -5.627  0.00  0.00     0.043 A 
HETATM   12  H   UNK N   1      33.094  22.354  -4.368  0.00  0.00     0.166 HD
HETATM   13  C   UNK N   1      30.509  21.119  -5.748  0.00  0.00    -0.005 A 
HETATM   14  C   UNK N   1      32.741  20.519  -6.441  0.00  0.00     0.032 A 
HETATM   15  C   UNK N   1      29.923  20.304  -6.709  0.00  0.00     0.037 A 
HETATM   16  C   UNK N   1      29.931  21.919  -4.789  0.00  0.00     0.049 A 
HETATM   17  C   UNK N   1      30.778  19.578  -7.561  0.00  0.00     0.035 A 
HETATM   18 Cl   UNK N   1      30.098  18.553  -8.805  0.00  0.00    -0.084 Cl
HETATM   19  C   UNK N   1      32.181  19.679  -7.421  0.00  0.00     0.026 A 
ENDBRANCH   6   9
ENDBRANCH   4   5
ENDBRANCH   3   4
ENDBRANCH   2   3
ENDBRANCH   1   2
BRANCH   1  20
HETATM   20  C   UNK N   1      28.570  27.604  -6.071  0.00  0.00     0.193 C 
BRANCH  20  21
HETATM   21  O   UNK N   1      27.387  28.132  -6.587  0.00  0.00    -0.387 OA
BRANCH  21  22
HETATM   22  C   UNK N   1      26.483  28.051  -5.527  0.00  0.00     0.187 C 
BRANCH  22  23
HETATM   23  C   UNK N   1      25.714  26.751  -5.644  0.00  0.00     0.149 C 
BRANCH  23  24
HETATM   24  N   UNK N   1      25.808  25.974  -4.432  0.00  0.00    -0.354 N 
HETATM   25  C   UNK N   1      26.088  24.646  -4.394  0.00  0.00     0.268 C 
HETATM   26  O   UNK N   1      26.289  24.122  -3.307  0.00  0.00    -0.266 OA
HETATM   27  H   UNK N   1      25.659  26.438  -3.575  0.00  0.00     0.162 HD
BRANCH  25  28
HETATM   28  C   UNK N   1      26.185  23.807  -5.614  0.00  0.00     0.102 A 
HETATM   29  C   UNK N   1      27.314  23.725  -6.428  0.00  0.00     0.049 A 
HETATM   30  C   UNK N   1      26.970  22.825  -7.409  0.00  0.00    -0.005 A 
HETATM   31  C   UNK N   1      25.702  22.391  -7.152  0.00  0.00     0.043 A 
HETATM   32  C   UNK N   1      27.696  22.365  -8.502  0.00  0.00     0.037 A 
HETATM   33  N   UNK N   1      25.201  22.989  -6.065  0.00  0.00    -0.351 N 
HETATM   34  C   UNK N   1      25.068  21.445  -7.953  0.00  0.00     0.032 A 
HETATM   35  H   UNK N   1      24.306  22.861  -5.673  0.00  0.00     0.166 HD
HETATM   36  C   UNK N   1      25.777  20.953  -9.064  0.00  0.00     0.026 A 
HETATM   37  C   UNK N   1      27.083  21.419  -9.344  0.00  0.00     0.035 A 
HETATM   38 Cl   UNK N   1      27.939  20.822 -10.747  0.00  0.00    -0.084 Cl
ENDBRANCH  25  28
ENDBRANCH  23  24
ENDBRANCH  22  23
ENDBRANCH  21  22
ENDBRANCH  20  21
ENDBRANCH   1  20
TORSDOF 11
ENDMDL
MODEL 8
REMARK VINA RESULT:      -5.5     17.986     21.495
REMARK  11 active torsions:
REMARK  status: ('A' for Active; 'I' for Inactive)
REMARK    1  A    between atoms: C_7  and  C_9 
REMARK       I    between atoms: C_9  and  N_11 
REMARK    2  A    between atoms: N_11  and  C_12 
REMARK    3  A    between atoms: C_12  and  C_13 
REMARK    4  A    between atoms: C_13  and  O_14 
REMARK    5  A    between atoms: O_14  and  C_15 
REMARK    6  A    between atoms: C_15  and  C_16 
REMARK    7  A    between atoms: C_16  and  O_17 
REMARK    8  A    between atoms: O_17  and  C_18 
REMARK    9  A    between atoms: C_18  and  C_19 
REMARK   10  A    between atoms: C_19  and  N_20 
REMARK       I    between atoms: N_20  and  C_21 
REMARK   11  A    between atoms: C_21  and  C_23 
ROOT
HETATM    1  C   UNK N   1      36.317  11.322   8.448  0.00  0.00     0.193 C 
ENDROOT
BRANCH   1   2
HETATM    2  O   UNK N   1      36.502  12.331   9.392  0.00  0.00    -0.387 OA
BRANCH   2   3
HETATM    3  C   UNK N   1      36.338  13.513   8.670  0.00  0.00     0.187 C 
BRANCH   3   4
HETATM    4  C   UNK N   1      35.063  14.189   9.129  0.00  0.00     0.149 C 
BRANCH   4   5
HETATM    5  N   UNK N   1      35.345  15.392   9.875  0.00  0.00    -0.354 N 
HETATM    6  C   UNK N   1      34.940  16.634   9.503  0.00  0.00     0.268 C 
HETATM    7  O   UNK N   1      35.361  17.596  10.129  0.00  0.00    -0.266 OA
HETATM    8  H   UNK N   1      35.862  15.307  10.708  0.00  0.00     0.162 HD
BRANCH   6   9
HETATM    9  C   UNK N   1      34.029  16.876   8.357  0.00  0.00     0.102 A 
HETATM   10  N   UNK N   1      34.440  17.126   7.087  0.00  0.00    -0.351 N 
HETATM   11  C   UNK N   1      33.319  17.241   6.365  0.00  0.00     0.043 A 
HETATM   12  H   UNK N   1      35.367  17.205   6.767  0.00  0.00     0.166 HD
HETATM   13  C   UNK N   1      32.212  17.088   7.151  0.00  0.00    -0.005 A 
HETATM   14  C   UNK N   1      33.226  17.480   4.997  0.00  0.00     0.032 A 
HETATM   15  C   UNK N   1      30.926  17.187   6.634  0.00  0.00     0.037 A 
HETATM   16  C   UNK N   1      32.637  16.837   8.435  0.00  0.00     0.049 A 
HETATM   17  C   UNK N   1      30.792  17.443   5.256  0.00  0.00     0.035 A 
HETATM   18 Cl   UNK N   1      29.198  17.601   4.554  0.00  0.00    -0.084 Cl
HETATM   19  C   UNK N   1      31.938  17.580   4.439  0.00  0.00     0.026 A 
ENDBRANCH   6   9
ENDBRANCH   4   5
ENDBRANCH   3   4
ENDBRANCH   2   3
ENDBRANCH   1   2
BRANCH   1  20
HETATM   20  C   UNK N   1      35.203  10.383   8.895  0.00  0.00     0.193 C 
BRANCH  20  21
HETATM   21  O   UNK N   1      35.369  10.049  10.239  0.00  0.00    -0.387 OA
BRANCH  21  22
HETATM   22  C   UNK N   1      34.087  10.150  10.779  0.00  0.00     0.187 C 
BRANCH  22  23
HETATM   23  C   UNK N   1      34.170  10.908  12.088  0.00  0.00     0.149 C 
BRANCH  23  24
HETATM   24  N   UNK N   1      34.755  12.214  11.901  0.00  0.00    -0.354 N 
HETATM   25  C   UNK N   1      35.436  12.890  12.861  0.00  0.00     0.268 C 
HETATM   26  O   UNK N   1      36.015  13.922  12.550  0.00  0.00    -0.266 OA
HETATM   27  H   UNK N   1      34.652  12.643  11.021  0.00  0.00     0.162 HD
BRANCH  25  28
HETATM   28  C   UNK N   1      35.531  12.421  14.266  0.00  0.00     0.102 A 
HETATM   29  C   UNK N   1      36.213  11.274  14.670  0.00  0.00     0.049 A 
HETATM   30  C   UNK N   1      36.062  11.245  16.037  0.00  0.00    -0.005 A 
HETATM   31  C   UNK N   1      35.342  12.346  16.402  0.00  0.00     0.043 A 
HETATM   32  C   UNK N   1      36.515  10.321  16.972  0.00  0.00     0.037 A 
HETATM   33  N   UNK N   1      34.999  13.071  15.331  0.00  0.00    -0.351 N 
HETATM   34  C   UNK N   1      35.040  12.623  17.733  0.00  0.00     0.032 A 
HETATM   35  H   UNK N   1      34.471  13.903  15.320  0.00  0.00     0.166 HD
HETATM   36  C   UNK N   1      35.490  11.713  18.706  0.00  0.00     0.026 A 
HETATM   37  C   UNK N   1      36.217  10.560  18.326  0.00  0.00     0.035 A 
HETATM   38 Cl   UNK N   1      36.742   9.421  19.545  0.00  0.00    -0.084 Cl
ENDBRANCH  25  28
ENDBRANCH  23  24
ENDBRANCH  22  23
ENDBRANCH  21  22
ENDBRANCH  20  21
ENDBRANCH   1  20
TORSDOF 11
ENDMDL
MODEL 9
REMARK VINA RESULT:      -5.5     16.426     19.861
REMARK  11 active torsions:
REMARK  status: ('A' for Active; 'I' for Inactive)
REMARK    1  A    between atoms: C_7  and  C_9 
REMARK       I    between atoms: C_9  and  N_11 
REMARK    2  A    between atoms: N_11  and  C_12 
REMARK    3  A    between atoms: C_12  and  C_13 
REMARK    4  A    between atoms: C_13  and  O_14 
REMARK    5  A    between atoms: O_14  and  C_15 
REMARK    6  A    between atoms: C_15  and  C_16 
REMARK    7  A    between atoms: C_16  and  O_17 
REMARK    8  A    between atoms: O_17  and  C_18 
REMARK    9  A    between atoms: C_18  and  C_19 
REMARK   10  A    between atoms: C_19  and  N_20 
REMARK       I    between atoms: N_20  and  C_21 
REMARK   11  A    between atoms: C_21  and  C_23 
ROOT
HETATM    1  C   UNK N   1      36.382  12.310   8.330  0.00  0.00     0.193 C 
ENDROOT
BRANCH   1   2
HETATM    2  O   UNK N   1      36.151  10.977   7.993  0.00  0.00    -0.387 OA
BRANCH   2   3
HETATM    3  C   UNK N   1      36.646  10.257   9.080  0.00  0.00     0.187 C 
BRANCH   3   4
HETATM    4  C   UNK N   1      35.603   9.245   9.507  0.00  0.00     0.149 C 
BRANCH   4   5
HETATM    5  N   UNK N   1      34.271   9.698   9.190  0.00  0.00    -0.354 N 
HETATM    6  C   UNK N   1      33.449  10.328  10.069  0.00  0.00     0.268 C 
HETATM    7  O   UNK N   1      32.290  10.534   9.739  0.00  0.00    -0.266 OA
HETATM    8  H   UNK N   1      33.935   9.541   8.278  0.00  0.00     0.162 HD
BRANCH   6   9
HETATM    9  C   UNK N   1      33.889  10.757  11.420  0.00  0.00     0.102 A 
HETATM   10  N   UNK N   1      34.516  11.930  11.689  0.00  0.00    -0.351 N 
HETATM   11  C   UNK N   1      34.697  11.943  13.014  0.00  0.00     0.043 A 
HETATM   12  H   UNK N   1      34.780  12.625  11.043  0.00  0.00     0.166 HD
HETATM   13  C   UNK N   1      34.217  10.800  13.586  0.00  0.00    -0.005 A 
HETATM   14  C   UNK N   1      35.285  12.956  13.768  0.00  0.00     0.032 A 
HETATM   15  C   UNK N   1      34.310  10.568  14.953  0.00  0.00     0.037 A 
HETATM   16  C   UNK N   1      33.677  10.023  12.587  0.00  0.00     0.049 A 
HETATM   17  C   UNK N   1      34.912  11.563  15.747  0.00  0.00     0.035 A 
HETATM   18 Cl   UNK N   1      35.076  11.317  17.471  0.00  0.00    -0.084 Cl
HETATM   19  C   UNK N   1      35.389  12.757  15.157  0.00  0.00     0.026 A 
ENDBRANCH   6   9
ENDBRANCH   4   5
ENDBRANCH   3   4
ENDBRANCH   2   3
ENDBRANCH   1   2
BRANCH   1  20
HETATM   20  C   UNK N   1      35.088  13.109   8.223  0.00  0.00     0.193 C 
BRANCH  20  21
HETATM   21  O   UNK N   1      34.780  13.689   9.454  0.00  0.00    -0.387 OA
BRANCH  21  22
HETATM   22  C   UNK N   1      35.410  14.933   9.415  0.00  0.00     0.187 C 
BRANCH  22  23
HETATM   23  C   UNK N   1      34.364  16.012   9.607  0.00  0.00     0.149 C 
BRANCH  23  24
HETATM   24  N   UNK N   1      34.927  17.327   9.423  0.00  0.00    -0.354 N 
HETATM   25  C   UNK N   1      34.581  18.173   8.418  0.00  0.00     0.268 C 
HETATM   26  O   UNK N   1      35.011  19.317   8.444  0.00  0.00    -0.266 OA
HETATM   27  H   UNK N   1      35.607  17.632  10.067  0.00  0.00     0.162 HD
BRANCH  25  28
HETATM   28  C   UNK N   1      33.684  17.777   7.304  0.00  0.00     0.102 A 
HETATM   29  C   UNK N   1      32.308  17.592   7.426  0.00  0.00     0.049 A 
HETATM   30  C   UNK N   1      31.889  17.264   6.158  0.00  0.00    -0.005 A 
HETATM   31  C   UNK N   1      32.979  17.284   5.338  0.00  0.00     0.043 A 
HETATM   32  C   UNK N   1      30.619  16.953   5.683  0.00  0.00     0.037 A 
HETATM   33  N   UNK N   1      34.089  17.586   6.023  0.00  0.00    -0.351 N 
HETATM   34  C   UNK N   1      32.884  17.021   3.974  0.00  0.00     0.032 A 
HETATM   35  H   UNK N   1      35.006  17.655   5.670  0.00  0.00     0.166 HD
HETATM   36  C   UNK N   1      31.612  16.710   3.459  0.00  0.00     0.026 A 
HETATM   37  C   UNK N   1      30.485  16.666   4.312  0.00  0.00     0.035 A 
HETATM   38 Cl   UNK N   1      28.917  16.247   3.662  0.00  0.00    -0.084 Cl
ENDBRANCH  25  28
ENDBRANCH  23  24
ENDBRANCH  22  23
ENDBRANCH  21  22
ENDBRANCH  20  21
ENDBRANCH   1  20
TORSDOF 11
ENDMDL
