MODEL 1
REMARK VINA RESULT:      -8.1      0.000      0.000
REMARK  7 active torsions:
REMARK  status: ('A' for Active; 'I' for Inactive)
REMARK    1  A    between atoms: C_21  and  C_7 
REMARK    2  A    between atoms: C_22  and  C_8 
REMARK    3  A    between atoms: C_12  and  C_10 
REMARK    4  A    between atoms: C_24  and  C_10 
REMARK    5  A    between atoms: C_34  and  C_12 
REMARK    6  A    between atoms: O_40  and  C_33 
REMARK    7  A    between atoms: O_42  and  C_34 
ROOT
HETATM    1  C   UNK N   1      37.206  11.894   2.055  0.00  0.00     0.052 C 
HETATM    2  C   UNK N   1      37.133  13.446   9.768  0.00  0.00     0.052 C 
HETATM    3  C   UNK N   1      32.881  12.013   3.571  0.00  0.00     0.046 C 
HETATM    4  C   UNK N   1      30.963  18.282   8.981  0.00  0.00     0.046 C 
HETATM    5  C   UNK N   1      31.373  14.006   5.468  0.00  0.00     0.051 C 
HETATM    6  C   UNK N   1      32.672  14.388   6.392  0.00  0.00     0.114 A 
HETATM    7  C   UNK N   1      34.647  13.963   2.213  0.00  0.00     0.031 C 
HETATM    8  C   UNK N   1      36.424  13.158   6.805  0.00  0.00     0.064 C 
HETATM    9  C   UNK N   1      32.975  15.947   8.550  0.00  0.00     0.064 A 
HETATM   10  C   UNK N   1      31.280  16.765   4.014  0.00  0.00     0.053 C 
HETATM   11  C   UNK N   1      36.606  12.549   3.241  0.00  0.00    -0.021 A 
HETATM   12  C   UNK N   1      35.897  13.874   9.068  0.00  0.00    -0.021 A 
HETATM   13  C   UNK N   1      32.580  13.449   3.304  0.00  0.00    -0.053 C 
HETATM   14  C   UNK N   1      31.133  17.602   7.663  0.00  0.00    -0.045 C 
HETATM   15  C   UNK N   1      37.042  12.425   4.560  0.00  0.00     0.000 A 
HETATM   16  C   UNK N   1      34.864  14.695   9.572  0.00  0.00     0.000 A 
HETATM   17  C   UNK N   1      31.693  14.284   4.040  0.00  0.00    -0.031 C 
HETATM   18  C   UNK N   1      30.361  17.675   6.492  0.00  0.00     0.069 C 
HETATM   19  C   UNK N   1      35.511  13.424   3.263  0.00  0.00     0.062 A 
HETATM   20  C   UNK N   1      33.381  14.303   2.561  0.00  0.00     0.135 C 
HETATM   21  C   UNK N   1      35.670  13.706   7.712  0.00  0.00     0.066 A 
HETATM   22  C   UNK N   1      32.008  16.637   7.445  0.00  0.00     0.062 A 
HETATM   23  C   UNK N   1      36.191  13.153   5.315  0.00  0.00     0.070 A 
HETATM   24  C   UNK N   1      34.058  14.982   8.511  0.00  0.00     0.070 A 
HETATM   25  C   UNK N   1      31.838  15.563   3.533  0.00  0.00     0.035 C 
HETATM   26  C   UNK N   1      31.119  17.024   5.461  0.00  0.00     0.045 C 
HETATM   27  C   UNK N   1      34.249  16.254   6.257  0.00  0.00     0.139 A 
HETATM   28 Co   UNK N   1      33.819  14.947   5.069  0.00  0.00     0.000 Co
HETATM   29  N   UNK N   1      35.257  13.774   4.511  0.00  0.00    -0.248 N 
HETATM   30  N   UNK N   1      34.626  14.367   7.373  0.00  0.00    -0.248 N 
HETATM   31  N   UNK N   1      33.123  15.448   3.173  0.00  0.00    -0.197 NA
HETATM   32  N   UNK N   1      32.041  16.434   6.053  0.00  0.00    -0.253 N 
HETATM   33  O   UNK N   1      35.405  16.020   5.898  0.00  0.00    -0.650 OA
ENDROOT
BRANCH  18  34
HETATM   34  C   UNK N   1      29.072  17.026   6.896  0.00  0.00     0.025 C 
BRANCH  34  35
HETATM   35  C   UNK N   1      27.794  17.639   6.514  0.00  0.00     0.111 C 
BRANCH  35  36
HETATM   36  C   UNK N   1      27.751  18.942   7.189  0.00  0.00     0.139 C 
HETATM   37  O   UNK N   1      27.790  19.985   6.550  0.00  0.00    -0.650 OA
BRANCH  36  38
HETATM   38  O   UNK N   1      27.552  18.963   8.509  0.00  0.00    -0.776 OA
HETATM   39  H   UNK N   1      26.733  18.984   8.965  0.00  0.00     0.167 HD
ENDBRANCH  36  38
ENDBRANCH  35  36
ENDBRANCH  34  35
ENDBRANCH  18  34
BRANCH  27  40
HETATM   40  O   UNK N   1      34.009  17.595   6.364  0.00  0.00    -0.776 OA
HETATM   41  H   UNK N   1      34.514  18.385   6.368  0.00  0.00     0.167 HD
ENDBRANCH  27  40
BRANCH  16  42
HETATM   42  C   UNK N   1      34.743  15.381  10.865  0.00  0.00     0.004 C 
HETATM   43  C   UNK N   1      35.506  16.424  11.169  0.00  0.00     0.012 C 
ENDBRANCH  16  42
BRANCH  15  44
HETATM   44  C   UNK N   1      38.168  11.728   5.236  0.00  0.00     0.004 C 
HETATM   45  C   UNK N   1      39.453  11.931   5.036  0.00  0.00     0.012 C 
ENDBRANCH  15  44
TORSDOF 7
ENDMDL
MODEL 2
REMARK VINA RESULT:      -8.0     15.067     17.975
REMARK  7 active torsions:
REMARK  status: ('A' for Active; 'I' for Inactive)
REMARK    1  A    between atoms: C_21  and  C_7 
REMARK    2  A    between atoms: C_22  and  C_8 
REMARK    3  A    between atoms: C_12  and  C_10 
REMARK    4  A    between atoms: C_24  and  C_10 
REMARK    5  A    between atoms: C_34  and  C_12 
REMARK    6  A    between atoms: O_40  and  C_33 
REMARK    7  A    between atoms: O_42  and  C_34 
ROOT
HETATM    1  C   UNK N   1      29.582  30.780  -1.067  0.00  0.00     0.052 C 
HETATM    2  C   UNK N   1      34.031  25.608  -4.988  0.00  0.00     0.052 C 
HETATM    3  C   UNK N   1      27.932  30.217  -5.308  0.00  0.00     0.046 C 
HETATM    4  C   UNK N   1      27.685  22.236  -8.219  0.00  0.00     0.046 C 
HETATM    5  C   UNK N   1      27.429  27.653  -7.044  0.00  0.00     0.051 C 
HETATM    6  C   UNK N   1      28.668  26.775  -6.425  0.00  0.00     0.114 A 
HETATM    7  C   UNK N   1      27.248  29.086  -2.658  0.00  0.00     0.031 C 
HETATM    8  C   UNK N   1      31.743  27.378  -3.988  0.00  0.00     0.064 C 
HETATM    9  C   UNK N   1      29.622  24.333  -6.979  0.00  0.00     0.064 A 
HETATM   10  C   UNK N   1      25.207  25.996  -5.611  0.00  0.00     0.053 C 
HETATM   11  C   UNK N   1      29.730  29.664  -2.031  0.00  0.00    -0.021 A 
HETATM   12  C   UNK N   1      32.630  25.670  -5.474  0.00  0.00    -0.021 A 
HETATM   13  C   UNK N   1      26.951  29.129  -5.033  0.00  0.00    -0.053 C 
HETATM   14  C   UNK N   1      27.200  23.468  -7.530  0.00  0.00    -0.045 C 
HETATM   15  C   UNK N   1      30.931  29.086  -2.445  0.00  0.00     0.000 A 
HETATM   16  C   UNK N   1      31.987  24.780  -6.363  0.00  0.00     0.000 A 
HETATM   17  C   UNK N   1      26.547  28.101  -5.930  0.00  0.00    -0.031 C 
HETATM   18  C   UNK N   1      25.918  24.039  -7.477  0.00  0.00     0.069 C 
HETATM   19  C   UNK N   1      28.706  28.972  -2.690  0.00  0.00     0.062 A 
HETATM   20  C   UNK N   1      26.569  28.705  -3.769  0.00  0.00     0.135 C 
HETATM   21  C   UNK N   1      31.658  26.505  -4.948  0.00  0.00     0.066 A 
HETATM   22  C   UNK N   1      28.000  24.352  -6.961  0.00  0.00     0.062 A 
HETATM   23  C   UNK N   1      30.607  28.139  -3.352  0.00  0.00     0.070 A 
HETATM   24  C   UNK N   1      30.667  25.113  -6.344  0.00  0.00     0.070 A 
HETATM   25  C   UNK N   1      25.742  27.237  -5.209  0.00  0.00     0.035 C 
HETATM   26  C   UNK N   1      25.966  25.064  -6.473  0.00  0.00     0.045 C 
HETATM   27  C   UNK N   1      28.724  25.121  -4.623  0.00  0.00     0.139 A 
HETATM   28 Co   UNK N   1      28.234  26.871  -4.642  0.00  0.00     0.000 Co
HETATM   29  N   UNK N   1      29.236  28.065  -3.491  0.00  0.00    -0.248 N 
HETATM   30  N   UNK N   1      30.514  26.173  -5.421  0.00  0.00    -0.248 N 
HETATM   31  N   UNK N   1      26.327  27.428  -4.020  0.00  0.00    -0.197 NA
HETATM   32  N   UNK N   1      27.174  25.217  -6.218  0.00  0.00    -0.253 N 
HETATM   33  O   UNK N   1      29.283  25.423  -3.567  0.00  0.00    -0.650 OA
ENDROOT
BRANCH  18  34
HETATM   34  C   UNK N   1      25.689  24.487  -8.889  0.00  0.00     0.025 C 
BRANCH  34  35
HETATM   35  C   UNK N   1      25.544  25.917  -9.188  0.00  0.00     0.111 C 
BRANCH  35  36
HETATM   36  C   UNK N   1      25.108  25.996 -10.588  0.00  0.00     0.139 C 
HETATM   37  O   UNK N   1      24.040  25.515 -10.945  0.00  0.00    -0.650 OA
BRANCH  36  38
HETATM   38  O   UNK N   1      25.850  26.706 -11.442  0.00  0.00    -0.776 OA
HETATM   39  H   UNK N   1      26.087  27.611 -11.379  0.00  0.00     0.167 HD
ENDBRANCH  36  38
ENDBRANCH  35  36
ENDBRANCH  34  35
ENDBRANCH  18  34
BRANCH  27  40
HETATM   40  O   UNK N   1      28.071  23.923  -4.531  0.00  0.00    -0.776 OA
HETATM   41  H   UNK N   1      27.423  23.535  -3.976  0.00  0.00     0.167 HD
ENDBRANCH  27  40
BRANCH  16  42
HETATM   42  C   UNK N   1      32.484  23.551  -6.998  0.00  0.00     0.004 C 
HETATM   43  C   UNK N   1      32.705  22.449  -6.293  0.00  0.00     0.012 C 
ENDBRANCH  16  42
BRANCH  15  44
HETATM   44  C   UNK N   1      32.365  29.277  -2.103  0.00  0.00     0.004 C 
HETATM   45  C   UNK N   1      33.059  30.391  -2.213  0.00  0.00     0.012 C 
ENDBRANCH  15  44
TORSDOF 7
ENDMDL
MODEL 3
REMARK VINA RESULT:      -7.9      3.562      5.585
REMARK  7 active torsions:
REMARK  status: ('A' for Active; 'I' for Inactive)
REMARK    1  A    between atoms: C_21  and  C_7 
REMARK    2  A    between atoms: C_22  and  C_8 
REMARK    3  A    between atoms: C_12  and  C_10 
REMARK    4  A    between atoms: C_24  and  C_10 
REMARK    5  A    between atoms: C_34  and  C_12 
REMARK    6  A    between atoms: O_40  and  C_33 
REMARK    7  A    between atoms: O_42  and  C_34 
ROOT
HETATM    1  C   UNK N   1      32.003  11.261   2.459  0.00  0.00     0.052 C 
HETATM    2  C   UNK N   1      32.475  16.469   8.338  0.00  0.00     0.052 C 
HETATM    3  C   UNK N   1      27.829  12.021   4.195  0.00  0.00     0.046 C 
HETATM    4  C   UNK N   1      25.904  20.109   5.960  0.00  0.00     0.046 C 
HETATM    5  C   UNK N   1      26.340  14.659   5.010  0.00  0.00     0.051 C 
HETATM    6  C   UNK N   1      27.681  15.484   5.469  0.00  0.00     0.114 A 
HETATM    7  C   UNK N   1      29.315  13.068   1.858  0.00  0.00     0.031 C 
HETATM    8  C   UNK N   1      31.538  14.717   6.009  0.00  0.00     0.064 C 
HETATM    9  C   UNK N   1      28.046  17.922   6.519  0.00  0.00     0.064 A 
HETATM   10  C   UNK N   1      25.909  16.313   2.400  0.00  0.00     0.053 C 
HETATM   11  C   UNK N   1      31.459  12.408   3.222  0.00  0.00    -0.021 A 
HETATM   12  C   UNK N   1      31.154  16.458   7.662  0.00  0.00    -0.021 A 
HETATM   13  C   UNK N   1      27.396  13.121   3.287  0.00  0.00    -0.053 C 
HETATM   14  C   UNK N   1      26.012  18.864   5.144  0.00  0.00    -0.045 C 
HETATM   15  C   UNK N   1      32.015  12.972   4.371  0.00  0.00     0.000 A 
HETATM   16  C   UNK N   1      30.107  17.396   7.806  0.00  0.00     0.000 A 
HETATM   17  C   UNK N   1      26.514  14.191   3.607  0.00  0.00    -0.031 C 
HETATM   18  C   UNK N   1      25.139  18.322   4.187  0.00  0.00     0.069 C 
HETATM   19  C   UNK N   1      30.306  13.149   2.932  0.00  0.00     0.062 A 
HETATM   20  C   UNK N   1      28.061  13.506   2.133  0.00  0.00     0.135 C 
HETATM   21  C   UNK N   1      30.824  15.628   6.604  0.00  0.00     0.066 A 
HETATM   22  C   UNK N   1      26.937  17.941   5.335  0.00  0.00     0.062 A 
HETATM   23  C   UNK N   1      31.179  13.960   4.756  0.00  0.00     0.070 A 
HETATM   24  C   UNK N   1      29.193  17.094   6.842  0.00  0.00     0.070 A 
HETATM   25  C   UNK N   1      26.515  15.046   2.519  0.00  0.00     0.035 C 
HETATM   26  C   UNK N   1      25.853  17.259   3.536  0.00  0.00     0.045 C 
HETATM   27  C   UNK N   1      29.091  17.068   4.248  0.00  0.00     0.139 A 
HETATM   28 Co   UNK N   1      28.662  15.331   3.924  0.00  0.00     0.000 Co
HETATM   29  N   UNK N   1      30.134  14.072   3.862  0.00  0.00    -0.248 N 
HETATM   30  N   UNK N   1      29.707  16.004   6.102  0.00  0.00    -0.248 N 
HETATM   31  N   UNK N   1      27.769  14.797   2.121  0.00  0.00    -0.197 NA
HETATM   32  N   UNK N   1      26.865  17.068   4.233  0.00  0.00    -0.253 N 
HETATM   33  O   UNK N   1      30.226  16.713   3.925  0.00  0.00    -0.650 OA
ENDROOT
BRANCH  18  34
HETATM   34  C   UNK N   1      23.943  17.932   5.003  0.00  0.00     0.025 C 
BRANCH  34  35
HETATM   35  C   UNK N   1      22.623  17.846   4.369  0.00  0.00     0.111 C 
BRANCH  35  36
HETATM   36  C   UNK N   1      21.705  18.590   5.241  0.00  0.00     0.139 C 
HETATM   37  O   UNK N   1      21.714  18.423   6.454  0.00  0.00    -0.650 OA
BRANCH  36  38
HETATM   38  O   UNK N   1      20.941  19.538   4.693  0.00  0.00    -0.776 OA
HETATM   39  H   UNK N   1      20.570  19.549   3.832  0.00  0.00     0.167 HD
ENDBRANCH  36  38
ENDBRANCH  35  36
ENDBRANCH  34  35
ENDBRANCH  18  34
BRANCH  27  40
HETATM   40  O   UNK N   1      28.758  18.276   3.703  0.00  0.00    -0.776 OA
HETATM   41  H   UNK N   1      28.028  18.645   3.245  0.00  0.00     0.167 HD
ENDBRANCH  27  40
BRANCH  16  42
HETATM   42  C   UNK N   1      30.045  18.636   8.593  0.00  0.00     0.004 C 
HETATM   43  C   UNK N   1      29.669  18.628   9.866  0.00  0.00     0.012 C 
ENDBRANCH  16  42
BRANCH  15  44
HETATM   44  C   UNK N   1      33.245  12.735   5.171  0.00  0.00     0.004 C 
HETATM   45  C   UNK N   1      34.490  12.847   4.753  0.00  0.00     0.012 C 
ENDBRANCH  15  44
TORSDOF 7
ENDMDL
MODEL 4
REMARK VINA RESULT:      -7.9      4.237      8.523
REMARK  7 active torsions:
REMARK  status: ('A' for Active; 'I' for Inactive)
REMARK    1  A    between atoms: C_21  and  C_7 
REMARK    2  A    between atoms: C_22  and  C_8 
REMARK    3  A    between atoms: C_12  and  C_10 
REMARK    4  A    between atoms: C_24  and  C_10 
REMARK    5  A    between atoms: C_34  and  C_12 
REMARK    6  A    between atoms: O_40  and  C_33 
REMARK    7  A    between atoms: O_42  and  C_34 
ROOT
HETATM    1  C   UNK N   1      22.492  15.115   2.338  0.00  0.00     0.052 C 
HETATM    2  C   UNK N   1      28.876  10.782   0.794  0.00  0.00     0.052 C 
HETATM    3  C   UNK N   1      25.235  15.032   6.011  0.00  0.00     0.046 C 
HETATM    4  C   UNK N   1      33.555  15.915   4.513  0.00  0.00     0.046 C 
HETATM    5  C   UNK N   1      28.337  15.376   6.326  0.00  0.00     0.051 C 
HETATM    6  C   UNK N   1      28.736  14.719   4.877  0.00  0.00     0.114 A 
HETATM    7  C   UNK N   1      24.811  16.947   3.793  0.00  0.00     0.031 C 
HETATM    8  C   UNK N   1      26.885  12.810   1.928  0.00  0.00     0.064 C 
HETATM    9  C   UNK N   1      31.085  14.206   3.695  0.00  0.00     0.064 A 
HETATM   10  C   UNK N   1      29.028  18.296   5.474  0.00  0.00     0.053 C 
HETATM   11  C   UNK N   1      23.945  14.855   2.464  0.00  0.00    -0.021 A 
HETATM   12  C   UNK N   1      29.104  11.822   1.827  0.00  0.00    -0.021 A 
HETATM   13  C   UNK N   1      26.032  16.261   5.734  0.00  0.00    -0.053 C 
HETATM   14  C   UNK N   1      32.153  16.339   4.803  0.00  0.00    -0.045 C 
HETATM   15  C   UNK N   1      24.634  13.755   1.953  0.00  0.00     0.000 A 
HETATM   16  C   UNK N   1      30.340  12.244   2.365  0.00  0.00     0.000 A 
HETATM   17  C   UNK N   1      27.385  16.499   6.104  0.00  0.00    -0.031 C 
HETATM   18  C   UNK N   1      31.663  17.371   5.621  0.00  0.00     0.069 C 
HETATM   19  C   UNK N   1      24.899  15.664   3.097  0.00  0.00     0.062 A 
HETATM   20  C   UNK N   1      25.732  17.198   4.757  0.00  0.00     0.135 C 
HETATM   21  C   UNK N   1      28.135  12.705   2.273  0.00  0.00     0.066 A 
HETATM   22  C   UNK N   1      31.088  15.652   4.431  0.00  0.00     0.062 A 
HETATM   23  C   UNK N   1      25.922  13.900   2.331  0.00  0.00     0.070 A 
HETATM   24  C   UNK N   1      30.070  13.350   3.113  0.00  0.00     0.070 A 
HETATM   25  C   UNK N   1      27.753  17.697   5.518  0.00  0.00     0.035 C 
HETATM   26  C   UNK N   1      30.261  17.492   5.331  0.00  0.00     0.045 C 
HETATM   27  C   UNK N   1      29.190  15.758   2.709  0.00  0.00     0.139 A 
HETATM   28 Co   UNK N   1      27.721  15.788   3.781  0.00  0.00     0.000 Co
HETATM   29  N   UNK N   1      26.083  15.081   3.026  0.00  0.00    -0.248 N 
HETATM   30  N   UNK N   1      28.686  13.610   2.993  0.00  0.00    -0.248 N 
HETATM   31  N   UNK N   1      26.953  17.604   4.447  0.00  0.00    -0.197 NA
HETATM   32  N   UNK N   1      29.976  16.483   4.661  0.00  0.00    -0.253 N 
HETATM   33  O   UNK N   1      28.366  15.610   1.804  0.00  0.00    -0.650 OA
ENDROOT
BRANCH  18  34
HETATM   34  C   UNK N   1      32.030  16.913   6.999  0.00  0.00     0.025 C 
BRANCH  34  35
HETATM   35  C   UNK N   1      32.332  17.901   8.042  0.00  0.00     0.111 C 
BRANCH  35  36
HETATM   36  C   UNK N   1      33.782  17.833   8.257  0.00  0.00     0.139 C 
HETATM   37  O   UNK N   1      34.567  18.201   7.392  0.00  0.00    -0.650 OA
BRANCH  36  38
HETATM   38  O   UNK N   1      34.227  17.468   9.463  0.00  0.00    -0.776 OA
HETATM   39  H   UNK N   1      33.898  17.735  10.299  0.00  0.00     0.167 HD
ENDBRANCH  36  38
ENDBRANCH  35  36
ENDBRANCH  34  35
ENDBRANCH  18  34
BRANCH  27  40
HETATM   40  O   UNK N   1      30.170  16.648   2.368  0.00  0.00    -0.776 OA
HETATM   41  H   UNK N   1      31.071  16.793   2.582  0.00  0.00     0.167 HD
ENDBRANCH  27  40
BRANCH  16  42
HETATM   42  C   UNK N   1      31.710  11.830   2.032  0.00  0.00     0.004 C 
HETATM   43  C   UNK N   1      32.275  12.174   0.881  0.00  0.00     0.012 C 
ENDBRANCH  16  42
BRANCH  15  44
HETATM   44  C   UNK N   1      24.267  12.571   1.131  0.00  0.00     0.004 C 
HETATM   45  C   UNK N   1      23.668  12.583  -0.042  0.00  0.00     0.012 C 
ENDBRANCH  15  44
TORSDOF 7
ENDMDL
MODEL 5
REMARK VINA RESULT:      -7.9      4.608      8.542
REMARK  7 active torsions:
REMARK  status: ('A' for Active; 'I' for Inactive)
REMARK    1  A    between atoms: C_21  and  C_7 
REMARK    2  A    between atoms: C_22  and  C_8 
REMARK    3  A    between atoms: C_12  and  C_10 
REMARK    4  A    between atoms: C_24  and  C_10 
REMARK    5  A    between atoms: C_34  and  C_12 
REMARK    6  A    between atoms: O_40  and  C_33 
REMARK    7  A    between atoms: O_42  and  C_34 
ROOT
HETATM    1  C   UNK N   1      22.118  14.463   1.390  0.00  0.00     0.052 C 
HETATM    2  C   UNK N   1      29.091  10.819   1.319  0.00  0.00     0.052 C 
HETATM    3  C   UNK N   1      24.009  14.653   5.562  0.00  0.00     0.046 C 
HETATM    4  C   UNK N   1      32.322  16.397   5.849  0.00  0.00     0.046 C 
HETATM    5  C   UNK N   1      26.921  15.315   6.522  0.00  0.00     0.051 C 
HETATM    6  C   UNK N   1      27.684  14.707   5.203  0.00  0.00     0.114 A 
HETATM    7  C   UNK N   1      23.875  16.521   3.269  0.00  0.00     0.031 C 
HETATM    8  C   UNK N   1      26.708  12.627   1.966  0.00  0.00     0.064 C 
HETATM    9  C   UNK N   1      30.271  14.444   4.558  0.00  0.00     0.064 A 
HETATM   10  C   UNK N   1      27.477  18.294   5.781  0.00  0.00     0.053 C 
HETATM   11  C   UNK N   1      23.530  14.355   1.826  0.00  0.00    -0.021 A 
HETATM   12  C   UNK N   1      28.986  11.873   2.357  0.00  0.00    -0.021 A 
HETATM   13  C   UNK N   1      24.717  15.959   5.437  0.00  0.00    -0.053 C 
HETATM   14  C   UNK N   1      30.855  16.673   5.827  0.00  0.00    -0.045 C 
HETATM   15  C   UNK N   1      24.420  13.333   1.494  0.00  0.00     0.000 A 
HETATM   16  C   UNK N   1      30.030  12.419   3.137  0.00  0.00     0.000 A 
HETATM   17  C   UNK N   1      25.929  16.335   6.082  0.00  0.00    -0.031 C 
HETATM   18  C   UNK N   1      30.100  17.645   6.501  0.00  0.00     0.069 C 
HETATM   19  C   UNK N   1      24.239  15.256   2.632  0.00  0.00     0.062 A 
HETATM   20  C   UNK N   1      24.538  16.863   4.401  0.00  0.00     0.135 C 
HETATM   21  C   UNK N   1      27.860  12.650   2.570  0.00  0.00     0.066 A 
HETATM   22  C   UNK N   1      29.970  15.880   5.250  0.00  0.00     0.062 A 
HETATM   23  C   UNK N   1      25.576  13.609   2.134  0.00  0.00     0.070 A 
HETATM   24  C   UNK N   1      29.495  13.489   3.789  0.00  0.00     0.070 A 
HETATM   25  C   UNK N   1      26.289  17.566   5.564  0.00  0.00     0.035 C 
HETATM   26  C   UNK N   1      28.787  17.622   5.918  0.00  0.00     0.045 C 
HETATM   27  C   UNK N   1      28.481  15.795   3.162  0.00  0.00     0.139 A 
HETATM   28 Co   UNK N   1      26.823  15.669   3.897  0.00  0.00     0.000 Co
HETATM   29  N   UNK N   1      25.464  14.798   2.825  0.00  0.00    -0.248 N 
HETATM   30  N   UNK N   1      28.150  13.606   3.373  0.00  0.00    -0.248 N 
HETATM   31  N   UNK N   1      25.750  17.394   4.350  0.00  0.00    -0.197 NA
HETATM   32  N   UNK N   1      28.756  16.591   5.222  0.00  0.00    -0.253 N 
HETATM   33  O   UNK N   1      27.889  15.565   2.106  0.00  0.00    -0.650 OA
ENDROOT
BRANCH  18  34
HETATM   34  C   UNK N   1      30.210  17.223   7.935  0.00  0.00     0.025 C 
BRANCH  34  35
HETATM   35  C   UNK N   1      29.843  18.161   9.003  0.00  0.00     0.111 C 
BRANCH  35  36
HETATM   36  C   UNK N   1      28.585  17.658   9.570  0.00  0.00     0.139 C 
HETATM   37  O   UNK N   1      28.579  16.723  10.361  0.00  0.00    -0.650 OA
BRANCH  36  38
HETATM   38  O   UNK N   1      27.457  18.317   9.292  0.00  0.00    -0.776 OA
HETATM   39  H   UNK N   1      26.843  18.681   9.899  0.00  0.00     0.167 HD
ENDBRANCH  36  38
ENDBRANCH  35  36
ENDBRANCH  34  35
ENDBRANCH  18  34
BRANCH  27  40
HETATM   40  O   UNK N   1      29.416  16.782   3.020  0.00  0.00    -0.776 OA
HETATM   41  H   UNK N   1      29.538  17.540   2.482  0.00  0.00     0.167 HD
ENDBRANCH  27  40
BRANCH  16  42
HETATM   42  C   UNK N   1      31.475  12.150   3.110  0.00  0.00     0.004 C 
HETATM   43  C   UNK N   1      32.237  12.571   2.108  0.00  0.00     0.012 C 
ENDBRANCH  16  42
BRANCH  15  44
HETATM   44  C   UNK N   1      24.359  12.121   0.636  0.00  0.00     0.004 C 
HETATM   45  C   UNK N   1      23.615  11.954  -0.439  0.00  0.00     0.012 C 
ENDBRANCH  15  44
TORSDOF 7
ENDMDL
MODEL 6
REMARK VINA RESULT:      -7.7      2.245      6.764
REMARK  7 active torsions:
REMARK  status: ('A' for Active; 'I' for Inactive)
REMARK    1  A    between atoms: C_21  and  C_7 
REMARK    2  A    between atoms: C_22  and  C_8 
REMARK    3  A    between atoms: C_12  and  C_10 
REMARK    4  A    between atoms: C_24  and  C_10 
REMARK    5  A    between atoms: C_34  and  C_12 
REMARK    6  A    between atoms: O_40  and  C_33 
REMARK    7  A    between atoms: O_42  and  C_34 
ROOT
HETATM    1  C   UNK N   1      28.283  18.292   6.688  0.00  0.00     0.052 C 
HETATM    2  C   UNK N   1      34.857  16.289  10.520  0.00  0.00     0.052 C 
HETATM    3  C   UNK N   1      31.663  17.545   3.682  0.00  0.00     0.046 C 
HETATM    4  C   UNK N   1      36.586  10.776   5.163  0.00  0.00     0.046 C 
HETATM    5  C   UNK N   1      33.813  15.270   3.459  0.00  0.00     0.051 C 
HETATM    6  C   UNK N   1      33.951  14.999   5.070  0.00  0.00     0.114 A 
HETATM    7  C   UNK N   1      29.414  15.914   4.708  0.00  0.00     0.031 C 
HETATM    8  C   UNK N   1      32.650  16.661   8.433  0.00  0.00     0.064 C 
HETATM    9  C   UNK N   1      35.509  13.366   6.513  0.00  0.00     0.064 A 
HETATM   10  C   UNK N   1      32.282  12.613   2.888  0.00  0.00     0.053 C 
HETATM   11  C   UNK N   1      29.529  17.498   6.799  0.00  0.00    -0.021 A 
HETATM   12  C   UNK N   1      34.791  15.752   9.138  0.00  0.00    -0.021 A 
HETATM   13  C   UNK N   1      31.413  16.101   3.405  0.00  0.00    -0.053 C 
HETATM   14  C   UNK N   1      35.435  11.550   4.612  0.00  0.00    -0.045 C 
HETATM   15  C   UNK N   1      30.482  17.597   7.813  0.00  0.00     0.000 A 
HETATM   16  C   UNK N   1      35.633  14.780   8.553  0.00  0.00     0.000 A 
HETATM   17  C   UNK N   1      32.385  15.120   3.061  0.00  0.00    -0.031 C 
HETATM   18  C   UNK N   1      34.777  11.450   3.375  0.00  0.00     0.069 C 
HETATM   19  C   UNK N   1      29.975  16.494   5.929  0.00  0.00     0.062 A 
HETATM   20  C   UNK N   1      30.286  15.399   3.806  0.00  0.00     0.135 C 
HETATM   21  C   UNK N   1      33.740  15.971   8.265  0.00  0.00     0.066 A 
HETATM   22  C   UNK N   1      34.933  12.627   5.188  0.00  0.00     0.062 A 
HETATM   23  C   UNK N   1      31.465  16.725   7.501  0.00  0.00     0.070 A 
HETATM   24  C   UNK N   1      35.064  14.458   7.357  0.00  0.00     0.070 A 
HETATM   25  C   UNK N   1      31.730  13.901   3.042  0.00  0.00     0.035 C 
HETATM   26  C   UNK N   1      33.589  12.250   3.476  0.00  0.00     0.045 C 
HETATM   27  C   UNK N   1      32.868  13.356   6.523  0.00  0.00     0.139 A 
HETATM   28 Co   UNK N   1      32.188  14.668   5.464  0.00  0.00     0.000 Co
HETATM   29  N   UNK N   1      31.144  16.041   6.347  0.00  0.00    -0.248 N 
HETATM   30  N   UNK N   1      33.870  15.206   7.245  0.00  0.00    -0.248 N 
HETATM   31  N   UNK N   1      30.814  14.196   3.973  0.00  0.00    -0.197 NA
HETATM   32  N   UNK N   1      33.729  12.914   4.519  0.00  0.00    -0.253 N 
HETATM   33  O   UNK N   1      32.027  13.754   7.333  0.00  0.00    -0.650 OA
ENDROOT
BRANCH  18  34
HETATM   34  C   UNK N   1      35.820  11.908   2.401  0.00  0.00     0.025 C 
BRANCH  34  35
HETATM   35  C   UNK N   1      35.426  12.314   1.047  0.00  0.00     0.111 C 
BRANCH  35  36
HETATM   36  C   UNK N   1      36.032  13.633   0.827  0.00  0.00     0.139 C 
HETATM   37  O   UNK N   1      35.360  14.580   0.440  0.00  0.00    -0.650 OA
BRANCH  36  38
HETATM   38  O   UNK N   1      37.311  13.807   1.171  0.00  0.00    -0.776 OA
HETATM   39  H   UNK N   1      37.690  14.538   1.619  0.00  0.00     0.167 HD
ENDBRANCH  36  38
ENDBRANCH  35  36
ENDBRANCH  34  35
ENDBRANCH  18  34
BRANCH  27  40
HETATM   40  O   UNK N   1      32.926  11.991   6.475  0.00  0.00    -0.776 OA
HETATM   41  H   UNK N   1      32.323  11.276   6.536  0.00  0.00     0.167 HD
ENDBRANCH  27  40
BRANCH  16  42
HETATM   42  C   UNK N   1      36.740  14.009   9.135  0.00  0.00     0.004 C 
HETATM   43  C   UNK N   1      36.522  13.064  10.041  0.00  0.00     0.012 C 
ENDBRANCH  16  42
BRANCH  15  44
HETATM   44  C   UNK N   1      30.610  18.388   9.065  0.00  0.00     0.004 C 
HETATM   45  C   UNK N   1      29.664  18.610   9.955  0.00  0.00     0.012 C 
ENDBRANCH  15  44
TORSDOF 7
ENDMDL
MODEL 7
REMARK VINA RESULT:      -7.5      6.560     10.050
REMARK  7 active torsions:
REMARK  status: ('A' for Active; 'I' for Inactive)
REMARK    1  A    between atoms: C_21  and  C_7 
REMARK    2  A    between atoms: C_22  and  C_8 
REMARK    3  A    between atoms: C_12  and  C_10 
REMARK    4  A    between atoms: C_24  and  C_10 
REMARK    5  A    between atoms: C_34  and  C_12 
REMARK    6  A    between atoms: O_40  and  C_33 
REMARK    7  A    between atoms: O_42  and  C_34 
ROOT
HETATM    1  C   UNK N   1      30.360  10.888   3.066  0.00  0.00     0.052 C 
HETATM    2  C   UNK N   1      23.330  10.749  -0.465  0.00  0.00     0.052 C 
HETATM    3  C   UNK N   1      28.961  15.173   2.230  0.00  0.00     0.046 C 
HETATM    4  C   UNK N   1      20.783  16.840   3.835  0.00  0.00     0.046 C 
HETATM    5  C   UNK N   1      26.195  16.597   2.632  0.00  0.00     0.051 C 
HETATM    6  C   UNK N   1      25.272  15.268   2.362  0.00  0.00     0.114 A 
HETATM    7  C   UNK N   1      28.883  13.401   4.601  0.00  0.00     0.031 C 
HETATM    8  C   UNK N   1      25.819  11.533   1.136  0.00  0.00     0.064 C 
HETATM    9  C   UNK N   1      22.622  14.884   2.259  0.00  0.00     0.064 A 
HETATM   10  C   UNK N   1      25.637  16.669   5.701  0.00  0.00     0.053 C 
HETATM   11  C   UNK N   1      29.005  11.446   2.852  0.00  0.00    -0.021 A 
HETATM   12  C   UNK N   1      23.580  11.992   0.305  0.00  0.00    -0.021 A 
HETATM   13  C   UNK N   1      28.278  15.451   3.526  0.00  0.00    -0.053 C 
HETATM   14  C   UNK N   1      22.244  16.714   4.110  0.00  0.00    -0.045 C 
HETATM   15  C   UNK N   1      28.056  10.982   1.940  0.00  0.00     0.000 A 
HETATM   16  C   UNK N   1      22.646  12.998   0.642  0.00  0.00     0.000 A 
HETATM   17  C   UNK N   1      27.157  16.304   3.731  0.00  0.00    -0.031 C 
HETATM   18  C   UNK N   1      23.097  17.512   4.891  0.00  0.00     0.069 C 
HETATM   19  C   UNK N   1      28.415  12.523   3.528  0.00  0.00     0.062 A 
HETATM   20  C   UNK N   1      28.362  14.651   4.655  0.00  0.00     0.135 C 
HETATM   21  C   UNK N   1      24.744  12.255   1.008  0.00  0.00     0.066 A 
HETATM   22  C   UNK N   1      23.037  15.863   3.484  0.00  0.00     0.062 A 
HETATM   23  C   UNK N   1      26.987  11.800   2.050  0.00  0.00     0.070 A 
HETATM   24  C   UNK N   1      23.280  13.822   1.522  0.00  0.00     0.070 A 
HETATM   25  C   UNK N   1      26.773  16.146   5.050  0.00  0.00     0.035 C 
HETATM   26  C   UNK N   1      24.334  16.792   5.013  0.00  0.00     0.045 C 
HETATM   27  C   UNK N   1      24.277  13.659   3.913  0.00  0.00     0.139 A 
HETATM   28 Co   UNK N   1      26.004  14.143   3.616  0.00  0.00     0.000 Co
HETATM   29  N   UNK N   1      27.209  12.741   3.035  0.00  0.00    -0.248 N 
HETATM   30  N   UNK N   1      24.572  13.293   1.739  0.00  0.00    -0.248 N 
HETATM   31  N   UNK N   1      27.166  14.873   5.180  0.00  0.00    -0.197 NA
HETATM   32  N   UNK N   1      24.259  15.868   4.183  0.00  0.00    -0.253 N 
HETATM   33  O   UNK N   1      24.739  12.517   3.949  0.00  0.00    -0.650 OA
ENDROOT
BRANCH  18  34
HETATM   34  C   UNK N   1      23.140  18.804   4.132  0.00  0.00     0.025 C 
BRANCH  34  35
HETATM   35  C   UNK N   1      24.428  19.459   3.875  0.00  0.00     0.111 C 
BRANCH  35  36
HETATM   36  C   UNK N   1      24.153  20.528   2.907  0.00  0.00     0.139 C 
HETATM   37  O   UNK N   1      23.099  21.150   2.937  0.00  0.00    -0.650 OA
BRANCH  36  38
HETATM   38  O   UNK N   1      25.126  20.884   2.065  0.00  0.00    -0.776 OA
HETATM   39  H   UNK N   1      26.044  20.714   2.145  0.00  0.00     0.167 HD
ENDBRANCH  36  38
ENDBRANCH  35  36
ENDBRANCH  34  35
ENDBRANCH  18  34
BRANCH  27  40
HETATM   40  O   UNK N   1      23.358  13.870   4.903  0.00  0.00    -0.776 OA
HETATM   41  H   UNK N   1      23.366  14.137   5.802  0.00  0.00     0.167 HD
ENDBRANCH  27  40
BRANCH  16  42
HETATM   42  C   UNK N   1      21.202  13.075   0.385  0.00  0.00     0.004 C 
HETATM   43  C   UNK N   1      20.349  12.248   0.978  0.00  0.00     0.012 C 
ENDBRANCH  16  42
BRANCH  15  44
HETATM   44  C   UNK N   1      27.988   9.855   0.974  0.00  0.00     0.004 C 
HETATM   45  C   UNK N   1      28.084   8.571   1.254  0.00  0.00     0.012 C 
ENDBRANCH  15  44
TORSDOF 7
ENDMDL
MODEL 8
REMARK VINA RESULT:      -7.4     13.514     16.066
REMARK  7 active torsions:
REMARK  status: ('A' for Active; 'I' for Inactive)
REMARK    1  A    between atoms: C_21  and  C_7 
REMARK    2  A    between atoms: C_22  and  C_8 
REMARK    3  A    between atoms: C_12  and  C_10 
REMARK    4  A    between atoms: C_24  and  C_10 
REMARK    5  A    between atoms: C_34  and  C_12 
REMARK    6  A    between atoms: O_40  and  C_33 
REMARK    7  A    between atoms: O_42  and  C_34 
ROOT
HETATM    1  C   UNK N   1      32.586  19.813  -4.930  0.00  0.00     0.052 C 
HETATM    2  C   UNK N   1      35.961  26.899  -5.479  0.00  0.00     0.052 C 
HETATM    3  C   UNK N   1      29.974  22.941  -2.829  0.00  0.00     0.046 C 
HETATM    4  C   UNK N   1      29.020  30.364  -6.857  0.00  0.00     0.046 C 
HETATM    5  C   UNK N   1      29.066  25.825  -3.665  0.00  0.00     0.051 C 
HETATM    6  C   UNK N   1      30.414  26.192  -4.523  0.00  0.00     0.114 A 
HETATM    7  C   UNK N   1      29.936  21.682  -5.508  0.00  0.00     0.031 C 
HETATM    8  C   UNK N   1      33.982  24.584  -5.188  0.00  0.00     0.064 C 
HETATM    9  C   UNK N   1      31.202  28.405  -5.814  0.00  0.00     0.064 A 
HETATM   10  C   UNK N   1      27.244  25.520  -6.179  0.00  0.00     0.053 C 
HETATM   11  C   UNK N   1      32.498  21.282  -5.099  0.00  0.00    -0.021 A 
HETATM   12  C   UNK N   1      34.485  26.957  -5.336  0.00  0.00    -0.021 A 
HETATM   13  C   UNK N   1      29.084  23.303  -3.968  0.00  0.00    -0.053 C 
HETATM   14  C   UNK N   1      28.716  28.953  -6.474  0.00  0.00    -0.045 C 
HETATM   15  C   UNK N   1      33.564  22.182  -5.065  0.00  0.00     0.000 A 
HETATM   16  C   UNK N   1      33.648  28.081  -5.513  0.00  0.00     0.000 A 
HETATM   17  C   UNK N   1      28.475  24.568  -4.203  0.00  0.00    -0.031 C 
HETATM   18  C   UNK N   1      27.485  28.304  -6.290  0.00  0.00     0.069 C 
HETATM   19  C   UNK N   1      31.344  22.040  -5.342  0.00  0.00     0.062 A 
HETATM   20  C   UNK N   1      29.011  22.614  -5.169  0.00  0.00     0.135 C 
HETATM   21  C   UNK N   1      33.668  25.846  -5.218  0.00  0.00     0.066 A 
HETATM   22  C   UNK N   1      29.631  28.091  -6.068  0.00  0.00     0.062 A 
HETATM   23  C   UNK N   1      33.032  23.413  -5.222  0.00  0.00     0.070 A 
HETATM   24  C   UNK N   1      32.370  27.609  -5.488  0.00  0.00     0.070 A 
HETATM   25  C   UNK N   1      27.862  24.490  -5.441  0.00  0.00     0.035 C 
HETATM   26  C   UNK N   1      27.774  26.901  -6.183  0.00  0.00     0.045 C 
HETATM   27  C   UNK N   1      30.892  26.025  -6.917  0.00  0.00     0.139 A 
HETATM   28 Co   UNK N   1      30.416  24.772  -5.688  0.00  0.00     0.000 Co
HETATM   29  N   UNK N   1      31.667  23.320  -5.402  0.00  0.00    -0.248 N 
HETATM   30  N   UNK N   1      32.444  26.206  -5.334  0.00  0.00    -0.248 N 
HETATM   31  N   UNK N   1      28.714  23.612  -5.987  0.00  0.00    -0.197 NA
HETATM   32  N   UNK N   1      29.008  26.829  -6.046  0.00  0.00    -0.253 N 
HETATM   33  O   UNK N   1      31.687  25.163  -7.297  0.00  0.00    -0.650 OA
ENDROOT
BRANCH  18  34
HETATM   34  C   UNK N   1      26.929  28.974  -5.070  0.00  0.00     0.025 C 
BRANCH  34  35
HETATM   35  C   UNK N   1      25.764  28.399  -4.387  0.00  0.00     0.111 C 
BRANCH  35  36
HETATM   36  C   UNK N   1      26.225  28.027  -3.044  0.00  0.00     0.139 C 
HETATM   37  O   UNK N   1      25.938  26.941  -2.556  0.00  0.00    -0.650 OA
BRANCH  36  38
HETATM   38  O   UNK N   1      27.060  28.854  -2.410  0.00  0.00    -0.776 OA
HETATM   39  H   UNK N   1      27.997  28.820  -2.393  0.00  0.00     0.167 HD
ENDBRANCH  36  38
ENDBRANCH  35  36
ENDBRANCH  34  35
ENDBRANCH  18  34
BRANCH  27  40
HETATM   40  O   UNK N   1      30.276  26.650  -7.965  0.00  0.00    -0.776 OA
HETATM   41  H   UNK N   1      30.511  26.943  -8.824  0.00  0.00     0.167 HD
ENDBRANCH  27  40
BRANCH  16  42
HETATM   42  C   UNK N   1      33.976  29.453  -5.926  0.00  0.00     0.004 C 
HETATM   43  C   UNK N   1      34.369  30.365  -5.045  0.00  0.00     0.012 C 
ENDBRANCH  16  42
BRANCH  15  44
HETATM   44  C   UNK N   1      35.039  22.062  -4.922  0.00  0.00     0.004 C 
HETATM   45  C   UNK N   1      35.687  21.302  -4.063  0.00  0.00     0.012 C 
ENDBRANCH  15  44
TORSDOF 7
ENDMDL
MODEL 9
REMARK VINA RESULT:      -7.4      3.684      5.421
REMARK  7 active torsions:
REMARK  status: ('A' for Active; 'I' for Inactive)
REMARK    1  A    between atoms: C_21  and  C_7 
REMARK    2  A    between atoms: C_22  and  C_8 
REMARK    3  A    between atoms: C_12  and  C_10 
REMARK    4  A    between atoms: C_24  and  C_10 
REMARK    5  A    between atoms: C_34  and  C_12 
REMARK    6  A    between atoms: O_40  and  C_33 
REMARK    7  A    between atoms: O_42  and  C_34 
ROOT
HETATM    1  C   UNK N   1      34.280  11.993   3.042  0.00  0.00     0.052 C 
HETATM    2  C   UNK N   1      32.217  17.336   8.438  0.00  0.00     0.052 C 
HETATM    3  C   UNK N   1      29.879  11.416   4.191  0.00  0.00     0.046 C 
HETATM    4  C   UNK N   1      25.236  18.492   4.972  0.00  0.00     0.046 C 
HETATM    5  C   UNK N   1      27.524  13.452   4.579  0.00  0.00     0.051 C 
HETATM    6  C   UNK N   1      28.451  14.693   5.118  0.00  0.00     0.114 A 
HETATM    7  C   UNK N   1      31.270  12.784   1.963  0.00  0.00     0.031 C 
HETATM    8  C   UNK N   1      32.232  15.266   6.183  0.00  0.00     0.064 C 
HETATM    9  C   UNK N   1      27.863  17.161   5.979  0.00  0.00     0.064 A 
HETATM   10  C   UNK N   1      26.963  14.748   1.797  0.00  0.00     0.053 C 
HETATM   11  C   UNK N   1      33.294  12.931   3.628  0.00  0.00    -0.021 A 
HETATM   12  C   UNK N   1      31.079  16.859   7.613  0.00  0.00    -0.021 A 
HETATM   13  C   UNK N   1      29.251  12.269   3.141  0.00  0.00    -0.053 C 
HETATM   14  C   UNK N   1      25.852  17.315   4.291  0.00  0.00    -0.045 C 
HETATM   15  C   UNK N   1      33.471  13.701   4.779  0.00  0.00     0.000 A 
HETATM   16  C   UNK N   1      29.778  17.405   7.545  0.00  0.00     0.000 A 
HETATM   17  C   UNK N   1      28.037  13.002   3.255  0.00  0.00    -0.031 C 
HETATM   18  C   UNK N   1      25.345  16.472   3.290  0.00  0.00     0.069 C 
HETATM   19  C   UNK N   1      32.018  13.237   3.136  0.00  0.00     0.062 A 
HETATM   20  C   UNK N   1      29.916  12.797   2.045  0.00  0.00     0.135 C 
HETATM   21  C   UNK N   1      31.187  15.918   6.603  0.00  0.00     0.066 A 
HETATM   22  C   UNK N   1      26.987  16.759   4.675  0.00  0.00     0.062 A 
HETATM   23  C   UNK N   1      32.316  14.375   4.969  0.00  0.00     0.070 A 
HETATM   24  C   UNK N   1      29.156  16.773   6.510  0.00  0.00     0.070 A 
HETATM   25  C   UNK N   1      27.920  13.758   2.103  0.00  0.00     0.035 C 
HETATM   26  C   UNK N   1      26.446  15.674   2.828  0.00  0.00     0.045 C 
HETATM   27  C   UNK N   1      29.438  16.594   3.936  0.00  0.00     0.139 A 
HETATM   28 Co   UNK N   1      29.639  14.800   3.722  0.00  0.00     0.000 Co
HETATM   29  N   UNK N   1      31.429  14.094   3.951  0.00  0.00    -0.248 N 
HETATM   30  N   UNK N   1      30.092  15.881   5.940  0.00  0.00    -0.248 N 
HETATM   31  N   UNK N   1      29.231  13.918   1.881  0.00  0.00    -0.197 NA
HETATM   32  N   UNK N   1      27.356  15.860   3.656  0.00  0.00    -0.253 N 
HETATM   33  O   UNK N   1      30.662  16.618   3.784  0.00  0.00    -0.650 OA
ENDROOT
BRANCH  18  34
HETATM   34  C   UNK N   1      24.233  15.749   3.988  0.00  0.00     0.025 C 
BRANCH  34  35
HETATM   35  C   UNK N   1      23.695  14.508   3.418  0.00  0.00     0.111 C 
BRANCH  35  36
HETATM   36  C   UNK N   1      22.819  14.918   2.313  0.00  0.00     0.139 C 
HETATM   37  O   UNK N   1      21.862  15.657   2.508  0.00  0.00    -0.650 OA
BRANCH  36  38
HETATM   38  O   UNK N   1      23.155  14.558   1.072  0.00  0.00    -0.776 OA
HETATM   39  H   UNK N   1      22.616  14.135   0.432  0.00  0.00     0.167 HD
ENDBRANCH  36  38
ENDBRANCH  35  36
ENDBRANCH  34  35
ENDBRANCH  18  34
BRANCH  27  40
HETATM   40  O   UNK N   1      28.817  17.598   3.247  0.00  0.00    -0.776 OA
HETATM   41  H   UNK N   1      27.989  18.036   3.270  0.00  0.00     0.167 HD
ENDBRANCH  27  40
BRANCH  16  42
HETATM   42  C   UNK N   1      29.211  18.590   8.203  0.00  0.00     0.004 C 
HETATM   43  C   UNK N   1      28.858  18.568   9.483  0.00  0.00     0.012 C 
ENDBRANCH  16  42
BRANCH  15  44
HETATM   44  C   UNK N   1      34.585  13.920   5.739  0.00  0.00     0.004 C 
HETATM   45  C   UNK N   1      35.756  14.461   5.474  0.00  0.00     0.012 C 
ENDBRANCH  15  44
TORSDOF 7
ENDMDL
