MODEL 1
REMARK VINA RESULT:      -7.1      0.000      0.000
REMARK  8 active torsions:
REMARK  status: ('A' for Active; 'I' for Inactive)
REMARK    1  A    between atoms: C_22  and  O_39 
REMARK    2  A    between atoms: C_23  and  O_40 
REMARK    3  A    between atoms: C_24  and  O_35 
REMARK    4  A    between atoms: C_26  and  O_42 
REMARK    5  A    between atoms: O_41  and  C_27 
REMARK    6  A    between atoms: O_37  and  C_28 
REMARK    7  A    between atoms: O_38  and  C_29 
REMARK    8  A    between atoms: O_42  and  C_29 
ROOT
HETATM    1  C   UNK N   1      24.605  19.701   3.351  0.00  0.00     0.010 C 
HETATM    2  C   UNK N   1      19.381  12.023   0.375  0.00  0.00     0.052 C 
HETATM    3  C   UNK N   1      26.655  14.279   4.400  0.00  0.00     0.017 C 
HETATM    4  C   UNK N   1      24.246  13.753   0.386  0.00  0.00     0.046 C 
HETATM    5  C   UNK N   1      22.277  11.292   0.660  0.00  0.00    -0.001 C 
HETATM    6  C   UNK N   1      21.551  12.193   1.587  0.00  0.00     0.011 C 
HETATM    7  C   UNK N   1      23.573  10.933   0.852  0.00  0.00     0.008 C 
HETATM    8  C   UNK N   1      23.334  18.214   4.963  0.00  0.00     0.050 C 
HETATM    9  C   UNK N   1      25.808  18.127   4.888  0.00  0.00     0.039 C 
HETATM   10  C   UNK N   1      25.152  14.882   2.323  0.00  0.00    -0.015 C 
HETATM   11  C   UNK N   1      19.820  16.651   2.792  0.00  0.00     0.091 A 
HETATM   12  C   UNK N   1      24.551  18.347   4.032  0.00  0.00    -0.012 C 
HETATM   13  C   UNK N   1      20.270  12.595   1.439  0.00  0.00    -0.011 C 
HETATM   14  C   UNK N   1      25.924  15.324   3.577  0.00  0.00     0.035 C 
HETATM   15  C   UNK N   1      24.963  13.688   1.701  0.00  0.00    -0.055 C 
HETATM   16  C   UNK N   1      22.072  17.759   4.252  0.00  0.00     0.032 A 
HETATM   17  C   UNK N   1      20.684  15.782   3.322  0.00  0.00     0.089 A 
HETATM   18  C   UNK N   1      19.982  18.097   2.999  0.00  0.00     0.208 A 
HETATM   19  C   UNK N   1      24.389  11.193   2.143  0.00  0.00     0.177 C 
HETATM   20  C   UNK N   1      27.106  17.650   4.169  0.00  0.00     0.150 C 
HETATM   21  C   UNK N   1      26.877  16.496   3.147  0.00  0.00     0.154 C 
HETATM   22  C   UNK N   1      21.849  16.287   4.097  0.00  0.00     0.207 A 
HETATM   23  C   UNK N   1      25.475  12.333   2.161  0.00  0.00     0.193 C 
HETATM   24  C   UNK N   1      21.159  18.631   3.736  0.00  0.00     0.128 A 
HETATM   25  C   UNK N   1      19.811  13.786   2.208  0.00  0.00     0.146 C 
HETATM   26  N   UNK N   1      20.709  14.429   2.893  0.00  0.00    -0.333 N 
ATOM     27  HN  UNK N   1      21.536  13.894   3.155  1.00  0.00     0.168 HD
HETATM   28  O   UNK N   1      19.173  18.862   2.504  0.00  0.00    -0.285 OA
HETATM   29  O   UNK N   1      22.641  15.491   4.573  0.00  0.00    -0.285 OA
ENDROOT
BRANCH  23  30
HETATM   30  O   UNK N   1      26.587  12.021   1.400  0.00  0.00    -0.304 OA
BRANCH  30  31
HETATM   31  C   UNK N   1      27.866  12.237   1.819  0.00  0.00     0.256 C 
HETATM   32  N   UNK N   1      28.451  11.356   2.539  0.00  0.00    -0.359 N 
HETATM   33  H   UNK N   1      29.185  10.724   2.364  0.00  0.00     0.160 HD
ATOM     34  HN  UNK N   1      28.083  11.298   3.488  1.00  0.00     0.160 HD
BRANCH  31  35
HETATM   35  O   UNK N   1      28.530  13.366   1.489  0.00  0.00    -0.327 OA
HETATM   36  H   UNK N   1      29.201  13.780   0.983  0.00  0.00     0.221 HD
ENDBRANCH  31  35
ENDBRANCH  30  31
ENDBRANCH  23  30
BRANCH  19  37
HETATM   37  O   UNK N   1      24.906   9.975   2.654  0.00  0.00    -0.384 OA
HETATM   38  C   UNK N   1      25.226  10.106   4.018  0.00  0.00     0.202 C 
ENDBRANCH  19  37
BRANCH  21  39
HETATM   39  O   UNK N   1      28.092  16.008   2.652  0.00  0.00    -0.392 OA
HETATM   40  H   UNK N   1      28.932  16.116   3.125  0.00  0.00     0.210 HD
ENDBRANCH  21  39
BRANCH  20  41
HETATM   41  O   UNK N   1      28.173  17.397   5.067  0.00  0.00    -0.388 OA
HETATM   42  C   UNK N   1      27.710  17.317   6.387  0.00  0.00     0.202 C 
ENDBRANCH  20  41
BRANCH  25  43
HETATM   43  O   UNK N   1      18.583  14.300   2.000  0.00  0.00    -0.346 OA
HETATM   44  H   UNK N   1      18.355  14.683   1.176  0.00  0.00     0.219 HD
ENDBRANCH  25  43
BRANCH  24  45
HETATM   45  O   UNK N   1      21.250  19.990   3.838  0.00  0.00    -0.351 OA
HETATM   46  C   UNK N   1      21.385  20.882   2.801  0.00  0.00     0.210 C 
ENDBRANCH  24  45
TORSDOF 8
ENDMDL
MODEL 2
REMARK VINA RESULT:      -7.0      2.399      4.040
REMARK  8 active torsions:
REMARK  status: ('A' for Active; 'I' for Inactive)
REMARK    1  A    between atoms: C_22  and  O_39 
REMARK    2  A    between atoms: C_23  and  O_40 
REMARK    3  A    between atoms: C_24  and  O_35 
REMARK    4  A    between atoms: C_26  and  O_42 
REMARK    5  A    between atoms: O_41  and  C_27 
REMARK    6  A    between atoms: O_37  and  C_28 
REMARK    7  A    between atoms: O_38  and  C_29 
REMARK    8  A    between atoms: O_42  and  C_29 
ROOT
HETATM    1  C   UNK N   1      23.842  20.187   3.063  0.00  0.00     0.010 C 
HETATM    2  C   UNK N   1      25.333  10.787   0.943  0.00  0.00     0.052 C 
HETATM    3  C   UNK N   1      28.087  17.262   5.911  0.00  0.00     0.017 C 
HETATM    4  C   UNK N   1      27.979  15.155   1.699  0.00  0.00     0.046 C 
HETATM    5  C   UNK N   1      27.810  12.022   2.098  0.00  0.00    -0.001 C 
HETATM    6  C   UNK N   1      26.435  12.324   2.563  0.00  0.00     0.011 C 
HETATM    7  C   UNK N   1      28.916  12.553   2.683  0.00  0.00     0.008 C 
HETATM    8  C   UNK N   1      23.178  18.317   4.639  0.00  0.00     0.050 C 
HETATM    9  C   UNK N   1      25.100  19.776   5.191  0.00  0.00     0.039 C 
HETATM   10  C   UNK N   1      27.342  16.698   3.449  0.00  0.00    -0.015 C 
HETATM   11  C   UNK N   1      22.195  14.806   2.146  0.00  0.00     0.091 A 
HETATM   12  C   UNK N   1      24.334  19.127   4.029  0.00  0.00    -0.012 C 
HETATM   13  C   UNK N   1      25.303  11.838   2.011  0.00  0.00    -0.011 C 
HETATM   14  C   UNK N   1      27.233  17.586   4.700  0.00  0.00     0.035 C 
HETATM   15  C   UNK N   1      28.095  15.615   3.122  0.00  0.00    -0.055 C 
HETATM   16  C   UNK N   1      22.741  17.143   3.781  0.00  0.00     0.032 A 
HETATM   17  C   UNK N   1      23.149  14.687   3.071  0.00  0.00     0.089 A 
HETATM   18  C   UNK N   1      21.422  16.050   2.014  0.00  0.00     0.208 A 
HETATM   19  C   UNK N   1      28.930  13.327   4.026  0.00  0.00     0.177 C 
HETATM   20  C   UNK N   1      26.589  20.170   4.954  0.00  0.00     0.150 C 
HETATM   21  C   UNK N   1      27.428  19.073   4.232  0.00  0.00     0.154 C 
HETATM   22  C   UNK N   1      23.463  15.843   3.953  0.00  0.00     0.207 A 
HETATM   23  C   UNK N   1      29.087  14.893   4.019  0.00  0.00     0.193 C 
HETATM   24  C   UNK N   1      21.743  17.234   2.855  0.00  0.00     0.128 A 
HETATM   25  C   UNK N   1      24.017  12.526   2.319  0.00  0.00     0.146 C 
HETATM   26  N   UNK N   1      24.085  13.620   3.017  0.00  0.00    -0.333 N 
ATOM     27  HN  UNK N   1      24.916  13.727   3.599  1.00  0.00     0.168 HD
HETATM   28  O   UNK N   1      20.556  16.124   1.161  0.00  0.00    -0.285 OA
HETATM   29  O   UNK N   1      24.342  15.734   4.792  0.00  0.00    -0.285 OA
ENDROOT
BRANCH  23  30
HETATM   30  O   UNK N   1      30.358  15.298   3.655  0.00  0.00    -0.304 OA
BRANCH  30  31
HETATM   31  C   UNK N   1      31.035  16.299   4.288  0.00  0.00     0.256 C 
HETATM   32  N   UNK N   1      31.695  16.038   5.352  0.00  0.00    -0.359 N 
HETATM   33  H   UNK N   1      32.657  15.989   5.552  0.00  0.00     0.160 HD
ATOM     34  HN  UNK N   1      31.103  15.843   6.159  1.00  0.00     0.160 HD
BRANCH  31  35
HETATM   35  O   UNK N   1      31.023  17.563   3.812  0.00  0.00    -0.327 OA
HETATM   36  H   UNK N   1      31.479  18.261   3.385  0.00  0.00     0.221 HD
ENDBRANCH  31  35
ENDBRANCH  30  31
ENDBRANCH  23  30
BRANCH  19  37
HETATM   37  O   UNK N   1      29.830  12.718   4.938  0.00  0.00    -0.384 OA
HETATM   38  C   UNK N   1      30.755  11.907   4.254  0.00  0.00     0.202 C 
ENDBRANCH  19  37
BRANCH  21  39
HETATM   39  O   UNK N   1      28.784  19.418   4.187  0.00  0.00    -0.392 OA
HETATM   40  H   UNK N   1      29.485  18.834   4.517  0.00  0.00     0.210 HD
ENDBRANCH  21  39
BRANCH  20  41
HETATM   41  O   UNK N   1      27.218  20.678   6.119  0.00  0.00    -0.388 OA
HETATM   42  C   UNK N   1      26.312  21.405   6.902  0.00  0.00     0.202 C 
ENDBRANCH  20  41
BRANCH  25  43
HETATM   43  O   UNK N   1      22.881  12.158   1.696  0.00  0.00    -0.346 OA
HETATM   44  H   UNK N   1      22.467  12.724   1.074  0.00  0.00     0.219 HD
ENDBRANCH  25  43
BRANCH  24  45
HETATM   45  O   UNK N   1      21.004  18.361   2.631  0.00  0.00    -0.351 OA
HETATM   46  C   UNK N   1      19.795  18.675   3.206  0.00  0.00     0.210 C 
ENDBRANCH  24  45
TORSDOF 8
ENDMDL
MODEL 3
REMARK VINA RESULT:      -6.8      4.962      8.823
REMARK  8 active torsions:
REMARK  status: ('A' for Active; 'I' for Inactive)
REMARK    1  A    between atoms: C_22  and  O_39 
REMARK    2  A    between atoms: C_23  and  O_40 
REMARK    3  A    between atoms: C_24  and  O_35 
REMARK    4  A    between atoms: C_26  and  O_42 
REMARK    5  A    between atoms: O_41  and  C_27 
REMARK    6  A    between atoms: O_37  and  C_28 
REMARK    7  A    between atoms: O_38  and  C_29 
REMARK    8  A    between atoms: O_42  and  C_29 
ROOT
HETATM    1  C   UNK N   1      27.277  18.486   5.954  0.00  0.00     0.010 C 
HETATM    2  C   UNK N   1      33.009  12.540   0.770  0.00  0.00     0.052 C 
HETATM    3  C   UNK N   1      31.717  15.726   8.668  0.00  0.00     0.017 C 
HETATM    4  C   UNK N   1      33.340  16.308   4.284  0.00  0.00     0.046 C 
HETATM    5  C   UNK N   1      34.447  13.549   3.201  0.00  0.00    -0.001 C 
HETATM    6  C   UNK N   1      33.013  13.175   3.178  0.00  0.00     0.011 C 
HETATM    7  C   UNK N   1      35.084  13.946   4.334  0.00  0.00     0.008 C 
HETATM    8  C   UNK N   1      27.178  15.963   6.182  0.00  0.00     0.050 C 
HETATM    9  C   UNK N   1      28.148  17.333   8.002  0.00  0.00     0.039 C 
HETATM   10  C   UNK N   1      31.780  16.418   6.128  0.00  0.00    -0.015 C 
HETATM   11  C   UNK N   1      28.291  14.261   2.261  0.00  0.00     0.091 A 
HETATM   12  C   UNK N   1      27.974  17.246   6.478  0.00  0.00    -0.012 C 
HETATM   13  C   UNK N   1      32.326  12.789   2.082  0.00  0.00    -0.011 C 
HETATM   14  C   UNK N   1      31.061  16.417   7.487  0.00  0.00     0.035 C 
HETATM   15  C   UNK N   1      32.969  15.931   5.687  0.00  0.00    -0.055 C 
HETATM   16  C   UNK N   1      27.460  15.378   4.809  0.00  0.00     0.032 A 
HETATM   17  C   UNK N   1      29.004  13.915   3.335  0.00  0.00     0.089 A 
HETATM   18  C   UNK N   1      27.105  15.120   2.388  0.00  0.00     0.208 A 
HETATM   19  C   UNK N   1      34.504  13.837   5.768  0.00  0.00     0.177 C 
HETATM   20  C   UNK N   1      29.342  18.169   8.554  0.00  0.00     0.150 C 
HETATM   21  C   UNK N   1      30.692  17.907   7.818  0.00  0.00     0.154 C 
HETATM   22  C   UNK N   1      28.618  14.440   4.672  0.00  0.00     0.207 A 
HETATM   23  C   UNK N   1      33.978  15.130   6.494  0.00  0.00     0.193 C 
HETATM   24  C   UNK N   1      26.719  15.691   3.706  0.00  0.00     0.128 A 
HETATM   25  C   UNK N   1      30.837  12.831   2.130  0.00  0.00     0.146 C 
HETATM   26  N   UNK N   1      30.295  13.341   3.195  0.00  0.00    -0.333 N 
ATOM     27  HN  UNK N   1      30.871  13.329   4.037  1.00  0.00     0.168 HD
HETATM   28  O   UNK N   1      26.474  15.414   1.388  0.00  0.00    -0.285 OA
HETATM   29  O   UNK N   1      29.276  14.129   5.650  0.00  0.00    -0.285 OA
ENDROOT
BRANCH  23  30
HETATM   30  O   UNK N   1      35.000  15.986   6.863  0.00  0.00    -0.304 OA
BRANCH  30  31
HETATM   31  C   UNK N   1      34.848  16.980   7.784  0.00  0.00     0.256 C 
HETATM   32  N   UNK N   1      34.905  16.698   9.030  0.00  0.00    -0.359 N 
HETATM   33  H   UNK N   1      35.570  16.882   9.733  0.00  0.00     0.160 HD
ATOM     34  HN  UNK N   1      34.095  16.177   9.366  1.00  0.00     0.160 HD
BRANCH  31  35
HETATM   35  O   UNK N   1      34.639  18.260   7.406  0.00  0.00    -0.327 OA
HETATM   36  H   UNK N   1      34.041  18.972   7.290  0.00  0.00     0.221 HD
ENDBRANCH  31  35
ENDBRANCH  30  31
ENDBRANCH  23  30
BRANCH  19  37
HETATM   37  O   UNK N   1      35.381  13.094   6.600  0.00  0.00    -0.384 OA
HETATM   38  C   UNK N   1      34.699  12.610   7.731  0.00  0.00     0.202 C 
ENDBRANCH  19  37
BRANCH  21  39
HETATM   39  O   UNK N   1      31.752  18.565   8.454  0.00  0.00    -0.392 OA
HETATM   40  H   UNK N   1      31.848  18.593   9.419  0.00  0.00     0.210 HD
ENDBRANCH  21  39
BRANCH  20  41
HETATM   41  O   UNK N   1      29.455  18.106   9.966  0.00  0.00    -0.388 OA
HETATM   42  C   UNK N   1      28.918  16.910  10.460  0.00  0.00     0.202 C 
ENDBRANCH  20  41
BRANCH  25  43
HETATM   43  O   UNK N   1      30.112  12.576   1.024  0.00  0.00    -0.346 OA
HETATM   44  H   UNK N   1      29.843  11.704   0.814  0.00  0.00     0.219 HD
ENDBRANCH  25  43
BRANCH  24  45
HETATM   45  O   UNK N   1      25.631  16.516   3.720  0.00  0.00    -0.351 OA
HETATM   46  C   UNK N   1      24.327  16.147   3.951  0.00  0.00     0.210 C 
ENDBRANCH  24  45
TORSDOF 8
ENDMDL
MODEL 4
REMARK VINA RESULT:      -6.8      2.221      6.598
REMARK  8 active torsions:
REMARK  status: ('A' for Active; 'I' for Inactive)
REMARK    1  A    between atoms: C_22  and  O_39 
REMARK    2  A    between atoms: C_23  and  O_40 
REMARK    3  A    between atoms: C_24  and  O_35 
REMARK    4  A    between atoms: C_26  and  O_42 
REMARK    5  A    between atoms: O_41  and  C_27 
REMARK    6  A    between atoms: O_37  and  C_28 
REMARK    7  A    between atoms: O_38  and  C_29 
REMARK    8  A    between atoms: O_42  and  C_29 
ROOT
HETATM    1  C   UNK N   1      25.173   9.938   2.234  0.00  0.00     0.010 C 
HETATM    2  C   UNK N   1      19.549  17.825   3.350  0.00  0.00     0.052 C 
HETATM    3  C   UNK N   1      27.704  15.256   2.300  0.00  0.00     0.017 C 
HETATM    4  C   UNK N   1      23.967  15.816   5.113  0.00  0.00     0.046 C 
HETATM    5  C   UNK N   1      22.362  18.393   4.224  0.00  0.00    -0.001 C 
HETATM    6  C   UNK N   1      22.008  17.561   3.049  0.00  0.00     0.011 C 
HETATM    7  C   UNK N   1      23.647  18.681   4.557  0.00  0.00     0.008 C 
HETATM    8  C   UNK N   1      24.683  11.537   0.331  0.00  0.00     0.050 C 
HETATM    9  C   UNK N   1      26.940  11.478   1.347  0.00  0.00     0.039 C 
HETATM   10  C   UNK N   1      25.495  14.688   3.616  0.00  0.00    -0.015 C 
HETATM   11  C   UNK N   1      20.677  13.245   1.070  0.00  0.00     0.091 A 
HETATM   12  C   UNK N   1      25.443  11.310   1.649  0.00  0.00    -0.012 C 
HETATM   13  C   UNK N   1      20.752  17.231   2.679  0.00  0.00    -0.011 C 
HETATM   14  C   UNK N   1      26.668  14.235   2.732  0.00  0.00     0.035 C 
HETATM   15  C   UNK N   1      25.135  15.873   4.174  0.00  0.00    -0.055 C 
HETATM   16  C   UNK N   1      23.266  12.047   0.528  0.00  0.00     0.032 A 
HETATM   17  C   UNK N   1      21.715  14.076   0.949  0.00  0.00     0.089 A 
HETATM   18  C   UNK N   1      20.842  11.798   0.872  0.00  0.00     0.208 A 
HETATM   19  C   UNK N   1      24.884  18.409   3.663  0.00  0.00     0.177 C 
HETATM   20  C   UNK N   1      27.883  11.860   2.527  0.00  0.00     0.150 C 
HETATM   21  C   UNK N   1      27.331  12.998   3.438  0.00  0.00     0.154 C 
HETATM   22  C   UNK N   1      23.065  13.525   0.654  0.00  0.00     0.207 A 
HETATM   23  C   UNK N   1      25.842  17.209   4.007  0.00  0.00     0.193 C 
HETATM   24  C   UNK N   1      22.187  11.216   0.616  0.00  0.00     0.128 A 
HETATM   25  C   UNK N   1      20.570  16.089   1.738  0.00  0.00     0.146 C 
HETATM   26  N   UNK N   1      21.633  15.414   1.418  0.00  0.00    -0.333 N 
ATOM     27  HN  UNK N   1      22.521  15.906   1.516  1.00  0.00     0.168 HD
HETATM   28  O   UNK N   1      19.873  11.068   0.986  0.00  0.00    -0.285 OA
HETATM   29  O   UNK N   1      24.013  14.285   0.554  0.00  0.00    -0.285 OA
ENDROOT
BRANCH  23  30
HETATM   30  O   UNK N   1      26.591  17.435   5.148  0.00  0.00    -0.304 OA
BRANCH  30  31
HETATM   31  C   UNK N   1      27.941  17.619   5.134  0.00  0.00     0.256 C 
HETATM   32  N   UNK N   1      28.445  18.533   4.394  0.00  0.00    -0.359 N 
HETATM   33  H   UNK N   1      28.869  19.399   4.590  0.00  0.00     0.160 HD
ATOM     34  HN  UNK N   1      28.400  18.319   3.398  1.00  0.00     0.160 HD
BRANCH  31  35
HETATM   35  O   UNK N   1      28.761  16.853   5.887  0.00  0.00    -0.327 OA
HETATM   36  H   UNK N   1      29.181  16.703   6.710  0.00  0.00     0.221 HD
ENDBRANCH  31  35
ENDBRANCH  30  31
ENDBRANCH  23  30
BRANCH  19  37
HETATM   37  O   UNK N   1      25.610  19.608   3.445  0.00  0.00    -0.384 OA
HETATM   38  C   UNK N   1      24.860  20.505   2.663  0.00  0.00     0.202 C 
ENDBRANCH  19  37
BRANCH  21  39
HETATM   39  O   UNK N   1      28.285  13.402   4.381  0.00  0.00    -0.392 OA
HETATM   40  H   UNK N   1      29.114  13.839   4.133  0.00  0.00     0.210 HD
ENDBRANCH  21  39
BRANCH  20  41
HETATM   41  O   UNK N   1      29.223  12.074   2.116  0.00  0.00    -0.388 OA
HETATM   42  C   UNK N   1      29.312  12.166   0.721  0.00  0.00     0.202 C 
ENDBRANCH  20  41
BRANCH  25  43
HETATM   43  O   UNK N   1      19.335  15.642   1.439  0.00  0.00    -0.346 OA
HETATM   44  H   UNK N   1      19.213  14.917   0.859  0.00  0.00     0.219 HD
ENDBRANCH  25  43
BRANCH  24  45
HETATM   45  O   UNK N   1      22.251   9.857   0.493  0.00  0.00    -0.351 OA
HETATM   46  C   UNK N   1      22.191   9.138  -0.678  0.00  0.00     0.210 C 
ENDBRANCH  24  45
TORSDOF 8
ENDMDL
MODEL 5
REMARK VINA RESULT:      -6.7      3.779      9.115
REMARK  8 active torsions:
REMARK  status: ('A' for Active; 'I' for Inactive)
REMARK    1  A    between atoms: C_22  and  O_39 
REMARK    2  A    between atoms: C_23  and  O_40 
REMARK    3  A    between atoms: C_24  and  O_35 
REMARK    4  A    between atoms: C_26  and  O_42 
REMARK    5  A    between atoms: O_41  and  C_27 
REMARK    6  A    between atoms: O_37  and  C_28 
REMARK    7  A    between atoms: O_38  and  C_29 
REMARK    8  A    between atoms: O_42  and  C_29 
ROOT
HETATM    1  C   UNK N   1      24.487  13.842   2.042  0.00  0.00     0.010 C 
HETATM    2  C   UNK N   1      34.114  14.436   3.480  0.00  0.00     0.052 C 
HETATM    3  C   UNK N   1      26.480  15.690   7.268  0.00  0.00     0.017 C 
HETATM    4  C   UNK N   1      29.804  17.166   4.274  0.00  0.00     0.046 C 
HETATM    5  C   UNK N   1      32.646  16.275   5.341  0.00  0.00    -0.001 C 
HETATM    6  C   UNK N   1      32.174  14.920   4.967  0.00  0.00     0.011 C 
HETATM    7  C   UNK N   1      31.988  17.059   6.234  0.00  0.00     0.008 C 
HETATM    8  C   UNK N   1      25.746  12.203   3.509  0.00  0.00     0.050 C 
HETATM    9  C   UNK N   1      24.240  13.878   4.536  0.00  0.00     0.039 C 
HETATM   10  C   UNK N   1      27.771  16.080   5.006  0.00  0.00    -0.015 C 
HETATM   11  C   UNK N   1      29.835  11.873   1.874  0.00  0.00     0.091 A 
HETATM   12  C   UNK N   1      25.201  13.634   3.363  0.00  0.00    -0.012 C 
HETATM   13  C   UNK N   1      32.778  14.104   4.076  0.00  0.00    -0.011 C 
HETATM   14  C   UNK N   1      26.531  15.566   5.756  0.00  0.00     0.035 C 
HETATM   15  C   UNK N   1      28.922  16.691   5.390  0.00  0.00    -0.055 C 
HETATM   16  C   UNK N   1      27.118  12.010   2.889  0.00  0.00     0.032 A 
HETATM   17  C   UNK N   1      29.683  12.253   3.144  0.00  0.00     0.089 A 
HETATM   18  C   UNK N   1      28.676  11.485   1.058  0.00  0.00     0.208 A 
HETATM   19  C   UNK N   1      30.830  16.589   7.151  0.00  0.00     0.177 C 
HETATM   20  C   UNK N   1      23.982  15.352   4.973  0.00  0.00     0.150 C 
HETATM   21  C   UNK N   1      25.274  16.217   5.077  0.00  0.00     0.154 C 
HETATM   22  C   UNK N   1      28.317  12.325   3.729  0.00  0.00     0.207 A 
HETATM   23  C   UNK N   1      29.351  17.009   6.814  0.00  0.00     0.193 C 
HETATM   24  C   UNK N   1      27.296  11.587   1.603  0.00  0.00     0.128 A 
HETATM   25  C   UNK N   1      31.993  12.968   3.515  0.00  0.00     0.146 C 
HETATM   26  N   UNK N   1      30.737  12.900   3.841  0.00  0.00    -0.333 N 
ATOM     27  HN  UNK N   1      30.475  13.372   4.707  1.00  0.00     0.168 HD
HETATM   28  O   UNK N   1      28.852  11.140  -0.098  0.00  0.00    -0.285 OA
HETATM   29  O   UNK N   1      28.179  12.681   4.887  0.00  0.00    -0.285 OA
ENDROOT
BRANCH  23  30
HETATM   30  O   UNK N   1      29.116  18.354   7.035  0.00  0.00    -0.304 OA
BRANCH  30  31
HETATM   31  C   UNK N   1      27.962  18.833   7.581  0.00  0.00     0.256 C 
HETATM   32  N   UNK N   1      27.783  18.752   8.846  0.00  0.00    -0.359 N 
HETATM   33  H   UNK N   1      27.771  19.421   9.568  0.00  0.00     0.160 HD
ATOM     34  HN  UNK N   1      27.617  17.801   9.172  1.00  0.00     0.160 HD
BRANCH  31  35
HETATM   35  O   UNK N   1      27.002  19.392   6.813  0.00  0.00    -0.327 OA
HETATM   36  H   UNK N   1      26.093  19.569   6.673  0.00  0.00     0.221 HD
ENDBRANCH  31  35
ENDBRANCH  30  31
ENDBRANCH  23  30
BRANCH  19  37
HETATM   37  O   UNK N   1      31.144  16.841   8.511  0.00  0.00    -0.384 OA
HETATM   38  C   UNK N   1      31.937  15.805   9.037  0.00  0.00     0.202 C 
ENDBRANCH  19  37
BRANCH  21  39
HETATM   39  O   UNK N   1      24.998  17.478   5.621  0.00  0.00    -0.392 OA
HETATM   40  H   UNK N   1      25.662  18.182   5.676  0.00  0.00     0.210 HD
ENDBRANCH  21  39
BRANCH  20  41
HETATM   41  O   UNK N   1      23.150  15.451   6.117  0.00  0.00    -0.388 OA
HETATM   42  C   UNK N   1      23.065  14.221   6.784  0.00  0.00     0.202 C 
ENDBRANCH  20  41
BRANCH  25  43
HETATM   43  O   UNK N   1      32.508  12.203   2.533  0.00  0.00    -0.346 OA
HETATM   44  H   UNK N   1      33.266  11.673   2.682  0.00  0.00     0.219 HD
ENDBRANCH  25  43
BRANCH  24  45
HETATM   45  O   UNK N   1      26.278  11.250   0.757  0.00  0.00    -0.351 OA
HETATM   46  C   UNK N   1      25.619  10.044   0.709  0.00  0.00     0.210 C 
ENDBRANCH  24  45
TORSDOF 8
ENDMDL
MODEL 6
REMARK VINA RESULT:      -6.7      9.709     14.862
REMARK  8 active torsions:
REMARK  status: ('A' for Active; 'I' for Inactive)
REMARK    1  A    between atoms: C_22  and  O_39 
REMARK    2  A    between atoms: C_23  and  O_40 
REMARK    3  A    between atoms: C_24  and  O_35 
REMARK    4  A    between atoms: C_26  and  O_42 
REMARK    5  A    between atoms: O_41  and  C_27 
REMARK    6  A    between atoms: O_37  and  C_28 
REMARK    7  A    between atoms: O_38  and  C_29 
REMARK    8  A    between atoms: O_42  and  C_29 
ROOT
HETATM    1  C   UNK N   1      37.765  10.978  10.782  0.00  0.00     0.010 C 
HETATM    2  C   UNK N   1      34.897  12.887   1.659  0.00  0.00     0.052 C 
HETATM    3  C   UNK N   1      35.071  16.092   9.653  0.00  0.00     0.017 C 
HETATM    4  C   UNK N   1      33.150  13.156   6.510  0.00  0.00     0.046 C 
HETATM    5  C   UNK N   1      33.282  14.466   3.634  0.00  0.00    -0.001 C 
HETATM    6  C   UNK N   1      34.736  14.205   3.767  0.00  0.00     0.011 C 
HETATM    7  C   UNK N   1      32.592  15.236   4.515  0.00  0.00     0.008 C 
HETATM    8  C   UNK N   1      38.946  12.672   9.312  0.00  0.00     0.050 C 
HETATM    9  C   UNK N   1      37.571  13.437  11.223  0.00  0.00     0.039 C 
HETATM   10  C   UNK N   1      34.597  13.879   8.307  0.00  0.00    -0.015 C 
HETATM   11  C   UNK N   1      38.486  11.311   5.136  0.00  0.00     0.091 A 
HETATM   12  C   UNK N   1      37.692  12.351  10.144  0.00  0.00    -0.012 C 
HETATM   13  C   UNK N   1      35.468  13.437   2.932  0.00  0.00    -0.011 C 
HETATM   14  C   UNK N   1      35.311  14.607   9.459  0.00  0.00     0.035 C 
HETATM   15  C   UNK N   1      33.712  14.263   7.350  0.00  0.00    -0.055 C 
HETATM   16  C   UNK N   1      38.878  12.153   7.887  0.00  0.00     0.032 A 
HETATM   17  C   UNK N   1      38.043  12.526   5.465  0.00  0.00     0.089 A 
HETATM   18  C   UNK N   1      39.194  10.475   6.115  0.00  0.00     0.208 A 
HETATM   19  C   UNK N   1      33.229  16.130   5.609  0.00  0.00     0.177 C 
HETATM   20  C   UNK N   1      36.161  13.707  11.830  0.00  0.00     0.150 C 
HETATM   21  C   UNK N   1      35.021  13.795  10.771  0.00  0.00     0.154 C 
HETATM   22  C   UNK N   1      38.230  13.022   6.855  0.00  0.00     0.207 A 
HETATM   23  C   UNK N   1      33.184  15.669   7.113  0.00  0.00     0.193 C 
HETATM   24  C   UNK N   1      39.360  10.929   7.522  0.00  0.00     0.128 A 
HETATM   25  C   UNK N   1      36.796  12.952   3.403  0.00  0.00     0.146 C 
HETATM   26  N   UNK N   1      37.117  13.212   4.636  0.00  0.00    -0.333 N 
ATOM     27  HN  UNK N   1      36.643  14.008   5.060  1.00  0.00     0.168 HD
HETATM   28  O   UNK N   1      39.590   9.372   5.779  0.00  0.00    -0.285 OA
HETATM   29  O   UNK N   1      37.815  14.129   7.157  0.00  0.00    -0.285 OA
ENDROOT
BRANCH  23  30
HETATM   30  O   UNK N   1      31.912  15.739   7.653  0.00  0.00    -0.304 OA
BRANCH  30  31
HETATM   31  C   UNK N   1      31.654  16.225   8.900  0.00  0.00     0.256 C 
HETATM   32  N   UNK N   1      31.478  17.482   9.063  0.00  0.00    -0.359 N 
HETATM   33  H   UNK N   1      30.686  18.029   9.270  0.00  0.00     0.160 HD
ATOM     34  HN  UNK N   1      32.332  18.029   8.957  1.00  0.00     0.160 HD
BRANCH  31  35
HETATM   35  O   UNK N   1      31.581  15.405   9.971  0.00  0.00    -0.327 OA
HETATM   36  H   UNK N   1      31.121  15.135  10.741  0.00  0.00     0.221 HD
ENDBRANCH  31  35
ENDBRANCH  30  31
ENDBRANCH  23  30
BRANCH  19  37
HETATM   37  O   UNK N   1      32.796  17.473   5.464  0.00  0.00    -0.384 OA
HETATM   38  C   UNK N   1      31.684  17.545   4.604  0.00  0.00     0.202 C 
ENDBRANCH  19  37
BRANCH  21  39
HETATM   39  O   UNK N   1      33.812  14.191  11.358  0.00  0.00    -0.392 OA
HETATM   40  H   UNK N   1      33.515  13.862  12.220  0.00  0.00     0.210 HD
ENDBRANCH  21  39
BRANCH  20  41
HETATM   41  O   UNK N   1      36.153  14.786  12.750  0.00  0.00    -0.388 OA
HETATM   42  C   UNK N   1      36.437  14.342  14.048  0.00  0.00     0.202 C 
ENDBRANCH  20  41
BRANCH  25  43
HETATM   43  O   UNK N   1      37.507  12.082   2.659  0.00  0.00    -0.346 OA
HETATM   44  H   UNK N   1      38.346  12.317   2.314  0.00  0.00     0.219 HD
ENDBRANCH  25  43
BRANCH  24  45
HETATM   45  O   UNK N   1      39.989  10.065   8.373  0.00  0.00    -0.351 OA
HETATM   46  C   UNK N   1      41.327  10.056   8.687  0.00  0.00     0.210 C 
ENDBRANCH  24  45
TORSDOF 8
ENDMDL
MODEL 7
REMARK VINA RESULT:      -6.7     12.516     16.375
REMARK  8 active torsions:
REMARK  status: ('A' for Active; 'I' for Inactive)
REMARK    1  A    between atoms: C_22  and  O_39 
REMARK    2  A    between atoms: C_23  and  O_40 
REMARK    3  A    between atoms: C_24  and  O_35 
REMARK    4  A    between atoms: C_26  and  O_42 
REMARK    5  A    between atoms: O_41  and  C_27 
REMARK    6  A    between atoms: O_37  and  C_28 
REMARK    7  A    between atoms: O_38  and  C_29 
REMARK    8  A    between atoms: O_42  and  C_29 
ROOT
HETATM    1  C   UNK N   1      27.873  20.634 -10.070  0.00  0.00     0.010 C 
HETATM    2  C   UNK N   1      34.383  26.014  -5.195  0.00  0.00     0.052 C 
HETATM    3  C   UNK N   1      26.016  24.013  -5.617  0.00  0.00     0.017 C 
HETATM    4  C   UNK N   1      29.694  26.414  -7.319  0.00  0.00     0.046 C 
HETATM    5  C   UNK N   1      31.633  27.185  -4.941  0.00  0.00    -0.001 C 
HETATM    6  C   UNK N   1      31.923  25.731  -4.929  0.00  0.00     0.011 C 
HETATM    7  C   UNK N   1      30.382  27.685  -4.763  0.00  0.00     0.008 C 
HETATM    8  C   UNK N   1      28.622  20.060  -7.718  0.00  0.00     0.050 C 
HETATM    9  C   UNK N   1      26.341  20.940  -8.110  0.00  0.00     0.039 C 
HETATM   10  C   UNK N   1      28.091  24.615  -7.122  0.00  0.00    -0.015 C 
HETATM   11  C   UNK N   1      32.779  21.490  -7.293  0.00  0.00     0.091 A 
HETATM   12  C   UNK N   1      27.795  21.008  -8.603  0.00  0.00    -0.012 C 
HETATM   13  C   UNK N   1      33.141  25.179  -5.115  0.00  0.00    -0.011 C 
HETATM   14  C   UNK N   1      26.902  23.692  -6.807  0.00  0.00     0.035 C 
HETATM   15  C   UNK N   1      28.575  25.757  -6.568  0.00  0.00    -0.055 C 
HETATM   16  C   UNK N   1      30.083  20.458  -7.603  0.00  0.00     0.032 A 
HETATM   17  C   UNK N   1      31.857  21.944  -6.443  0.00  0.00     0.089 A 
HETATM   18  C   UNK N   1      32.444  20.467  -8.295  0.00  0.00     0.208 A 
HETATM   19  C   UNK N   1      29.153  26.867  -4.291  0.00  0.00     0.177 C 
HETATM   20  C   UNK N   1      25.412  22.155  -8.410  0.00  0.00     0.150 C 
HETATM   21  C   UNK N   1      26.068  23.540  -8.129  0.00  0.00     0.154 C 
HETATM   22  C   UNK N   1      30.460  21.440  -6.539  0.00  0.00     0.207 A 
HETATM   23  C   UNK N   1      28.043  26.463  -5.331  0.00  0.00     0.193 C 
HETATM   24  C   UNK N   1      31.048  19.976  -8.440  0.00  0.00     0.128 A 
HETATM   25  C   UNK N   1      33.212  23.732  -5.469  0.00  0.00     0.146 C 
HETATM   26  N   UNK N   1      32.086  23.120  -5.681  0.00  0.00    -0.333 N 
ATOM     27  HN  UNK N   1      31.263  23.537  -5.247  1.00  0.00     0.168 HD
HETATM   28  O   UNK N   1      33.312  20.072  -9.054  0.00  0.00    -0.285 OA
HETATM   29  O   UNK N   1      29.617  21.863  -5.766  0.00  0.00    -0.285 OA
ENDROOT
BRANCH  23  30
HETATM   30  O   UNK N   1      27.290  27.543  -5.752  0.00  0.00    -0.304 OA
BRANCH  30  31
HETATM   31  C   UNK N   1      25.960  27.679  -5.486  0.00  0.00     0.256 C 
HETATM   32  N   UNK N   1      25.589  28.262  -4.409  0.00  0.00    -0.359 N 
HETATM   33  H   UNK N   1      25.167  29.132  -4.226  0.00  0.00     0.160 HD
ATOM     34  HN  UNK N   1      25.766  27.713  -3.568  1.00  0.00     0.160 HD
BRANCH  31  35
HETATM   35  O   UNK N   1      25.023  27.208  -6.337  0.00  0.00    -0.327 OA
HETATM   36  H   UNK N   1      24.119  27.149  -6.578  0.00  0.00     0.221 HD
ENDBRANCH  31  35
ENDBRANCH  30  31
ENDBRANCH  23  30
BRANCH  19  37
HETATM   37  O   UNK N   1      28.588  27.451  -3.128  0.00  0.00    -0.384 OA
HETATM   38  C   UNK N   1      28.959  28.805  -3.023  0.00  0.00     0.202 C 
ENDBRANCH  19  37
BRANCH  21  39
HETATM   39  O   UNK N   1      25.140  24.579  -8.267  0.00  0.00    -0.392 OA
HETATM   40  H   UNK N   1      24.552  24.659  -9.035  0.00  0.00     0.210 HD
ENDBRANCH  21  39
BRANCH  20  41
HETATM   41  O   UNK N   1      24.124  22.020  -7.834  0.00  0.00    -0.388 OA
HETATM   42  C   UNK N   1      24.151  21.142  -6.742  0.00  0.00     0.202 C 
ENDBRANCH  20  41
BRANCH  25  43
HETATM   43  O   UNK N   1      34.393  23.167  -5.787  0.00  0.00    -0.346 OA
HETATM   44  H   UNK N   1      34.627  23.011  -6.681  0.00  0.00     0.219 HD
ENDBRANCH  25  43
BRANCH  24  45
HETATM   45  O   UNK N   1      30.822  19.061  -9.429  0.00  0.00    -0.351 OA
HETATM   46  C   UNK N   1      30.861  17.692  -9.302  0.00  0.00     0.210 C 
ENDBRANCH  24  45
TORSDOF 8
ENDMDL
MODEL 8
REMARK VINA RESULT:      -6.5      2.962      7.677
REMARK  8 active torsions:
REMARK  status: ('A' for Active; 'I' for Inactive)
REMARK    1  A    between atoms: C_22  and  O_39 
REMARK    2  A    between atoms: C_23  and  O_40 
REMARK    3  A    between atoms: C_24  and  O_35 
REMARK    4  A    between atoms: C_26  and  O_42 
REMARK    5  A    between atoms: O_41  and  C_27 
REMARK    6  A    between atoms: O_37  and  C_28 
REMARK    7  A    between atoms: O_38  and  C_29 
REMARK    8  A    between atoms: O_42  and  C_29 
ROOT
HETATM    1  C   UNK N   1      29.797  17.530   6.993  0.00  0.00     0.010 C 
HETATM    2  C   UNK N   1      28.678   9.654   1.353  0.00  0.00     0.052 C 
HETATM    3  C   UNK N   1      25.540  17.520   2.923  0.00  0.00     0.017 C 
HETATM    4  C   UNK N   1      25.872  12.980   4.132  0.00  0.00     0.046 C 
HETATM    5  C   UNK N   1      26.122  11.215   1.518  0.00  0.00    -0.001 C 
HETATM    6  C   UNK N   1      27.469  11.830   1.435  0.00  0.00     0.011 C 
HETATM    7  C   UNK N   1      24.980  11.950   1.531  0.00  0.00     0.008 C 
HETATM    8  C   UNK N   1      30.459  17.505   4.547  0.00  0.00     0.050 C 
HETATM    9  C   UNK N   1      28.473  18.790   5.279  0.00  0.00     0.039 C 
HETATM   10  C   UNK N   1      26.394  15.341   4.129  0.00  0.00    -0.015 C 
HETATM   11  C   UNK N   1      31.643  13.365   3.564  0.00  0.00     0.091 A 
HETATM   12  C   UNK N   1      29.302  17.528   5.560  0.00  0.00    -0.012 C 
HETATM   13  C   UNK N   1      28.636  11.151   1.434  0.00  0.00    -0.011 C 
HETATM   14  C   UNK N   1      26.429  16.870   3.966  0.00  0.00     0.035 C 
HETATM   15  C   UNK N   1      25.689  14.343   3.535  0.00  0.00    -0.055 C 
HETATM   16  C   UNK N   1      30.964  16.108   4.234  0.00  0.00     0.032 A 
HETATM   17  C   UNK N   1      30.659  13.933   2.863  0.00  0.00     0.089 A 
HETATM   18  C   UNK N   1      32.381  14.127   4.582  0.00  0.00     0.208 A 
HETATM   19  C   UNK N   1      24.891  13.466   1.223  0.00  0.00     0.177 C 
HETATM   20  C   UNK N   1      26.982  18.800   5.734  0.00  0.00     0.150 C 
HETATM   21  C   UNK N   1      26.206  17.493   5.390  0.00  0.00     0.154 C 
HETATM   22  C   UNK N   1      30.276  15.342   3.147  0.00  0.00     0.207 A 
HETATM   23  C   UNK N   1      24.686  14.489   2.401  0.00  0.00     0.193 C 
HETATM   24  C   UNK N   1      31.993  15.523   4.913  0.00  0.00     0.128 A 
HETATM   25  C   UNK N   1      29.887  11.899   1.743  0.00  0.00     0.146 C 
HETATM   26  N   UNK N   1      29.759  13.141   2.102  0.00  0.00    -0.333 N 
ATOM     27  HN  UNK N   1      28.904  13.607   1.798  1.00  0.00     0.168 HD
HETATM   28  O   UNK N   1      33.276  13.579   5.200  0.00  0.00    -0.285 OA
HETATM   29  O   UNK N   1      29.370  15.855   2.511  0.00  0.00    -0.285 OA
ENDROOT
BRANCH  23  30
HETATM   30  O   UNK N   1      23.417  14.423   2.948  0.00  0.00    -0.304 OA
BRANCH  30  31
HETATM   31  C   UNK N   1      22.438  15.332   2.680  0.00  0.00     0.256 C 
HETATM   32  N   UNK N   1      22.173  16.244   3.538  0.00  0.00    -0.359 N 
HETATM   33  H   UNK N   1      22.327  17.217   3.556  0.00  0.00     0.160 HD
ATOM     34  HN  UNK N   1      21.706  15.893   4.373  1.00  0.00     0.160 HD
BRANCH  31  35
HETATM   35  O   UNK N   1      21.740  15.291   1.525  0.00  0.00    -0.327 OA
HETATM   36  H   UNK N   1      21.736  15.353   0.590  0.00  0.00     0.221 HD
ENDBRANCH  31  35
ENDBRANCH  30  31
ENDBRANCH  23  30
BRANCH  19  37
HETATM   37  O   UNK N   1      23.976  13.703   0.165  0.00  0.00    -0.384 OA
HETATM   38  C   UNK N   1      23.252  12.534  -0.134  0.00  0.00     0.202 C 
ENDBRANCH  19  37
BRANCH  21  39
HETATM   39  O   UNK N   1      24.842  17.622   5.681  0.00  0.00    -0.392 OA
HETATM   40  H   UNK N   1      24.157  17.115   5.218  0.00  0.00     0.210 HD
ENDBRANCH  21  39
BRANCH  20  41
HETATM   41  O   UNK N   1      26.294  19.977   5.345  0.00  0.00    -0.388 OA
HETATM   42  C   UNK N   1      26.712  21.078   6.105  0.00  0.00     0.202 C 
ENDBRANCH  20  41
BRANCH  25  43
HETATM   43  O   UNK N   1      31.057  11.244   1.878  0.00  0.00    -0.346 OA
HETATM   44  H   UNK N   1      31.174  10.600   2.549  0.00  0.00     0.219 HD
ENDBRANCH  25  43
BRANCH  24  45
HETATM   45  O   UNK N   1      32.705  16.136   5.905  0.00  0.00    -0.351 OA
HETATM   46  C   UNK N   1      33.788  16.967   5.742  0.00  0.00     0.210 C 
ENDBRANCH  24  45
TORSDOF 8
ENDMDL
MODEL 9
REMARK VINA RESULT:      -6.5      8.825     13.349
REMARK  8 active torsions:
REMARK  status: ('A' for Active; 'I' for Inactive)
REMARK    1  A    between atoms: C_22  and  O_39 
REMARK    2  A    between atoms: C_23  and  O_40 
REMARK    3  A    between atoms: C_24  and  O_35 
REMARK    4  A    between atoms: C_26  and  O_42 
REMARK    5  A    between atoms: O_41  and  C_27 
REMARK    6  A    between atoms: O_37  and  C_28 
REMARK    7  A    between atoms: O_38  and  C_29 
REMARK    8  A    between atoms: O_42  and  C_29 
ROOT
HETATM    1  C   UNK N   1      31.538  14.084   3.681  0.00  0.00     0.010 C 
HETATM    2  C   UNK N   1      36.289  15.007  12.147  0.00  0.00     0.052 C 
HETATM    3  C   UNK N   1      37.367  13.247   3.784  0.00  0.00     0.017 C 
HETATM    4  C   UNK N   1      36.011  11.848   8.073  0.00  0.00     0.046 C 
HETATM    5  C   UNK N   1      37.819  13.253  10.255  0.00  0.00    -0.001 C 
HETATM    6  C   UNK N   1      37.075  14.469   9.846  0.00  0.00     0.011 C 
HETATM    7  C   UNK N   1      38.553  12.514   9.382  0.00  0.00     0.008 C 
HETATM    8  C   UNK N   1      33.038  16.063   4.189  0.00  0.00     0.050 C 
HETATM    9  C   UNK N   1      33.759  14.352   2.551  0.00  0.00     0.039 C 
HETATM   10  C   UNK N   1      35.795  12.735   5.834  0.00  0.00    -0.015 C 
HETATM   11  C   UNK N   1      32.884  16.722   8.554  0.00  0.00     0.091 A 
HETATM   12  C   UNK N   1      32.966  14.564   3.849  0.00  0.00    -0.012 C 
HETATM   13  C   UNK N   1      36.320  15.231  10.665  0.00  0.00    -0.011 C 
HETATM   14  C   UNK N   1      35.970  13.172   4.370  0.00  0.00     0.035 C 
HETATM   15  C   UNK N   1      36.653  12.344   6.812  0.00  0.00    -0.055 C 
HETATM   16  C   UNK N   1      32.906  16.355   5.673  0.00  0.00     0.032 A 
HETATM   17  C   UNK N   1      34.069  16.501   7.981  0.00  0.00     0.089 A 
HETATM   18  C   UNK N   1      31.663  16.835   7.742  0.00  0.00     0.208 A 
HETATM   19  C   UNK N   1      38.918  12.942   7.938  0.00  0.00     0.177 C 
HETATM   20  C   UNK N   1      34.330  12.930   2.269  0.00  0.00     0.150 C 
HETATM   21  C   UNK N   1      35.023  12.270   3.500  0.00  0.00     0.154 C 
HETATM   22  C   UNK N   1      34.149  16.323   6.507  0.00  0.00     0.207 A 
HETATM   23  C   UNK N   1      38.170  12.283   6.720  0.00  0.00     0.193 C 
HETATM   24  C   UNK N   1      31.708  16.621   6.271  0.00  0.00     0.128 A 
HETATM   25  C   UNK N   1      35.333  16.164  10.049  0.00  0.00     0.146 C 
HETATM   26  N   UNK N   1      35.188  16.103   8.759  0.00  0.00    -0.333 N 
ATOM     27  HN  UNK N   1      35.979  15.721   8.240  1.00  0.00     0.168 HD
HETATM   28  O   UNK N   1      30.598  17.042   8.297  0.00  0.00    -0.285 OA
HETATM   29  O   UNK N   1      35.232  16.111   5.988  0.00  0.00    -0.285 OA
ENDROOT
BRANCH  23  30
HETATM   30  O   UNK N   1      38.528  10.961   6.527  0.00  0.00    -0.304 OA
BRANCH  30  31
HETATM   31  C   UNK N   1      38.890  10.451   5.316  0.00  0.00     0.256 C 
HETATM   32  N   UNK N   1      38.043   9.772   4.639  0.00  0.00    -0.359 N 
HETATM   33  H   UNK N   1      37.541   9.954   3.812  0.00  0.00     0.160 HD
ATOM     34  HN  UNK N   1      37.848   8.854   5.037  1.00  0.00     0.160 HD
BRANCH  31  35
HETATM   35  O   UNK N   1      40.128  10.650   4.813  0.00  0.00    -0.327 OA
HETATM   36  H   UNK N   1      41.026  10.388   4.775  0.00  0.00     0.221 HD
ENDBRANCH  31  35
ENDBRANCH  30  31
ENDBRANCH  23  30
BRANCH  19  37
HETATM   37  O   UNK N   1      40.325  12.921   7.757  0.00  0.00    -0.384 OA
HETATM   38  C   UNK N   1      40.696  13.733   6.670  0.00  0.00     0.202 C 
ENDBRANCH  19  37
BRANCH  21  39
HETATM   39  O   UNK N   1      35.649  11.068   3.146  0.00  0.00    -0.392 OA
HETATM   40  H   UNK N   1      35.848  10.832   2.227  0.00  0.00     0.210 HD
ENDBRANCH  21  39
BRANCH  20  41
HETATM   41  O   UNK N   1      35.115  12.874   1.090  0.00  0.00    -0.388 OA
HETATM   42  C   UNK N   1      35.549  14.152   0.715  0.00  0.00     0.202 C 
ENDBRANCH  20  41
BRANCH  25  43
HETATM   43  O   UNK N   1      34.471  16.851  10.823  0.00  0.00    -0.346 OA
HETATM   44  H   UNK N   1      33.989  16.425  11.504  0.00  0.00     0.219 HD
ENDBRANCH  25  43
BRANCH  24  45
HETATM   45  O   UNK N   1      30.518  16.699   5.606  0.00  0.00    -0.351 OA
HETATM   46  C   UNK N   1      30.086  17.741   4.820  0.00  0.00     0.210 C 
ENDBRANCH  24  45
TORSDOF 8
ENDMDL
