MODEL 1
REMARK VINA RESULT:      -7.7      0.000      0.000
REMARK  12 active torsions:
REMARK  status: ('A' for Active; 'I' for Inactive)
REMARK    1  A    between atoms: C_23  and  C_19 
REMARK    2  A    between atoms: C_29  and  C_19 
REMARK    3  A    between atoms: C_24  and  C_20 
REMARK    4  A    between atoms: C_30  and  C_20 
REMARK    5  A    between atoms: C_25  and  C_21 
REMARK    6  A    between atoms: N_36  and  C_21 
REMARK    7  A    between atoms: C_26  and  C_22 
REMARK    8  A    between atoms: N_37  and  C_22 
REMARK    9  A    between atoms: N_34  and  C_27 
REMARK   10  A    between atoms: N_35  and  C_28 
REMARK   11  A    between atoms: C_31  and  O_38 
REMARK   12  A    between atoms: C_32  and  O_39 
ROOT
HETATM    1  C   UNK N   1      36.305  13.786  10.309  0.00  0.00     0.124 C 
HETATM    2  C   UNK N   1      34.138  15.229   9.060  0.00  0.00     0.124 C 
HETATM    3  C   UNK N   1      35.909  15.110  10.951  0.00  0.00     0.172 C 
HETATM    4  C   UNK N   1      34.487  15.528  10.553  0.00  0.00     0.172 C 
HETATM    5  C   UNK N   1      34.171  12.740   9.633  0.00  0.00     0.322 C 
HETATM    6  N   UNK N   1      35.288  12.746  10.457  0.00  0.00    -0.322 N 
HETATM    7  N   UNK N   1      33.842  13.795   8.798  0.00  0.00    -0.322 N 
HETATM    8  O   UNK N   1      33.503  11.713   9.561  0.00  0.00    -0.247 OA
ENDROOT
BRANCH   6   9
HETATM    9  C   UNK N   1      35.608  11.559  11.246  0.00  0.00     0.166 C 
BRANCH   9  10
HETATM   10  C   UNK N   1      35.087  11.586  12.666  0.00  0.00    -0.038 A 
HETATM   11  C   UNK N   1      34.136  10.638  13.054  0.00  0.00     0.009 A 
HETATM   12  C   UNK N   1      33.675  10.601  14.376  0.00  0.00     0.003 A 
HETATM   13  C   UNK N   1      34.185  11.496  15.322  0.00  0.00     0.029 A 
HETATM   14  C   UNK N   1      35.133  12.445  14.941  0.00  0.00     0.026 A 
HETATM   15  C   UNK N   1      35.570  12.499  13.619  0.00  0.00     0.037 A 
BRANCH  14  16
HETATM   16  N   UNK N   1      35.677  13.330  15.893  0.00  0.00    -0.399 N 
HETATM   17  H   UNK N   1      35.572  13.570  16.841  0.00  0.00     0.156 HD
HETATM   18  H   UNK N   1      36.382  13.879  15.481  0.00  0.00     0.156 HD
ENDBRANCH  14  16
ENDBRANCH   9  10
ENDBRANCH   6   9
BRANCH   1  19
HETATM   19  C   UNK N   1      37.773  13.359  10.577  0.00  0.00     0.066 C 
BRANCH  19  20
HETATM   20  C   UNK N   1      38.788  13.052   9.510  0.00  0.00    -0.056 A 
HETATM   21  C   UNK N   1      38.747  13.832   8.346  0.00  0.00     0.007 A 
HETATM   22  C   UNK N   1      39.631  13.587   7.294  0.00  0.00     0.001 A 
HETATM   23  C   UNK N   1      40.560  12.550   7.393  0.00  0.00     0.000 A 
HETATM   24  C   UNK N   1      40.612  11.768   8.552  0.00  0.00     0.001 A 
HETATM   25  C   UNK N   1      39.731  12.020   9.612  0.00  0.00     0.007 A 
ENDBRANCH  19  20
ENDBRANCH   1  19
BRANCH   3  26
HETATM   26  O   UNK N   1      36.809  16.091  10.515  0.00  0.00    -0.391 OA
HETATM   27  H   UNK N   1      37.545  16.187   9.890  0.00  0.00     0.210 HD
ENDBRANCH   3  26
BRANCH   7  28
HETATM   28  C   UNK N   1      33.166  13.465   7.540  0.00  0.00     0.166 C 
BRANCH  28  29
HETATM   29  C   UNK N   1      34.029  13.463   6.313  0.00  0.00    -0.038 A 
HETATM   30  C   UNK N   1      35.417  13.331   6.440  0.00  0.00     0.009 A 
HETATM   31  C   UNK N   1      36.239  13.446   5.313  0.00  0.00     0.003 A 
HETATM   32  C   UNK N   1      35.678  13.716   4.060  0.00  0.00     0.029 A 
HETATM   33  C   UNK N   1      34.293  13.860   3.934  0.00  0.00     0.026 A 
HETATM   34  C   UNK N   1      33.476  13.738   5.057  0.00  0.00     0.037 A 
BRANCH  33  35
HETATM   35  N   UNK N   1      33.722  14.152   2.680  0.00  0.00    -0.399 N 
HETATM   36  H   UNK N   1      32.817  14.504   2.519  0.00  0.00     0.156 HD
HETATM   37  H   UNK N   1      34.283  13.987   1.887  0.00  0.00     0.156 HD
ENDBRANCH  33  35
ENDBRANCH  28  29
ENDBRANCH   7  28
BRANCH   4  38
HETATM   38  O   UNK N   1      33.541  14.915  11.385  0.00  0.00    -0.391 OA
HETATM   39  H   UNK N   1      32.708  14.798  11.869  0.00  0.00     0.210 HD
ENDBRANCH   4  38
BRANCH   2  40
HETATM   40  C   UNK N   1      32.857  15.998   8.663  0.00  0.00     0.066 C 
BRANCH  40  41
HETATM   41  C   UNK N   1      32.685  16.561   7.299  0.00  0.00    -0.056 A 
HETATM   42  C   UNK N   1      31.405  16.537   6.741  0.00  0.00     0.007 A 
HETATM   43  C   UNK N   1      31.191  17.025   5.453  0.00  0.00     0.001 A 
HETATM   44  C   UNK N   1      32.264  17.536   4.718  0.00  0.00     0.000 A 
HETATM   45  C   UNK N   1      33.549  17.554   5.272  0.00  0.00     0.001 A 
HETATM   46  C   UNK N   1      33.764  17.061   6.564  0.00  0.00     0.007 A 
ENDBRANCH  40  41
ENDBRANCH   2  40
TORSDOF 12
ENDMDL
MODEL 2
REMARK VINA RESULT:      -7.5     11.112     13.417
REMARK  12 active torsions:
REMARK  status: ('A' for Active; 'I' for Inactive)
REMARK    1  A    between atoms: C_23  and  C_19 
REMARK    2  A    between atoms: C_29  and  C_19 
REMARK    3  A    between atoms: C_24  and  C_20 
REMARK    4  A    between atoms: C_30  and  C_20 
REMARK    5  A    between atoms: C_25  and  C_21 
REMARK    6  A    between atoms: N_36  and  C_21 
REMARK    7  A    between atoms: C_26  and  C_22 
REMARK    8  A    between atoms: N_37  and  C_22 
REMARK    9  A    between atoms: N_34  and  C_27 
REMARK   10  A    between atoms: N_35  and  C_28 
REMARK   11  A    between atoms: C_31  and  O_38 
REMARK   12  A    between atoms: C_32  and  O_39 
ROOT
HETATM    1  C   UNK N   1      23.851  13.713   4.551  0.00  0.00     0.124 C 
HETATM    2  C   UNK N   1      23.760  16.588   4.806  0.00  0.00     0.124 C 
HETATM    3  C   UNK N   1      25.177  14.416   4.818  0.00  0.00     0.172 C 
HETATM    4  C   UNK N   1      24.966  15.810   5.424  0.00  0.00     0.172 C 
HETATM    5  C   UNK N   1      22.200  14.915   5.944  0.00  0.00     0.322 C 
HETATM    6  N   UNK N   1      22.933  13.764   5.688  0.00  0.00    -0.322 N 
HETATM    7  N   UNK N   1      22.438  16.119   5.302  0.00  0.00    -0.322 N 
HETATM    8  O   UNK N   1      21.230  14.837   6.691  0.00  0.00    -0.247 OA
ENDROOT
BRANCH   6   9
HETATM    9  C   UNK N   1      22.563  12.514   6.348  0.00  0.00     0.166 C 
BRANCH   9  10
HETATM   10  C   UNK N   1      22.988  12.415   7.796  0.00  0.00    -0.038 A 
HETATM   11  C   UNK N   1      24.322  12.673   8.127  0.00  0.00     0.009 A 
HETATM   12  C   UNK N   1      24.735  12.645   9.465  0.00  0.00     0.003 A 
HETATM   13  C   UNK N   1      23.809  12.385  10.481  0.00  0.00     0.029 A 
HETATM   14  C   UNK N   1      22.476  12.125  10.156  0.00  0.00     0.026 A 
HETATM   15  C   UNK N   1      22.073  12.127   8.823  0.00  0.00     0.037 A 
BRANCH  14  16
HETATM   16  N   UNK N   1      21.530  11.894  11.173  0.00  0.00    -0.399 N 
HETATM   17  H   UNK N   1      21.389  11.307  11.950  0.00  0.00     0.156 HD
HETATM   18  H   UNK N   1      20.771  12.514  11.076  0.00  0.00     0.156 HD
ENDBRANCH  14  16
ENDBRANCH   9  10
ENDBRANCH   6   9
BRANCH   1  19
HETATM   19  C   UNK N   1      23.985  12.344   3.833  0.00  0.00     0.066 C 
BRANCH  19  20
HETATM   20  C   UNK N   1      23.891  12.140   2.346  0.00  0.00    -0.056 A 
HETATM   21  C   UNK N   1      23.206  13.116   1.609  0.00  0.00     0.007 A 
HETATM   22  C   UNK N   1      23.043  12.982   0.229  0.00  0.00     0.001 A 
HETATM   23  C   UNK N   1      23.559  11.863  -0.427  0.00  0.00     0.000 A 
HETATM   24  C   UNK N   1      24.248  10.885   0.299  0.00  0.00     0.001 A 
HETATM   25  C   UNK N   1      24.420  11.024   1.683  0.00  0.00     0.007 A 
ENDBRANCH  19  20
ENDBRANCH   1  19
BRANCH   3  26
HETATM   26  O   UNK N   1      25.851  14.549   3.597  0.00  0.00    -0.391 OA
HETATM   27  H   UNK N   1      26.045  15.232   2.936  0.00  0.00     0.210 HD
ENDBRANCH   3  26
BRANCH   7  28
HETATM   28  C   UNK N   1      21.284  16.994   5.075  0.00  0.00     0.166 C 
BRANCH  28  29
HETATM   29  C   UNK N   1      20.809  17.096   3.655  0.00  0.00    -0.038 A 
HETATM   30  C   UNK N   1      20.591  15.930   2.910  0.00  0.00     0.009 A 
HETATM   31  C   UNK N   1      20.261  16.016   1.552  0.00  0.00     0.003 A 
HETATM   32  C   UNK N   1      20.172  17.266   0.930  0.00  0.00     0.029 A 
HETATM   33  C   UNK N   1      20.401  18.429   1.670  0.00  0.00     0.026 A 
HETATM   34  C   UNK N   1      20.723  18.342   3.024  0.00  0.00     0.037 A 
BRANCH  33  35
HETATM   35  N   UNK N   1      20.334  19.691   1.046  0.00  0.00    -0.399 N 
HETATM   36  H   UNK N   1      21.061  20.139   0.556  0.00  0.00     0.156 HD
HETATM   37  H   UNK N   1      19.476  20.171   1.107  0.00  0.00     0.156 HD
ENDBRANCH  33  35
ENDBRANCH  28  29
ENDBRANCH   7  28
BRANCH   4  38
HETATM   38  O   UNK N   1      24.804  15.726   6.813  0.00  0.00    -0.391 OA
HETATM   39  H   UNK N   1      24.911  15.379   7.713  0.00  0.00     0.210 HD
ENDBRANCH   4  38
BRANCH   2  40
HETATM   40  C   UNK N   1      23.849  18.080   5.203  0.00  0.00     0.066 C 
BRANCH  40  41
HETATM   41  C   UNK N   1      24.677  19.038   4.426  0.00  0.00    -0.056 A 
HETATM   42  C   UNK N   1      24.068  19.717   3.369  0.00  0.00     0.007 A 
HETATM   43  C   UNK N   1      24.806  20.606   2.588  0.00  0.00     0.001 A 
HETATM   44  C   UNK N   1      26.159  20.814   2.865  0.00  0.00     0.000 A 
HETATM   45  C   UNK N   1      26.774  20.128   3.920  0.00  0.00     0.001 A 
HETATM   46  C   UNK N   1      26.034  19.233   4.701  0.00  0.00     0.007 A 
ENDBRANCH  40  41
ENDBRANCH   2  40
TORSDOF 12
ENDMDL
MODEL 3
REMARK VINA RESULT:      -7.4     10.350     14.975
REMARK  12 active torsions:
REMARK  status: ('A' for Active; 'I' for Inactive)
REMARK    1  A    between atoms: C_23  and  C_19 
REMARK    2  A    between atoms: C_29  and  C_19 
REMARK    3  A    between atoms: C_24  and  C_20 
REMARK    4  A    between atoms: C_30  and  C_20 
REMARK    5  A    between atoms: C_25  and  C_21 
REMARK    6  A    between atoms: N_36  and  C_21 
REMARK    7  A    between atoms: C_26  and  C_22 
REMARK    8  A    between atoms: N_37  and  C_22 
REMARK    9  A    between atoms: N_34  and  C_27 
REMARK   10  A    between atoms: N_35  and  C_28 
REMARK   11  A    between atoms: C_31  and  O_38 
REMARK   12  A    between atoms: C_32  and  O_39 
ROOT
HETATM    1  C   UNK N   1      23.230  15.928   4.605  0.00  0.00     0.124 C 
HETATM    2  C   UNK N   1      21.522  13.733   5.383  0.00  0.00     0.124 C 
HETATM    3  C   UNK N   1      22.576  15.140   3.476  0.00  0.00     0.172 C 
HETATM    4  C   UNK N   1      21.344  14.366   3.966  0.00  0.00     0.172 C 
HETATM    5  C   UNK N   1      21.493  16.095   6.356  0.00  0.00     0.322 C 
HETATM    6  N   UNK N   1      22.276  16.711   5.388  0.00  0.00    -0.322 N 
HETATM    7  N   UNK N   1      21.403  14.719   6.490  0.00  0.00    -0.322 N 
HETATM    8  O   UNK N   1      20.941  16.798   7.196  0.00  0.00    -0.247 OA
ENDROOT
BRANCH   6   9
HETATM    9  C   UNK N   1      22.380  18.168   5.367  0.00  0.00     0.166 C 
BRANCH   9  10
HETATM   10  C   UNK N   1      21.721  18.830   4.177  0.00  0.00    -0.038 A 
HETATM   11  C   UNK N   1      22.471  19.717   3.398  0.00  0.00     0.009 A 
HETATM   12  C   UNK N   1      21.908  20.304   2.258  0.00  0.00     0.003 A 
HETATM   13  C   UNK N   1      20.601  19.985   1.877  0.00  0.00     0.029 A 
HETATM   14  C   UNK N   1      19.847  19.101   2.651  0.00  0.00     0.026 A 
HETATM   15  C   UNK N   1      20.399  18.540   3.800  0.00  0.00     0.037 A 
BRANCH  14  16
HETATM   16  N   UNK N   1      18.541  18.748   2.258  0.00  0.00    -0.399 N 
HETATM   17  H   UNK N   1      17.934  18.850   1.490  0.00  0.00     0.156 HD
HETATM   18  H   UNK N   1      18.098  18.240   2.975  0.00  0.00     0.156 HD
ENDBRANCH  14  16
ENDBRANCH   9  10
ENDBRANCH   6   9
BRANCH   1  19
HETATM   19  C   UNK N   1      24.547  16.644   4.206  0.00  0.00     0.066 C 
BRANCH  19  20
HETATM   20  C   UNK N   1      25.723  16.854   5.121  0.00  0.00    -0.056 A 
HETATM   21  C   UNK N   1      25.971  15.864   6.081  0.00  0.00     0.007 A 
HETATM   22  C   UNK N   1      27.020  16.002   6.992  0.00  0.00     0.001 A 
HETATM   23  C   UNK N   1      27.827  17.140   6.955  0.00  0.00     0.000 A 
HETATM   24  C   UNK N   1      27.591  18.132   5.998  0.00  0.00     0.001 A 
HETATM   25  C   UNK N   1      26.543  17.989   5.078  0.00  0.00     0.007 A 
ENDBRANCH  19  20
ENDBRANCH   1  19
BRANCH   3  26
HETATM   26  O   UNK N   1      23.517  14.228   2.981  0.00  0.00    -0.391 OA
HETATM   27  H   UNK N   1      23.589  13.547   2.292  0.00  0.00     0.210 HD
ENDBRANCH   3  26
BRANCH   7  28
HETATM   28  C   UNK N   1      21.196  14.193   7.842  0.00  0.00     0.166 C 
BRANCH  28  29
HETATM   29  C   UNK N   1      22.431  13.746   8.568  0.00  0.00    -0.038 A 
HETATM   30  C   UNK N   1      23.648  13.661   7.881  0.00  0.00     0.009 A 
HETATM   31  C   UNK N   1      24.778  13.133   8.517  0.00  0.00     0.003 A 
HETATM   32  C   UNK N   1      24.689  12.668   9.833  0.00  0.00     0.029 A 
HETATM   33  C   UNK N   1      23.472  12.741  10.516  0.00  0.00     0.026 A 
HETATM   34  C   UNK N   1      22.349  13.273   9.882  0.00  0.00     0.037 A 
BRANCH  33  35
HETATM   35  N   UNK N   1      23.368  12.256  11.834  0.00  0.00    -0.399 N 
HETATM   36  H   UNK N   1      22.919  12.704  12.588  0.00  0.00     0.156 HD
HETATM   37  H   UNK N   1      23.786  11.384  12.021  0.00  0.00     0.156 HD
ENDBRANCH  33  35
ENDBRANCH  28  29
ENDBRANCH   7  28
BRANCH   4  38
HETATM   38  O   UNK N   1      20.210  15.190   3.962  0.00  0.00    -0.391 OA
HETATM   39  H   UNK N   1      19.670  15.979   4.123  0.00  0.00     0.210 HD
ENDBRANCH   4  38
BRANCH   2  40
HETATM   40  C   UNK N   1      20.404  12.694   5.629  0.00  0.00     0.066 C 
BRANCH  40  41
HETATM   41  C   UNK N   1      20.681  11.235   5.580  0.00  0.00    -0.056 A 
HETATM   42  C   UNK N   1      21.976  10.807   5.880  0.00  0.00     0.007 A 
HETATM   43  C   UNK N   1      22.299   9.452   5.821  0.00  0.00     0.001 A 
HETATM   44  C   UNK N   1      21.323   8.522   5.457  0.00  0.00     0.000 A 
HETATM   45  C   UNK N   1      20.027   8.949   5.147  0.00  0.00     0.001 A 
HETATM   46  C   UNK N   1      19.704  10.309   5.203  0.00  0.00     0.007 A 
ENDBRANCH  40  41
ENDBRANCH   2  40
TORSDOF 12
ENDMDL
MODEL 4
REMARK VINA RESULT:      -7.4     11.592     14.489
REMARK  12 active torsions:
REMARK  status: ('A' for Active; 'I' for Inactive)
REMARK    1  A    between atoms: C_23  and  C_19 
REMARK    2  A    between atoms: C_29  and  C_19 
REMARK    3  A    between atoms: C_24  and  C_20 
REMARK    4  A    between atoms: C_30  and  C_20 
REMARK    5  A    between atoms: C_25  and  C_21 
REMARK    6  A    between atoms: N_36  and  C_21 
REMARK    7  A    between atoms: C_26  and  C_22 
REMARK    8  A    between atoms: N_37  and  C_22 
REMARK    9  A    between atoms: N_34  and  C_27 
REMARK   10  A    between atoms: N_35  and  C_28 
REMARK   11  A    between atoms: C_31  and  O_38 
REMARK   12  A    between atoms: C_32  and  O_39 
ROOT
HETATM    1  C   UNK N   1      22.656  14.166   4.268  0.00  0.00     0.124 C 
HETATM    2  C   UNK N   1      23.329  16.924   4.801  0.00  0.00     0.124 C 
HETATM    3  C   UNK N   1      24.122  14.467   4.558  0.00  0.00     0.172 C 
HETATM    4  C   UNK N   1      24.291  15.799   5.302  0.00  0.00     0.172 C 
HETATM    5  C   UNK N   1      21.389  15.611   5.822  0.00  0.00     0.322 C 
HETATM    6  N   UNK N   1      21.791  14.341   5.434  0.00  0.00    -0.322 N 
HETATM    7  N   UNK N   1      21.934  16.770   5.292  0.00  0.00    -0.322 N 
HETATM    8  O   UNK N   1      20.438  15.715   6.589  0.00  0.00    -0.247 OA
ENDROOT
BRANCH   6   9
HETATM    9  C   UNK N   1      21.109  13.171   5.982  0.00  0.00     0.166 C 
BRANCH   9  10
HETATM   10  C   UNK N   1      21.794  12.542   7.174  0.00  0.00    -0.038 A 
HETATM   11  C   UNK N   1      22.906  11.722   6.959  0.00  0.00     0.009 A 
HETATM   12  C   UNK N   1      23.597  11.170   8.045  0.00  0.00     0.003 A 
HETATM   13  C   UNK N   1      23.193  11.458   9.353  0.00  0.00     0.029 A 
HETATM   14  C   UNK N   1      22.083  12.274   9.574  0.00  0.00     0.026 A 
HETATM   15  C   UNK N   1      21.381  12.800   8.492  0.00  0.00     0.037 A 
BRANCH  14  16
HETATM   16  N   UNK N   1      21.688  12.595  10.888  0.00  0.00    -0.399 N 
HETATM   17  H   UNK N   1      22.086  12.806  11.762  0.00  0.00     0.156 HD
HETATM   18  H   UNK N   1      20.706  12.616  10.949  0.00  0.00     0.156 HD
ENDBRANCH  14  16
ENDBRANCH   9  10
ENDBRANCH   6   9
BRANCH   1  19
HETATM   19  C   UNK N   1      22.420  12.890   3.418  0.00  0.00     0.066 C 
BRANCH  19  20
HETATM   20  C   UNK N   1      21.407  12.768   2.312  0.00  0.00    -0.056 A 
HETATM   21  C   UNK N   1      20.808  13.952   1.861  0.00  0.00     0.007 A 
HETATM   22  C   UNK N   1      19.832  13.921   0.863  0.00  0.00     0.001 A 
HETATM   23  C   UNK N   1      19.440  12.700   0.313  0.00  0.00     0.000 A 
HETATM   24  C   UNK N   1      20.035  11.513   0.753  0.00  0.00     0.001 A 
HETATM   25  C   UNK N   1      21.021  11.545   1.748  0.00  0.00     0.007 A 
ENDBRANCH  19  20
ENDBRANCH   1  19
BRANCH   3  26
HETATM   26  O   UNK N   1      24.801  14.541   3.335  0.00  0.00    -0.391 OA
HETATM   27  H   UNK N   1      25.078  13.956   2.611  0.00  0.00     0.210 HD
ENDBRANCH   3  26
BRANCH   7  28
HETATM   28  C   UNK N   1      21.050  17.935   5.187  0.00  0.00     0.166 C 
BRANCH  28  29
HETATM   29  C   UNK N   1      20.925  18.541   3.821  0.00  0.00    -0.038 A 
HETATM   30  C   UNK N   1      20.982  19.932   3.670  0.00  0.00     0.009 A 
HETATM   31  C   UNK N   1      20.749  20.513   2.418  0.00  0.00     0.003 A 
HETATM   32  C   UNK N   1      20.435  19.707   1.319  0.00  0.00     0.029 A 
HETATM   33  C   UNK N   1      20.365  18.320   1.471  0.00  0.00     0.026 A 
HETATM   34  C   UNK N   1      20.604  17.742   2.717  0.00  0.00     0.037 A 
BRANCH  33  35
HETATM   35  N   UNK N   1      20.028  17.502   0.373  0.00  0.00    -0.399 N 
HETATM   36  H   UNK N   1      19.265  16.882   0.320  0.00  0.00     0.156 HD
HETATM   37  H   UNK N   1      20.614  17.557  -0.417  0.00  0.00     0.156 HD
ENDBRANCH  33  35
ENDBRANCH  28  29
ENDBRANCH   7  28
BRANCH   4  38
HETATM   38  O   UNK N   1      24.120  15.619   6.681  0.00  0.00    -0.391 OA
HETATM   39  H   UNK N   1      24.062  15.149   7.528  0.00  0.00     0.210 HD
ENDBRANCH   4  38
BRANCH   2  40
HETATM   40  C   UNK N   1      23.811  18.292   5.337  0.00  0.00     0.066 C 
BRANCH  40  41
HETATM   41  C   UNK N   1      24.845  19.081   4.620  0.00  0.00    -0.056 A 
HETATM   42  C   UNK N   1      24.453  19.786   3.479  0.00  0.00     0.007 A 
HETATM   43  C   UNK N   1      25.389  20.519   2.752  0.00  0.00     0.001 A 
HETATM   44  C   UNK N   1      26.723  20.546   3.164  0.00  0.00     0.000 A 
HETATM   45  C   UNK N   1      27.120  19.834   4.303  0.00  0.00     0.001 A 
HETATM   46  C   UNK N   1      26.181  19.094   5.031  0.00  0.00     0.007 A 
ENDBRANCH  40  41
ENDBRANCH   2  40
TORSDOF 12
ENDMDL
MODEL 5
REMARK VINA RESULT:      -7.2      8.662     13.171
REMARK  12 active torsions:
REMARK  status: ('A' for Active; 'I' for Inactive)
REMARK    1  A    between atoms: C_23  and  C_19 
REMARK    2  A    between atoms: C_29  and  C_19 
REMARK    3  A    between atoms: C_24  and  C_20 
REMARK    4  A    between atoms: C_30  and  C_20 
REMARK    5  A    between atoms: C_25  and  C_21 
REMARK    6  A    between atoms: N_36  and  C_21 
REMARK    7  A    between atoms: C_26  and  C_22 
REMARK    8  A    between atoms: N_37  and  C_22 
REMARK    9  A    between atoms: N_34  and  C_27 
REMARK   10  A    between atoms: N_35  and  C_28 
REMARK   11  A    between atoms: C_31  and  O_38 
REMARK   12  A    between atoms: C_32  and  O_39 
ROOT
HETATM    1  C   UNK N   1      25.887  16.099   5.243  0.00  0.00     0.124 C 
HETATM    2  C   UNK N   1      24.275  13.945   6.293  0.00  0.00     0.124 C 
HETATM    3  C   UNK N   1      26.480  15.305   6.401  0.00  0.00     0.172 C 
HETATM    4  C   UNK N   1      25.817  13.928   6.542  0.00  0.00     0.172 C 
HETATM    5  C   UNK N   1      24.758  14.415   3.828  0.00  0.00     0.322 C 
HETATM    6  N   UNK N   1      25.791  15.326   4.005  0.00  0.00    -0.322 N 
HETATM    7  N   UNK N   1      23.910  14.027   4.853  0.00  0.00    -0.322 N 
HETATM    8  O   UNK N   1      24.518  14.017   2.693  0.00  0.00    -0.247 OA
ENDROOT
BRANCH   6   9
HETATM    9  C   UNK N   1      26.587  15.744   2.854  0.00  0.00     0.166 C 
BRANCH   9  10
HETATM   10  C   UNK N   1      28.058  15.406   2.949  0.00  0.00    -0.038 A 
HETATM   11  C   UNK N   1      28.443  14.061   2.959  0.00  0.00     0.009 A 
HETATM   12  C   UNK N   1      29.800  13.715   2.990  0.00  0.00     0.003 A 
HETATM   13  C   UNK N   1      30.779  14.714   2.984  0.00  0.00     0.029 A 
HETATM   14  C   UNK N   1      30.402  16.058   2.976  0.00  0.00     0.026 A 
HETATM   15  C   UNK N   1      29.051  16.400   2.973  0.00  0.00     0.037 A 
BRANCH  14  16
HETATM   16  N   UNK N   1      31.380  17.070   2.938  0.00  0.00    -0.399 N 
HETATM   17  H   UNK N   1      31.841  17.693   3.545  0.00  0.00     0.156 HD
HETATM   18  H   UNK N   1      31.704  17.193   2.017  0.00  0.00     0.156 HD
ENDBRANCH  14  16
ENDBRANCH   9  10
ENDBRANCH   6   9
BRANCH   1  19
HETATM   19  C   UNK N   1      26.432  17.546   5.112  0.00  0.00     0.066 C 
BRANCH  19  20
HETATM   20  C   UNK N   1      25.771  18.646   4.327  0.00  0.00    -0.056 A 
HETATM   21  C   UNK N   1      24.370  18.657   4.296  0.00  0.00     0.007 A 
HETATM   22  C   UNK N   1      23.681  19.623   3.560  0.00  0.00     0.001 A 
HETATM   23  C   UNK N   1      24.392  20.584   2.838  0.00  0.00     0.000 A 
HETATM   24  C   UNK N   1      25.791  20.584   2.866  0.00  0.00     0.001 A 
HETATM   25  C   UNK N   1      26.481  19.620   3.612  0.00  0.00     0.007 A 
ENDBRANCH  19  20
ENDBRANCH   1  19
BRANCH   3  26
HETATM   26  O   UNK N   1      26.269  16.033   7.579  0.00  0.00    -0.391 OA
HETATM   27  H   UNK N   1      26.653  16.786   8.057  0.00  0.00     0.210 HD
ENDBRANCH   3  26
BRANCH   7  28
HETATM   28  C   UNK N   1      22.531  13.692   4.486  0.00  0.00     0.166 C 
BRANCH  28  29
HETATM   29  C   UNK N   1      21.586  14.850   4.360  0.00  0.00    -0.038 A 
HETATM   30  C   UNK N   1      21.035  15.426   5.511  0.00  0.00     0.009 A 
HETATM   31  C   UNK N   1      20.064  16.428   5.399  0.00  0.00     0.003 A 
HETATM   32  C   UNK N   1      19.625  16.841   4.136  0.00  0.00     0.029 A 
HETATM   33  C   UNK N   1      20.165  16.258   2.987  0.00  0.00     0.026 A 
HETATM   34  C   UNK N   1      21.138  15.265   3.101  0.00  0.00     0.037 A 
BRANCH  33  35
HETATM   35  N   UNK N   1      19.714  16.654   1.712  0.00  0.00    -0.399 N 
HETATM   36  H   UNK N   1      20.150  16.458   0.852  0.00  0.00     0.156 HD
HETATM   37  H   UNK N   1      18.880  17.177   1.679  0.00  0.00     0.156 HD
ENDBRANCH  33  35
ENDBRANCH  28  29
ENDBRANCH   7  28
BRANCH   4  38
HETATM   38  O   UNK N   1      26.419  13.000   5.682  0.00  0.00    -0.391 OA
HETATM   39  H   UNK N   1      26.990  12.670   4.971  0.00  0.00     0.210 HD
ENDBRANCH   4  38
BRANCH   2  40
HETATM   40  C   UNK N   1      23.654  12.625   6.805  0.00  0.00     0.066 C 
BRANCH  40  41
HETATM   41  C   UNK N   1      23.071  12.523   8.168  0.00  0.00    -0.056 A 
HETATM   42  C   UNK N   1      22.086  13.446   8.526  0.00  0.00     0.007 A 
HETATM   43  C   UNK N   1      21.526  13.415   9.802  0.00  0.00     0.001 A 
HETATM   44  C   UNK N   1      21.955  12.458  10.725  0.00  0.00     0.000 A 
HETATM   45  C   UNK N   1      22.948  11.537  10.371  0.00  0.00     0.001 A 
HETATM   46  C   UNK N   1      23.513  11.571   9.091  0.00  0.00     0.007 A 
ENDBRANCH  40  41
ENDBRANCH   2  40
TORSDOF 12
ENDMDL
MODEL 6
REMARK VINA RESULT:      -7.1     10.000     14.260
REMARK  12 active torsions:
REMARK  status: ('A' for Active; 'I' for Inactive)
REMARK    1  A    between atoms: C_23  and  C_19 
REMARK    2  A    between atoms: C_29  and  C_19 
REMARK    3  A    between atoms: C_24  and  C_20 
REMARK    4  A    between atoms: C_30  and  C_20 
REMARK    5  A    between atoms: C_25  and  C_21 
REMARK    6  A    between atoms: N_36  and  C_21 
REMARK    7  A    between atoms: C_26  and  C_22 
REMARK    8  A    between atoms: N_37  and  C_22 
REMARK    9  A    between atoms: N_34  and  C_27 
REMARK   10  A    between atoms: N_35  and  C_28 
REMARK   11  A    between atoms: C_31  and  O_38 
REMARK   12  A    between atoms: C_32  and  O_39 
ROOT
HETATM    1  C   UNK N   1      22.523  14.577   4.720  0.00  0.00     0.124 C 
HETATM    2  C   UNK N   1      24.284  16.864   4.807  0.00  0.00     0.124 C 
HETATM    3  C   UNK N   1      24.014  14.285   4.844  0.00  0.00     0.172 C 
HETATM    4  C   UNK N   1      24.786  15.500   5.379  0.00  0.00     0.172 C 
HETATM    5  C   UNK N   1      22.137  16.551   6.156  0.00  0.00     0.322 C 
HETATM    6  N   UNK N   1      21.955  15.196   5.917  0.00  0.00    -0.322 N 
HETATM    7  N   UNK N   1      23.017  17.335   5.428  0.00  0.00    -0.322 N 
HETATM    8  O   UNK N   1      21.411  17.103   6.977  0.00  0.00    -0.247 OA
ENDROOT
BRANCH   6   9
HETATM    9  C   UNK N   1      20.948  14.459   6.676  0.00  0.00     0.166 C 
BRANCH   9  10
HETATM   10  C   UNK N   1      21.493  13.664   7.841  0.00  0.00    -0.038 A 
HETATM   11  C   UNK N   1      21.049  13.968   9.132  0.00  0.00     0.009 A 
HETATM   12  C   UNK N   1      21.492  13.214  10.227  0.00  0.00     0.003 A 
HETATM   13  C   UNK N   1      22.361  12.135  10.030  0.00  0.00     0.029 A 
HETATM   14  C   UNK N   1      22.809  11.829   8.745  0.00  0.00     0.026 A 
HETATM   15  C   UNK N   1      22.389  12.597   7.661  0.00  0.00     0.037 A 
BRANCH  14  16
HETATM   16  N   UNK N   1      23.658  10.725   8.532  0.00  0.00    -0.399 N 
HETATM   17  H   UNK N   1      23.706   9.907   7.988  0.00  0.00     0.156 HD
HETATM   18  H   UNK N   1      24.453  10.795   9.109  0.00  0.00     0.156 HD
ENDBRANCH  14  16
ENDBRANCH   9  10
ENDBRANCH   6   9
BRANCH   1  19
HETATM   19  C   UNK N   1      21.698  13.431   4.078  0.00  0.00     0.066 C 
BRANCH  19  20
HETATM   20  C   UNK N   1      20.846  13.570   2.845  0.00  0.00    -0.056 A 
HETATM   21  C   UNK N   1      20.548  12.397   2.138  0.00  0.00     0.007 A 
HETATM   22  C   UNK N   1      19.794  12.446   0.965  0.00  0.00     0.001 A 
HETATM   23  C   UNK N   1      19.338  13.674   0.482  0.00  0.00     0.000 A 
HETATM   24  C   UNK N   1      19.626  14.850   1.182  0.00  0.00     0.001 A 
HETATM   25  C   UNK N   1      20.375  14.800   2.365  0.00  0.00     0.007 A 
ENDBRANCH  19  20
ENDBRANCH   1  19
BRANCH   3  26
HETATM   26  O   UNK N   1      24.501  13.963   3.571  0.00  0.00    -0.391 OA
HETATM   27  H   UNK N   1      24.927  14.399   2.815  0.00  0.00     0.210 HD
ENDBRANCH   3  26
BRANCH   7  28
HETATM   28  C   UNK N   1      22.653  18.742   5.234  0.00  0.00     0.166 C 
BRANCH  28  29
HETATM   29  C   UNK N   1      21.936  19.064   3.956  0.00  0.00    -0.038 A 
HETATM   30  C   UNK N   1      22.456  20.037   3.094  0.00  0.00     0.009 A 
HETATM   31  C   UNK N   1      21.735  20.428   1.960  0.00  0.00     0.003 A 
HETATM   32  C   UNK N   1      20.482  19.864   1.697  0.00  0.00     0.029 A 
HETATM   33  C   UNK N   1      19.957  18.902   2.563  0.00  0.00     0.026 A 
HETATM   34  C   UNK N   1      20.680  18.509   3.689  0.00  0.00     0.037 A 
BRANCH  33  35
HETATM   35  N   UNK N   1      18.686  18.344   2.317  0.00  0.00    -0.399 N 
HETATM   36  H   UNK N   1      18.238  18.277   1.442  0.00  0.00     0.156 HD
HETATM   37  H   UNK N   1      18.199  17.989   3.095  0.00  0.00     0.156 HD
ENDBRANCH  33  35
ENDBRANCH  28  29
ENDBRANCH   7  28
BRANCH   4  38
HETATM   38  O   UNK N   1      24.740  15.536   6.779  0.00  0.00    -0.391 OA
HETATM   39  H   UNK N   1      24.804  15.907   7.673  0.00  0.00     0.210 HD
ENDBRANCH   4  38
BRANCH   2  40
HETATM   40  C   UNK N   1      25.328  17.965   5.106  0.00  0.00     0.066 C 
BRANCH  40  41
HETATM   41  C   UNK N   1      26.784  17.705   4.972  0.00  0.00    -0.056 A 
HETATM   42  C   UNK N   1      27.263  17.309   3.722  0.00  0.00     0.007 A 
HETATM   43  C   UNK N   1      28.617  17.024   3.547  0.00  0.00     0.001 A 
HETATM   44  C   UNK N   1      29.494  17.133   4.629  0.00  0.00     0.000 A 
HETATM   45  C   UNK N   1      29.015  17.522   5.885  0.00  0.00     0.001 A 
HETATM   46  C   UNK N   1      27.656  17.805   6.061  0.00  0.00     0.007 A 
ENDBRANCH  40  41
ENDBRANCH   2  40
TORSDOF 12
ENDMDL
MODEL 7
REMARK VINA RESULT:      -7.0      8.539     12.757
REMARK  12 active torsions:
REMARK  status: ('A' for Active; 'I' for Inactive)
REMARK    1  A    between atoms: C_23  and  C_19 
REMARK    2  A    between atoms: C_29  and  C_19 
REMARK    3  A    between atoms: C_24  and  C_20 
REMARK    4  A    between atoms: C_30  and  C_20 
REMARK    5  A    between atoms: C_25  and  C_21 
REMARK    6  A    between atoms: N_36  and  C_21 
REMARK    7  A    between atoms: C_26  and  C_22 
REMARK    8  A    between atoms: N_37  and  C_22 
REMARK    9  A    between atoms: N_34  and  C_27 
REMARK   10  A    between atoms: N_35  and  C_28 
REMARK   11  A    between atoms: C_31  and  O_38 
REMARK   12  A    between atoms: C_32  and  O_39 
ROOT
HETATM    1  C   UNK N   1      26.352  15.930   5.103  0.00  0.00     0.124 C 
HETATM    2  C   UNK N   1      23.853  14.655   5.788  0.00  0.00     0.124 C 
HETATM    3  C   UNK N   1      26.359  15.031   6.335  0.00  0.00     0.172 C 
HETATM    4  C   UNK N   1      25.187  14.041   6.320  0.00  0.00     0.172 C 
HETATM    5  C   UNK N   1      24.917  14.758   3.467  0.00  0.00     0.322 C 
HETATM    6  N   UNK N   1      26.178  15.192   3.853  0.00  0.00    -0.322 N 
HETATM    7  N   UNK N   1      23.816  14.795   4.307  0.00  0.00    -0.322 N 
HETATM    8  O   UNK N   1      24.745  14.425   2.299  0.00  0.00    -0.247 OA
ENDROOT
BRANCH   6   9
HETATM    9  C   UNK N   1      27.267  15.194   2.880  0.00  0.00     0.166 C 
BRANCH   9  10
HETATM   10  C   UNK N   1      28.151  13.968   2.919  0.00  0.00    -0.038 A 
HETATM   11  C   UNK N   1      28.161  13.107   1.817  0.00  0.00     0.009 A 
HETATM   12  C   UNK N   1      29.009  11.993   1.798  0.00  0.00     0.003 A 
HETATM   13  C   UNK N   1      29.872  11.750   2.873  0.00  0.00     0.029 A 
HETATM   14  C   UNK N   1      29.865  12.604   3.976  0.00  0.00     0.026 A 
HETATM   15  C   UNK N   1      29.001  13.696   4.005  0.00  0.00     0.037 A 
BRANCH  14  16
HETATM   16  N   UNK N   1      30.752  12.386   5.048  0.00  0.00    -0.399 N 
HETATM   17  H   UNK N   1      30.742  12.073   5.981  0.00  0.00     0.156 HD
HETATM   18  H   UNK N   1      31.670  12.619   4.780  0.00  0.00     0.156 HD
ENDBRANCH  14  16
ENDBRANCH   9  10
ENDBRANCH   6   9
BRANCH   1  19
HETATM   19  C   UNK N   1      27.444  17.032   5.108  0.00  0.00     0.066 C 
BRANCH  19  20
HETATM   20  C   UNK N   1      27.188  18.495   5.350  0.00  0.00    -0.056 A 
HETATM   21  C   UNK N   1      26.311  19.144   4.472  0.00  0.00     0.007 A 
HETATM   22  C   UNK N   1      26.049  20.509   4.606  0.00  0.00     0.001 A 
HETATM   23  C   UNK N   1      26.673  21.239   5.620  0.00  0.00     0.000 A 
HETATM   24  C   UNK N   1      27.546  20.599   6.505  0.00  0.00     0.001 A 
HETATM   25  C   UNK N   1      27.802  19.228   6.375  0.00  0.00     0.007 A 
ENDBRANCH  19  20
ENDBRANCH   1  19
BRANCH   3  26
HETATM   26  O   UNK N   1      26.250  15.847   7.468  0.00  0.00    -0.391 OA
HETATM   27  H   UNK N   1      25.565  16.181   8.070  0.00  0.00     0.210 HD
ENDBRANCH   3  26
BRANCH   7  28
HETATM   28  C   UNK N   1      22.508  15.015   3.683  0.00  0.00     0.166 C 
BRANCH  28  29
HETATM   29  C   UNK N   1      22.085  16.447   3.534  0.00  0.00    -0.038 A 
HETATM   30  C   UNK N   1      22.897  17.468   4.044  0.00  0.00     0.009 A 
HETATM   31  C   UNK N   1      22.457  18.796   4.015  0.00  0.00     0.003 A 
HETATM   32  C   UNK N   1      21.194  19.105   3.498  0.00  0.00     0.029 A 
HETATM   33  C   UNK N   1      20.378  18.086   3.000  0.00  0.00     0.026 A 
HETATM   34  C   UNK N   1      20.821  16.764   3.024  0.00  0.00     0.037 A 
BRANCH  33  35
HETATM   35  N   UNK N   1      19.096  18.386   2.497  0.00  0.00    -0.399 N 
HETATM   36  H   UNK N   1      18.251  18.362   3.002  0.00  0.00     0.156 HD
HETATM   37  H   UNK N   1      19.041  18.645   1.549  0.00  0.00     0.156 HD
ENDBRANCH  33  35
ENDBRANCH  28  29
ENDBRANCH   7  28
BRANCH   4  38
HETATM   38  O   UNK N   1      25.510  12.904   5.567  0.00  0.00    -0.391 OA
HETATM   39  H   UNK N   1      25.461  11.988   5.253  0.00  0.00     0.210 HD
ENDBRANCH   4  38
BRANCH   2  40
HETATM   40  C   UNK N   1      22.674  13.720   6.146  0.00  0.00     0.066 C 
BRANCH  40  41
HETATM   41  C   UNK N   1      21.960  13.841   7.444  0.00  0.00    -0.056 A 
HETATM   42  C   UNK N   1      22.047  12.770   8.337  0.00  0.00     0.007 A 
HETATM   43  C   UNK N   1      21.373  12.818   9.556  0.00  0.00     0.001 A 
HETATM   44  C   UNK N   1      20.607  13.939   9.883  0.00  0.00     0.000 A 
HETATM   45  C   UNK N   1      20.512  15.010   8.986  0.00  0.00     0.001 A 
HETATM   46  C   UNK N   1      21.185  14.960   7.760  0.00  0.00     0.007 A 
ENDBRANCH  40  41
ENDBRANCH   2  40
TORSDOF 12
ENDMDL
MODEL 8
REMARK VINA RESULT:      -6.9     16.495     20.679
REMARK  12 active torsions:
REMARK  status: ('A' for Active; 'I' for Inactive)
REMARK    1  A    between atoms: C_23  and  C_19 
REMARK    2  A    between atoms: C_29  and  C_19 
REMARK    3  A    between atoms: C_24  and  C_20 
REMARK    4  A    between atoms: C_30  and  C_20 
REMARK    5  A    between atoms: C_25  and  C_21 
REMARK    6  A    between atoms: N_36  and  C_21 
REMARK    7  A    between atoms: C_26  and  C_22 
REMARK    8  A    between atoms: N_37  and  C_22 
REMARK    9  A    between atoms: N_34  and  C_27 
REMARK   10  A    between atoms: N_35  and  C_28 
REMARK   11  A    between atoms: C_31  and  O_38 
REMARK   12  A    between atoms: C_32  and  O_39 
ROOT
HETATM    1  C   UNK N   1      27.239  27.782  -5.670  0.00  0.00     0.124 C 
HETATM    2  C   UNK N   1      26.481  24.996  -5.605  0.00  0.00     0.124 C 
HETATM    3  C   UNK N   1      26.276  27.312  -6.754  0.00  0.00     0.172 C 
HETATM    4  C   UNK N   1      25.561  26.015  -6.352  0.00  0.00     0.172 C 
HETATM    5  C   UNK N   1      26.517  26.605  -3.620  0.00  0.00     0.322 C 
HETATM    6  N   UNK N   1      26.645  27.789  -4.334  0.00  0.00    -0.322 N 
HETATM    7  N   UNK N   1      26.730  25.358  -4.183  0.00  0.00    -0.322 N 
HETATM    8  O   UNK N   1      26.312  26.670  -2.412  0.00  0.00    -0.247 OA
ENDROOT
BRANCH   6   9
HETATM    9  C   UNK N   1      26.483  29.067  -3.645  0.00  0.00     0.166 C 
BRANCH   9  10
HETATM   10  C   UNK N   1      27.701  29.526  -2.875  0.00  0.00    -0.038 A 
HETATM   11  C   UNK N   1      27.588  30.638  -2.034  0.00  0.00     0.009 A 
HETATM   12  C   UNK N   1      28.682  31.055  -1.266  0.00  0.00     0.003 A 
HETATM   13  C   UNK N   1      29.886  30.345  -1.315  0.00  0.00     0.029 A 
HETATM   14  C   UNK N   1      30.006  29.236  -2.153  0.00  0.00     0.026 A 
HETATM   15  C   UNK N   1      28.925  28.839  -2.938  0.00  0.00     0.037 A 
BRANCH  14  16
HETATM   16  N   UNK N   1      31.204  28.496  -2.186  0.00  0.00    -0.399 N 
HETATM   17  H   UNK N   1      31.511  27.569  -2.302  0.00  0.00     0.156 HD
HETATM   18  H   UNK N   1      31.974  29.094  -2.052  0.00  0.00     0.156 HD
ENDBRANCH  14  16
ENDBRANCH   9  10
ENDBRANCH   6   9
BRANCH   1  19
HETATM   19  C   UNK N   1      28.080  29.027  -6.058  0.00  0.00     0.066 C 
BRANCH  19  20
HETATM   20  C   UNK N   1      29.571  29.029  -6.259  0.00  0.00    -0.056 A 
HETATM   21  C   UNK N   1      30.211  27.783  -6.311  0.00  0.00     0.007 A 
HETATM   22  C   UNK N   1      31.596  27.699  -6.459  0.00  0.00     0.001 A 
HETATM   23  C   UNK N   1      32.358  28.866  -6.547  0.00  0.00     0.000 A 
HETATM   24  C   UNK N   1      31.729  30.115  -6.500  0.00  0.00     0.001 A 
HETATM   25  C   UNK N   1      30.337  30.198  -6.361  0.00  0.00     0.007 A 
ENDBRANCH  19  20
ENDBRANCH   1  19
BRANCH   3  26
HETATM   26  O   UNK N   1      27.015  27.080  -7.921  0.00  0.00    -0.391 OA
HETATM   27  H   UNK N   1      26.864  26.896  -8.862  0.00  0.00     0.210 HD
ENDBRANCH   3  26
BRANCH   7  28
HETATM   28  C   UNK N   1      27.266  24.313  -3.306  0.00  0.00     0.166 C 
BRANCH  28  29
HETATM   29  C   UNK N   1      28.753  24.117  -3.354  0.00  0.00    -0.038 A 
HETATM   30  C   UNK N   1      29.574  25.143  -3.837  0.00  0.00     0.009 A 
HETATM   31  C   UNK N   1      30.948  24.927  -3.996  0.00  0.00     0.003 A 
HETATM   32  C   UNK N   1      31.501  23.678  -3.695  0.00  0.00     0.029 A 
HETATM   33  C   UNK N   1      30.681  22.649  -3.224  0.00  0.00     0.026 A 
HETATM   34  C   UNK N   1      29.314  22.868  -3.060  0.00  0.00     0.037 A 
BRANCH  33  35
HETATM   35  N   UNK N   1      31.227  21.382  -2.938  0.00  0.00    -0.399 N 
HETATM   36  H   UNK N   1      31.461  21.035  -2.047  0.00  0.00     0.156 HD
HETATM   37  H   UNK N   1      31.391  20.786  -3.705  0.00  0.00     0.156 HD
ENDBRANCH  33  35
ENDBRANCH  28  29
ENDBRANCH   7  28
BRANCH   4  38
HETATM   38  O   UNK N   1      24.437  26.294  -5.563  0.00  0.00    -0.391 OA
HETATM   39  H   UNK N   1      23.647  26.766  -5.256  0.00  0.00     0.210 HD
ENDBRANCH   4  38
BRANCH   2  40
HETATM   40  C   UNK N   1      25.796  23.611  -5.569  0.00  0.00     0.066 C 
BRANCH  40  41
HETATM   41  C   UNK N   1      26.063  22.590  -6.615  0.00  0.00    -0.056 A 
HETATM   42  C   UNK N   1      27.379  22.438  -7.056  0.00  0.00     0.007 A 
HETATM   43  C   UNK N   1      27.681  21.515  -8.057  0.00  0.00     0.001 A 
HETATM   44  C   UNK N   1      26.662  20.744  -8.621  0.00  0.00     0.000 A 
HETATM   45  C   UNK N   1      25.341  20.901  -8.186  0.00  0.00     0.001 A 
HETATM   46  C   UNK N   1      25.037  21.830  -7.184  0.00  0.00     0.007 A 
ENDBRANCH  40  41
ENDBRANCH   2  40
TORSDOF 12
ENDMDL
MODEL 9
REMARK VINA RESULT:      -6.8     15.057     19.850
REMARK  12 active torsions:
REMARK  status: ('A' for Active; 'I' for Inactive)
REMARK    1  A    between atoms: C_23  and  C_19 
REMARK    2  A    between atoms: C_29  and  C_19 
REMARK    3  A    between atoms: C_24  and  C_20 
REMARK    4  A    between atoms: C_30  and  C_20 
REMARK    5  A    between atoms: C_25  and  C_21 
REMARK    6  A    between atoms: N_36  and  C_21 
REMARK    7  A    between atoms: C_26  and  C_22 
REMARK    8  A    between atoms: N_37  and  C_22 
REMARK    9  A    between atoms: N_34  and  C_27 
REMARK   10  A    between atoms: N_35  and  C_28 
REMARK   11  A    between atoms: C_31  and  O_38 
REMARK   12  A    between atoms: C_32  and  O_39 
ROOT
HETATM    1  C   UNK N   1      29.958  23.300  -6.205  0.00  0.00     0.124 C 
HETATM    2  C   UNK N   1      30.635  26.067  -5.729  0.00  0.00     0.124 C 
HETATM    3  C   UNK N   1      31.065  23.890  -7.071  0.00  0.00     0.172 C 
HETATM    4  C   UNK N   1      31.681  25.140  -6.428  0.00  0.00     0.172 C 
HETATM    5  C   UNK N   1      30.330  24.253  -3.956  0.00  0.00     0.322 C 
HETATM    6  N   UNK N   1      30.340  23.153  -4.802  0.00  0.00    -0.322 N 
HETATM    7  N   UNK N   1      30.179  25.553  -4.410  0.00  0.00    -0.322 N 
HETATM    8  O   UNK N   1      30.349  24.059  -2.744  0.00  0.00    -0.247 OA
ENDROOT
BRANCH   6   9
HETATM    9  C   UNK N   1      30.422  21.809  -4.235  0.00  0.00     0.166 C 
BRANCH   9  10
HETATM   10  C   UNK N   1      31.807  21.201  -4.251  0.00  0.00    -0.038 A 
HETATM   11  C   UNK N   1      32.620  21.344  -3.123  0.00  0.00     0.009 A 
HETATM   12  C   UNK N   1      33.886  20.746  -3.084  0.00  0.00     0.003 A 
HETATM   13  C   UNK N   1      34.332  19.978  -4.165  0.00  0.00     0.029 A 
HETATM   14  C   UNK N   1      33.526  19.833  -5.295  0.00  0.00     0.026 A 
HETATM   15  C   UNK N   1      32.279  20.451  -5.342  0.00  0.00     0.037 A 
BRANCH  14  16
HETATM   16  N   UNK N   1      33.953  19.036  -6.375  0.00  0.00    -0.399 N 
HETATM   17  H   UNK N   1      33.576  18.507  -7.114  0.00  0.00     0.156 HD
HETATM   18  H   UNK N   1      34.936  18.995  -6.397  0.00  0.00     0.156 HD
ENDBRANCH  14  16
ENDBRANCH   9  10
ENDBRANCH   6   9
BRANCH   1  19
HETATM   19  C   UNK N   1      29.214  22.100  -6.848  0.00  0.00     0.066 C 
BRANCH  19  20
HETATM   20  C   UNK N   1      27.737  22.055  -7.130  0.00  0.00    -0.056 A 
HETATM   21  C   UNK N   1      27.286  21.073  -8.023  0.00  0.00     0.007 A 
HETATM   22  C   UNK N   1      25.936  20.988  -8.366  0.00  0.00     0.001 A 
HETATM   23  C   UNK N   1      25.022  21.894  -7.823  0.00  0.00     0.000 A 
HETATM   24  C   UNK N   1      25.461  22.875  -6.927  0.00  0.00     0.001 A 
HETATM   25  C   UNK N   1      26.815  22.954  -6.577  0.00  0.00     0.007 A 
ENDBRANCH  19  20
ENDBRANCH   1  19
BRANCH   3  26
HETATM   26  O   UNK N   1      30.509  24.243  -8.307  0.00  0.00    -0.391 OA
HETATM   27  H   UNK N   1      29.890  23.885  -8.964  0.00  0.00     0.210 HD
ENDBRANCH   3  26
BRANCH   7  28
HETATM   28  C   UNK N   1      29.491  26.494  -3.521  0.00  0.00     0.166 C 
BRANCH  28  29
HETATM   29  C   UNK N   1      28.123  26.928  -3.958  0.00  0.00    -0.038 A 
HETATM   30  C   UNK N   1      27.380  26.115  -4.822  0.00  0.00     0.009 A 
HETATM   31  C   UNK N   1      26.154  26.564  -5.328  0.00  0.00     0.003 A 
HETATM   32  C   UNK N   1      25.680  27.836  -4.991  0.00  0.00     0.029 A 
HETATM   33  C   UNK N   1      26.427  28.653  -4.138  0.00  0.00     0.026 A 
HETATM   34  C   UNK N   1      27.644  28.201  -3.630  0.00  0.00     0.037 A 
BRANCH  33  35
HETATM   35  N   UNK N   1      25.966  29.944  -3.810  0.00  0.00    -0.399 N 
HETATM   36  H   UNK N   1      25.879  30.706  -4.427  0.00  0.00     0.156 HD
HETATM   37  H   UNK N   1      25.707  30.098  -2.872  0.00  0.00     0.156 HD
ENDBRANCH  33  35
ENDBRANCH  28  29
ENDBRANCH   7  28
BRANCH   4  38
HETATM   38  O   UNK N   1      32.676  24.784  -5.508  0.00  0.00    -0.391 OA
HETATM   39  H   UNK N   1      33.569  24.660  -5.151  0.00  0.00     0.210 HD
ENDBRANCH   4  38
BRANCH   2  40
HETATM   40  C   UNK N   1      31.275  27.445  -5.441  0.00  0.00     0.066 C 
BRANCH  40  41
HETATM   41  C   UNK N   1      30.543  28.708  -5.713  0.00  0.00    -0.056 A 
HETATM   42  C   UNK N   1      29.593  28.703  -6.736  0.00  0.00     0.007 A 
HETATM   43  C   UNK N   1      28.897  29.869  -7.054  0.00  0.00     0.001 A 
HETATM   44  C   UNK N   1      29.156  31.045  -6.347  0.00  0.00     0.000 A 
HETATM   45  C   UNK N   1      30.114  31.055  -5.327  0.00  0.00     0.001 A 
HETATM   46  C   UNK N   1      30.815  29.886  -5.011  0.00  0.00     0.007 A 
ENDBRANCH  40  41
ENDBRANCH   2  40
TORSDOF 12
ENDMDL
