REMARK  2 active torsions:
REMARK  status: ('A' for Active; 'I' for Inactive)
REMARK    1  A    between atoms: S_5  and  C_3 
REMARK    2  A    between atoms: S_6  and  C_3 
ROOT
HETATM    1  C   UNK N   1      -0.934  -0.705  -0.453  0.00  0.00     0.181 C 
ENDROOT
BRANCH   1   2
HETATM    2  S   UNK N   1       0.005  -2.231  -0.152  0.00  0.00    -0.161 SA
HETATM    3  C   UNK N   1      -1.495  -3.186   0.201  0.00  0.00     0.090 C 
ENDBRANCH   1   2
BRANCH   1   4
HETATM    4  S   UNK N   1      -0.402   0.589   0.706  0.00  0.00     0.020 S 
HETATM    5  C   UNK N   1      -1.303   1.871  -0.209  0.00  0.00     0.128 C 
HETATM    6  O   UNK N   1       0.880   0.861  -0.093  0.00  0.00    -0.258 OA
ENDBRANCH   1   4
TORSDOF 2
