MODEL 1
REMARK VINA RESULT:      -6.3      0.000      0.000
REMARK  11 active torsions:
REMARK  status: ('A' for Active; 'I' for Inactive)
REMARK    1  A    between atoms: C_2  and  C_3 
REMARK    2  A    between atoms: C_3  and  O_4 
REMARK    3  A    between atoms: C_5  and  C_6 
REMARK    4  A    between atoms: C_7  and  C_8 
REMARK    5  A    between atoms: C_10  and  C_11 
REMARK    6  A    between atoms: C_12  and  C_13 
REMARK    7  A    between atoms: C_14  and  C_16 
REMARK    8  A    between atoms: C_17  and  C_18 
REMARK    9  A    between atoms: C_19  and  C_21 
REMARK   10  A    between atoms: C_22  and  C_23 
REMARK   11  A    between atoms: C_27  and  O_28 
ROOT
HETATM    1  C   UNK N   1      31.118  25.070  -4.107  0.00  0.00     0.007 C 
HETATM    2  C   UNK N   1      31.096  23.775  -3.777  0.00  0.00     0.001 C 
ENDROOT
BRANCH   1   3
HETATM    3  C   UNK N   1      31.944  25.692  -5.170  0.00  0.00    -0.062 C 
HETATM    4  C   UNK N   1      31.423  25.988  -6.373  0.00  0.00     0.007 C 
HETATM    5  C   UNK N   1      33.383  26.017  -4.933  0.00  0.00     0.048 C 
BRANCH   4   6
HETATM    6  C   UNK N   1      30.017  25.786  -6.812  0.00  0.00     0.001 C 
HETATM    7  C   UNK N   1      29.597  25.921  -8.075  0.00  0.00     0.001 C 
BRANCH   7   8
HETATM    8  C   UNK N   1      28.193  25.718  -8.494  0.00  0.00     0.007 C 
HETATM    9  C   UNK N   1      27.076  26.340  -8.059  0.00  0.00    -0.062 C 
HETATM   10  C   UNK N   1      25.779  25.874  -8.624  0.00  0.00     0.048 C 
BRANCH   9  11
HETATM   11  C   UNK N   1      27.015  27.464  -7.087  0.00  0.00     0.007 C 
HETATM   12  C   UNK N   1      26.630  27.350  -5.815  0.00  0.00     0.001 C 
BRANCH  12  13
HETATM   13  C   UNK N   1      26.525  28.477  -4.858  0.00  0.00     0.004 C 
HETATM   14  C   UNK N   1      27.423  28.855  -3.934  0.00  0.00    -0.061 C 
HETATM   15  C   UNK N   1      28.716  28.122  -3.725  0.00  0.00     0.045 C 
BRANCH  14  16
HETATM   16  C   UNK N   1      27.092  30.053  -3.093  0.00  0.00     0.198 C 
BRANCH  16  17
HETATM   17  O   UNK N   1      25.975  30.732  -3.581  0.00  0.00    -0.397 OA
HETATM   18  H   UNK N   1      25.488  31.350  -3.014  0.00  0.00     0.209 HD
ENDBRANCH  16  17
ENDBRANCH  14  16
ENDBRANCH  12  13
ENDBRANCH   9  11
ENDBRANCH   7   8
ENDBRANCH   4   6
ENDBRANCH   1   3
BRANCH   2  19
HETATM   19  C   UNK N   1      31.956  22.753  -4.395  0.00  0.00     0.007 C 
HETATM   20  C   UNK N   1      31.507  21.832  -5.267  0.00  0.00    -0.062 C 
HETATM   21  C   UNK N   1      32.499  20.892  -5.855  0.00  0.00     0.048 C 
BRANCH  20  22
HETATM   22  C   UNK N   1      30.081  21.658  -5.658  0.00  0.00     0.007 C 
HETATM   23  C   UNK N   1      29.470  22.360  -6.621  0.00  0.00     0.009 C 
BRANCH  23  24
HETATM   24  C   UNK N   1      28.046  22.167  -7.016  0.00  0.00    -0.048 C 
HETATM   25  C   UNK N   1      27.082  22.869  -6.357  0.00  0.00    -0.074 C 
HETATM   26  C   UNK N   1      27.434  23.792  -5.229  0.00  0.00     0.044 C 
HETATM   27  C   UNK N   1      25.626  22.768  -6.727  0.00  0.00     0.066 C 
HETATM   28  C   UNK N   1      25.444  22.364  -8.180  0.00  0.00     0.123 C 
HETATM   29  C   UNK N   1      26.174  21.055  -8.380  0.00  0.00     0.045 C 
HETATM   30  C   UNK N   1      27.682  21.219  -8.173  0.00  0.00    -0.018 C 
HETATM   31  C   UNK N   1      28.292  21.745  -9.463  0.00  0.00     0.020 C 
HETATM   32  C   UNK N   1      28.224  19.825  -7.911  0.00  0.00     0.020 C 
BRANCH  28  33
HETATM   33  O   UNK N   1      24.088  22.186  -8.446  0.00  0.00    -0.395 OA
HETATM   34  H   UNK N   1      23.636  22.757  -9.087  0.00  0.00     0.210 HD
ENDBRANCH  28  33
ENDBRANCH  23  24
ENDBRANCH  20  22
ENDBRANCH   2  19
TORSDOF 11
ENDMDL
MODEL 2
REMARK VINA RESULT:      -6.2      2.308      5.626
REMARK  11 active torsions:
REMARK  status: ('A' for Active; 'I' for Inactive)
REMARK    1  A    between atoms: C_2  and  C_3 
REMARK    2  A    between atoms: C_3  and  O_4 
REMARK    3  A    between atoms: C_5  and  C_6 
REMARK    4  A    between atoms: C_7  and  C_8 
REMARK    5  A    between atoms: C_10  and  C_11 
REMARK    6  A    between atoms: C_12  and  C_13 
REMARK    7  A    between atoms: C_14  and  C_16 
REMARK    8  A    between atoms: C_17  and  C_18 
REMARK    9  A    between atoms: C_19  and  C_21 
REMARK   10  A    between atoms: C_22  and  C_23 
REMARK   11  A    between atoms: C_27  and  O_28 
ROOT
HETATM    1  C   UNK N   1      27.333  23.609 -10.160  0.00  0.00     0.007 C 
HETATM    2  C   UNK N   1      28.551  24.158 -10.134  0.00  0.00     0.001 C 
ENDROOT
BRANCH   1   3
HETATM    3  C   UNK N   1      26.043  24.325 -10.010  0.00  0.00    -0.062 C 
HETATM    4  C   UNK N   1      25.423  24.402  -8.820  0.00  0.00     0.007 C 
HETATM    5  C   UNK N   1      25.395  24.993 -11.179  0.00  0.00     0.048 C 
BRANCH   4   6
HETATM    6  C   UNK N   1      25.901  23.845  -7.526  0.00  0.00     0.001 C 
HETATM    7  C   UNK N   1      25.983  24.547  -6.390  0.00  0.00     0.001 C 
BRANCH   7   8
HETATM    8  C   UNK N   1      26.462  23.978  -5.112  0.00  0.00     0.007 C 
HETATM    9  C   UNK N   1      26.979  24.613  -4.038  0.00  0.00    -0.062 C 
HETATM   10  C   UNK N   1      27.441  23.761  -2.907  0.00  0.00     0.048 C 
BRANCH   9  11
HETATM   11  C   UNK N   1      27.110  26.084  -3.863  0.00  0.00     0.007 C 
HETATM   12  C   UNK N   1      26.106  26.957  -3.977  0.00  0.00     0.001 C 
BRANCH  12  13
HETATM   13  C   UNK N   1      26.244  28.427  -3.848  0.00  0.00     0.004 C 
HETATM   14  C   UNK N   1      26.812  29.276  -4.719  0.00  0.00    -0.061 C 
HETATM   15  C   UNK N   1      27.441  28.811  -6.000  0.00  0.00     0.045 C 
BRANCH  14  16
HETATM   16  C   UNK N   1      26.808  30.735  -4.369  0.00  0.00     0.198 C 
BRANCH  16  17
HETATM   17  O   UNK N   1      25.937  31.009  -3.313  0.00  0.00    -0.397 OA
HETATM   18  H   UNK N   1      25.908  30.428  -2.537  0.00  0.00     0.209 HD
ENDBRANCH  16  17
ENDBRANCH  14  16
ENDBRANCH  12  13
ENDBRANCH   9  11
ENDBRANCH   7   8
ENDBRANCH   4   6
ENDBRANCH   1   3
BRANCH   2  19
HETATM   19  C   UNK N   1      28.805  25.586  -9.885  0.00  0.00     0.007 C 
HETATM   20  C   UNK N   1      29.173  26.080  -8.688  0.00  0.00    -0.062 C 
HETATM   21  C   UNK N   1      29.449  27.539  -8.594  0.00  0.00     0.048 C 
BRANCH  20  22
HETATM   22  C   UNK N   1      29.286  25.277  -7.439  0.00  0.00     0.007 C 
HETATM   23  C   UNK N   1      30.401  24.652  -7.040  0.00  0.00     0.009 C 
BRANCH  23  24
HETATM   24  C   UNK N   1      30.510  23.865  -5.780  0.00  0.00    -0.048 C 
HETATM   25  C   UNK N   1      29.954  22.621  -5.734  0.00  0.00    -0.074 C 
HETATM   26  C   UNK N   1      29.215  22.062  -6.913  0.00  0.00     0.044 C 
HETATM   27  C   UNK N   1      30.062  21.743  -4.517  0.00  0.00     0.066 C 
HETATM   28  C   UNK N   1      31.287  22.084  -3.686  0.00  0.00     0.123 C 
HETATM   29  C   UNK N   1      31.194  23.549  -3.324  0.00  0.00     0.045 C 
HETATM   30  C   UNK N   1      31.268  24.437  -4.568  0.00  0.00    -0.018 C 
HETATM   31  C   UNK N   1      32.730  24.631  -4.938  0.00  0.00     0.020 C 
HETATM   32  C   UNK N   1      30.686  25.780  -4.161  0.00  0.00     0.020 C 
BRANCH  28  33
HETATM   33  O   UNK N   1      31.287  21.316  -2.522  0.00  0.00    -0.395 OA
HETATM   34  H   UNK N   1      32.125  21.039  -2.120  0.00  0.00     0.210 HD
ENDBRANCH  28  33
ENDBRANCH  23  24
ENDBRANCH  20  22
ENDBRANCH   2  19
TORSDOF 11
ENDMDL
MODEL 3
REMARK VINA RESULT:      -6.2      2.008      6.052
REMARK  11 active torsions:
REMARK  status: ('A' for Active; 'I' for Inactive)
REMARK    1  A    between atoms: C_2  and  C_3 
REMARK    2  A    between atoms: C_3  and  O_4 
REMARK    3  A    between atoms: C_5  and  C_6 
REMARK    4  A    between atoms: C_7  and  C_8 
REMARK    5  A    between atoms: C_10  and  C_11 
REMARK    6  A    between atoms: C_12  and  C_13 
REMARK    7  A    between atoms: C_14  and  C_16 
REMARK    8  A    between atoms: C_17  and  C_18 
REMARK    9  A    between atoms: C_19  and  C_21 
REMARK   10  A    between atoms: C_22  and  C_23 
REMARK   11  A    between atoms: C_27  and  O_28 
ROOT
HETATM    1  C   UNK N   1      29.577  21.784  -8.048  0.00  0.00     0.007 C 
HETATM    2  C   UNK N   1      28.420  22.274  -8.502  0.00  0.00     0.001 C 
ENDROOT
BRANCH   1   3
HETATM    3  C   UNK N   1      29.742  20.641  -7.117  0.00  0.00    -0.062 C 
HETATM    4  C   UNK N   1      29.922  20.837  -5.799  0.00  0.00     0.007 C 
HETATM    5  C   UNK N   1      29.705  19.233  -7.615  0.00  0.00     0.048 C 
BRANCH   4   6
HETATM    6  C   UNK N   1      29.956  22.141  -5.086  0.00  0.00     0.001 C 
HETATM    7  C   UNK N   1      31.080  22.773  -4.727  0.00  0.00     0.001 C 
BRANCH   7   8
HETATM    8  C   UNK N   1      31.096  24.070  -4.016  0.00  0.00     0.007 C 
HETATM    9  C   UNK N   1      30.645  25.273  -4.431  0.00  0.00    -0.062 C 
HETATM   10  C   UNK N   1      30.858  26.427  -3.513  0.00  0.00     0.048 C 
BRANCH   9  11
HETATM   11  C   UNK N   1      29.933  25.557  -5.705  0.00  0.00     0.007 C 
HETATM   12  C   UNK N   1      30.472  25.442  -6.920  0.00  0.00     0.001 C 
BRANCH  12  13
HETATM   13  C   UNK N   1      29.779  25.768  -8.189  0.00  0.00     0.004 C 
HETATM   14  C   UNK N   1      29.649  26.973  -8.767  0.00  0.00    -0.061 C 
HETATM   15  C   UNK N   1      30.204  28.223  -8.147  0.00  0.00     0.045 C 
BRANCH  14  16
HETATM   16  C   UNK N   1      28.915  27.042 -10.073  0.00  0.00     0.198 C 
BRANCH  16  17
HETATM   17  O   UNK N   1      28.833  28.352 -10.549  0.00  0.00    -0.397 OA
HETATM   18  H   UNK N   1      27.993  28.702 -10.882  0.00  0.00     0.209 HD
ENDBRANCH  16  17
ENDBRANCH  14  16
ENDBRANCH  12  13
ENDBRANCH   9  11
ENDBRANCH   7   8
ENDBRANCH   4   6
ENDBRANCH   1   3
BRANCH   2  19
HETATM   19  C   UNK N   1      27.097  21.779  -8.089  0.00  0.00     0.007 C 
HETATM   20  C   UNK N   1      26.278  22.448  -7.256  0.00  0.00    -0.062 C 
HETATM   21  C   UNK N   1      24.946  21.852  -6.966  0.00  0.00     0.048 C 
BRANCH  20  22
HETATM   22  C   UNK N   1      26.625  23.723  -6.570  0.00  0.00     0.007 C 
HETATM   23  C   UNK N   1      25.835  24.342  -5.682  0.00  0.00     0.009 C 
BRANCH  23  24
HETATM   24  C   UNK N   1      26.197  25.610  -4.988  0.00  0.00    -0.048 C 
HETATM   25  C   UNK N   1      26.873  25.541  -3.807  0.00  0.00    -0.074 C 
HETATM   26  C   UNK N   1      27.218  24.218  -3.191  0.00  0.00     0.044 C 
HETATM   27  C   UNK N   1      27.317  26.775  -3.068  0.00  0.00     0.066 C 
HETATM   28  C   UNK N   1      27.501  27.955  -4.006  0.00  0.00     0.123 C 
HETATM   29  C   UNK N   1      26.189  28.166  -4.728  0.00  0.00     0.045 C 
HETATM   30  C   UNK N   1      25.842  26.970  -5.618  0.00  0.00    -0.018 C 
HETATM   31  C   UNK N   1      26.582  27.118  -6.938  0.00  0.00     0.020 C 
HETATM   32  C   UNK N   1      24.349  27.061  -5.883  0.00  0.00     0.020 C 
BRANCH  28  33
HETATM   33  O   UNK N   1      27.812  29.094  -3.265  0.00  0.00    -0.395 OA
HETATM   34  H   UNK N   1      27.116  29.572  -2.790  0.00  0.00     0.210 HD
ENDBRANCH  28  33
ENDBRANCH  23  24
ENDBRANCH  20  22
ENDBRANCH   2  19
TORSDOF 11
ENDMDL
MODEL 4
REMARK VINA RESULT:      -6.1      2.415      7.453
REMARK  11 active torsions:
REMARK  status: ('A' for Active; 'I' for Inactive)
REMARK    1  A    between atoms: C_2  and  C_3 
REMARK    2  A    between atoms: C_3  and  O_4 
REMARK    3  A    between atoms: C_5  and  C_6 
REMARK    4  A    between atoms: C_7  and  C_8 
REMARK    5  A    between atoms: C_10  and  C_11 
REMARK    6  A    between atoms: C_12  and  C_13 
REMARK    7  A    between atoms: C_14  and  C_16 
REMARK    8  A    between atoms: C_17  and  C_18 
REMARK    9  A    between atoms: C_19  and  C_21 
REMARK   10  A    between atoms: C_22  and  C_23 
REMARK   11  A    between atoms: C_27  and  O_28 
ROOT
HETATM    1  C   UNK N   1      27.101  22.632  -7.011  0.00  0.00     0.007 C 
HETATM    2  C   UNK N   1      27.563  23.819  -7.413  0.00  0.00     0.001 C 
ENDROOT
BRANCH   1   3
HETATM    3  C   UNK N   1      26.297  21.683  -7.818  0.00  0.00    -0.062 C 
HETATM    4  C   UNK N   1      26.844  20.568  -8.332  0.00  0.00     0.007 C 
HETATM    5  C   UNK N   1      24.847  21.933  -8.079  0.00  0.00     0.048 C 
BRANCH   4   6
HETATM    6  C   UNK N   1      28.248  20.105  -8.170  0.00  0.00     0.001 C 
HETATM    7  C   UNK N   1      29.273  20.537  -8.913  0.00  0.00     0.001 C 
BRANCH   7   8
HETATM    8  C   UNK N   1      30.664  20.064  -8.739  0.00  0.00     0.007 C 
HETATM    9  C   UNK N   1      31.381  19.928  -7.602  0.00  0.00    -0.062 C 
HETATM   10  C   UNK N   1      32.796  19.487  -7.745  0.00  0.00     0.048 C 
BRANCH   9  11
HETATM   11  C   UNK N   1      30.888  20.153  -6.217  0.00  0.00     0.007 C 
HETATM   12  C   UNK N   1      30.726  21.351  -5.652  0.00  0.00     0.001 C 
BRANCH  12  13
HETATM   13  C   UNK N   1      30.279  21.575  -4.256  0.00  0.00     0.004 C 
HETATM   14  C   UNK N   1      29.878  22.728  -3.699  0.00  0.00    -0.061 C 
HETATM   15  C   UNK N   1      29.854  24.022  -4.461  0.00  0.00     0.045 C 
BRANCH  14  16
HETATM   16  C   UNK N   1      29.449  22.694  -2.262  0.00  0.00     0.198 C 
BRANCH  16  17
HETATM   17  O   UNK N   1      30.449  23.173  -1.415  0.00  0.00    -0.397 OA
HETATM   18  H   UNK N   1      30.236  23.804  -0.710  0.00  0.00     0.209 HD
ENDBRANCH  16  17
ENDBRANCH  14  16
ENDBRANCH  12  13
ENDBRANCH   9  11
ENDBRANCH   7   8
ENDBRANCH   4   6
ENDBRANCH   1   3
BRANCH   2  19
HETATM   19  C   UNK N   1      27.285  24.407  -8.733  0.00  0.00     0.007 C 
HETATM   20  C   UNK N   1      26.916  25.688  -8.915  0.00  0.00    -0.062 C 
HETATM   21  C   UNK N   1      26.719  26.162 -10.311  0.00  0.00     0.048 C 
BRANCH  20  22
HETATM   22  C   UNK N   1      26.650  26.658  -7.816  0.00  0.00     0.007 C 
HETATM   23  C   UNK N   1      27.553  27.026  -6.899  0.00  0.00     0.009 C 
BRANCH  23  24
HETATM   24  C   UNK N   1      27.284  28.010  -5.812  0.00  0.00    -0.048 C 
HETATM   25  C   UNK N   1      27.868  29.239  -5.880  0.00  0.00    -0.074 C 
HETATM   26  C   UNK N   1      28.795  29.592  -7.004  0.00  0.00     0.044 C 
HETATM   27  C   UNK N   1      27.609  30.305  -4.850  0.00  0.00     0.066 C 
HETATM   28  C   UNK N   1      26.261  30.116  -4.174  0.00  0.00     0.123 C 
HETATM   29  C   UNK N   1      26.248  28.728  -3.573  0.00  0.00     0.045 C 
HETATM   30  C   UNK N   1      26.332  27.650  -4.656  0.00  0.00    -0.018 C 
HETATM   31  C   UNK N   1      24.937  27.412  -5.212  0.00  0.00     0.020 C 
HETATM   32  C   UNK N   1      26.800  26.386  -3.956  0.00  0.00     0.020 C 
BRANCH  28  33
HETATM   33  O   UNK N   1      26.112  31.062  -3.162  0.00  0.00    -0.395 OA
HETATM   34  H   UNK N   1      26.599  31.900  -3.201  0.00  0.00     0.210 HD
ENDBRANCH  28  33
ENDBRANCH  23  24
ENDBRANCH  20  22
ENDBRANCH   2  19
TORSDOF 11
ENDMDL
MODEL 5
REMARK VINA RESULT:      -6.1      2.944      5.564
REMARK  11 active torsions:
REMARK  status: ('A' for Active; 'I' for Inactive)
REMARK    1  A    between atoms: C_2  and  C_3 
REMARK    2  A    between atoms: C_3  and  O_4 
REMARK    3  A    between atoms: C_5  and  C_6 
REMARK    4  A    between atoms: C_7  and  C_8 
REMARK    5  A    between atoms: C_10  and  C_11 
REMARK    6  A    between atoms: C_12  and  C_13 
REMARK    7  A    between atoms: C_14  and  C_16 
REMARK    8  A    between atoms: C_17  and  C_18 
REMARK    9  A    between atoms: C_19  and  C_21 
REMARK   10  A    between atoms: C_22  and  C_23 
REMARK   11  A    between atoms: C_27  and  O_28 
ROOT
HETATM    1  C   UNK N   1      26.939  25.255  -5.184  0.00  0.00     0.007 C 
HETATM    2  C   UNK N   1      26.697  23.941  -5.201  0.00  0.00     0.001 C 
ENDROOT
BRANCH   1   3
HETATM    3  C   UNK N   1      26.202  26.294  -5.943  0.00  0.00    -0.062 C 
HETATM    4  C   UNK N   1      26.738  26.876  -7.030  0.00  0.00     0.007 C 
HETATM    5  C   UNK N   1      24.831  26.721  -5.528  0.00  0.00     0.048 C 
BRANCH   4   6
HETATM    6  C   UNK N   1      28.063  26.582  -7.638  0.00  0.00     0.001 C 
HETATM    7  C   UNK N   1      28.281  25.614  -8.536  0.00  0.00     0.001 C 
BRANCH   7   8
HETATM    8  C   UNK N   1      29.606  25.334  -9.130  0.00  0.00     0.007 C 
HETATM    9  C   UNK N   1      30.623  24.597  -8.633  0.00  0.00    -0.062 C 
HETATM   10  C   UNK N   1      31.876  24.548  -9.436  0.00  0.00     0.048 C 
BRANCH   9  11
HETATM   11  C   UNK N   1      30.605  23.807  -7.372  0.00  0.00     0.007 C 
HETATM   12  C   UNK N   1      31.245  24.148  -6.252  0.00  0.00     0.001 C 
BRANCH  12  13
HETATM   13  C   UNK N   1      31.267  23.339  -5.010  0.00  0.00     0.004 C 
HETATM   14  C   UNK N   1      30.929  23.730  -3.771  0.00  0.00    -0.061 C 
HETATM   15  C   UNK N   1      30.484  25.131  -3.465  0.00  0.00     0.045 C 
BRANCH  14  16
HETATM   16  C   UNK N   1      31.015  22.712  -2.673  0.00  0.00     0.198 C 
BRANCH  16  17
HETATM   17  O   UNK N   1      30.367  23.146  -1.516  0.00  0.00    -0.397 OA
HETATM   18  H   UNK N   1      30.041  24.057  -1.447  0.00  0.00     0.209 HD
ENDBRANCH  16  17
ENDBRANCH  14  16
ENDBRANCH  12  13
ENDBRANCH   9  11
ENDBRANCH   7   8
ENDBRANCH   4   6
ENDBRANCH   1   3
BRANCH   2  19
HETATM   19  C   UNK N   1      25.674  23.303  -6.045  0.00  0.00     0.007 C 
HETATM   20  C   UNK N   1      25.960  22.443  -7.040  0.00  0.00    -0.062 C 
HETATM   21  C   UNK N   1      24.821  21.832  -7.777  0.00  0.00     0.048 C 
BRANCH  20  22
HETATM   22  C   UNK N   1      27.336  22.090  -7.486  0.00  0.00     0.007 C 
HETATM   23  C   UNK N   1      27.630  21.048  -8.274  0.00  0.00     0.009 C 
BRANCH  23  24
HETATM   24  C   UNK N   1      29.009  20.710  -8.729  0.00  0.00    -0.048 C 
HETATM   25  C   UNK N   1      29.482  21.286  -9.870  0.00  0.00    -0.074 C 
HETATM   26  C   UNK N   1      28.626  22.214 -10.679  0.00  0.00     0.044 C 
HETATM   27  C   UNK N   1      30.879  21.035 -10.370  0.00  0.00     0.066 C 
HETATM   28  C   UNK N   1      31.819  20.650  -9.240  0.00  0.00     0.123 C 
HETATM   29  C   UNK N   1      31.232  19.434  -8.559  0.00  0.00     0.045 C 
HETATM   30  C   UNK N   1      29.889  19.757  -7.900  0.00  0.00    -0.018 C 
HETATM   31  C   UNK N   1      30.156  20.378  -6.538  0.00  0.00     0.020 C 
HETATM   32  C   UNK N   1      29.188  18.424  -7.699  0.00  0.00     0.020 C 
BRANCH  28  33
HETATM   33  O   UNK N   1      33.070  20.331  -9.765  0.00  0.00    -0.395 OA
HETATM   34  H   UNK N   1      33.812  20.948  -9.668  0.00  0.00     0.210 HD
ENDBRANCH  28  33
ENDBRANCH  23  24
ENDBRANCH  20  22
ENDBRANCH   2  19
TORSDOF 11
ENDMDL
MODEL 6
REMARK VINA RESULT:      -6.1      1.905      3.314
REMARK  11 active torsions:
REMARK  status: ('A' for Active; 'I' for Inactive)
REMARK    1  A    between atoms: C_2  and  C_3 
REMARK    2  A    between atoms: C_3  and  O_4 
REMARK    3  A    between atoms: C_5  and  C_6 
REMARK    4  A    between atoms: C_7  and  C_8 
REMARK    5  A    between atoms: C_10  and  C_11 
REMARK    6  A    between atoms: C_12  and  C_13 
REMARK    7  A    between atoms: C_14  and  C_16 
REMARK    8  A    between atoms: C_17  and  C_18 
REMARK    9  A    between atoms: C_19  and  C_21 
REMARK   10  A    between atoms: C_22  and  C_23 
REMARK   11  A    between atoms: C_27  and  O_28 
ROOT
HETATM    1  C   UNK N   1      31.316  23.495  -4.731  0.00  0.00     0.007 C 
HETATM    2  C   UNK N   1      31.615  22.857  -5.867  0.00  0.00     0.001 C 
ENDROOT
BRANCH   1   3
HETATM    3  C   UNK N   1      30.675  22.902  -3.533  0.00  0.00    -0.062 C 
HETATM    4  C   UNK N   1      29.380  23.130  -3.250  0.00  0.00     0.007 C 
HETATM    5  C   UNK N   1      31.447  22.023  -2.604  0.00  0.00     0.048 C 
BRANCH   4   6
HETATM    6  C   UNK N   1      28.420  23.938  -4.049  0.00  0.00     0.001 C 
HETATM    7  C   UNK N   1      27.124  24.078  -3.750  0.00  0.00     0.001 C 
BRANCH   7   8
HETATM    8  C   UNK N   1      26.183  24.885  -4.556  0.00  0.00     0.007 C 
HETATM    9  C   UNK N   1      26.065  26.228  -4.636  0.00  0.00    -0.062 C 
HETATM   10  C   UNK N   1      24.969  26.760  -5.492  0.00  0.00     0.048 C 
BRANCH   9  11
HETATM   11  C   UNK N   1      26.940  27.230  -3.972  0.00  0.00     0.007 C 
HETATM   12  C   UNK N   1      28.218  27.452  -4.285  0.00  0.00     0.001 C 
BRANCH  12  13
HETATM   13  C   UNK N   1      29.104  28.418  -3.593  0.00  0.00     0.004 C 
HETATM   14  C   UNK N   1      30.360  28.217  -3.165  0.00  0.00    -0.061 C 
HETATM   15  C   UNK N   1      31.059  26.897  -3.320  0.00  0.00     0.045 C 
BRANCH  14  16
HETATM   16  C   UNK N   1      31.063  29.367  -2.507  0.00  0.00     0.198 C 
BRANCH  16  17
HETATM   17  O   UNK N   1      30.203  30.449  -2.308  0.00  0.00    -0.397 OA
HETATM   18  H   UNK N   1      29.242  30.325  -2.329  0.00  0.00     0.209 HD
ENDBRANCH  16  17
ENDBRANCH  14  16
ENDBRANCH  12  13
ENDBRANCH   9  11
ENDBRANCH   7   8
ENDBRANCH   4   6
ENDBRANCH   1   3
BRANCH   2  19
HETATM   19  C   UNK N   1      31.290  21.446  -6.128  0.00  0.00     0.007 C 
HETATM   20  C   UNK N   1      30.297  21.050  -6.946  0.00  0.00    -0.062 C 
HETATM   21  C   UNK N   1      30.114  19.589  -7.160  0.00  0.00     0.048 C 
BRANCH  20  22
HETATM   22  C   UNK N   1      29.339  21.968  -7.623  0.00  0.00     0.007 C 
HETATM   23  C   UNK N   1      28.312  22.573  -7.011  0.00  0.00     0.009 C 
BRANCH  23  24
HETATM   24  C   UNK N   1      27.368  23.503  -7.693  0.00  0.00    -0.048 C 
HETATM   25  C   UNK N   1      27.721  24.811  -7.832  0.00  0.00    -0.074 C 
HETATM   26  C   UNK N   1      29.018  25.323  -7.281  0.00  0.00     0.044 C 
HETATM   27  C   UNK N   1      26.846  25.803  -8.550  0.00  0.00     0.066 C 
HETATM   28  C   UNK N   1      25.947  25.123  -9.568  0.00  0.00     0.123 C 
HETATM   29  C   UNK N   1      25.138  24.080  -8.831  0.00  0.00     0.045 C 
HETATM   30  C   UNK N   1      26.034  22.979  -8.259  0.00  0.00    -0.018 C 
HETATM   31  C   UNK N   1      26.319  21.968  -9.358  0.00  0.00     0.020 C 
HETATM   32  C   UNK N   1      25.223  22.300  -7.169  0.00  0.00     0.020 C 
BRANCH  28  33
HETATM   33  O   UNK N   1      25.088  26.066 -10.131  0.00  0.00    -0.395 OA
HETATM   34  H   UNK N   1      24.573  25.846 -10.923  0.00  0.00     0.210 HD
ENDBRANCH  28  33
ENDBRANCH  23  24
ENDBRANCH  20  22
ENDBRANCH   2  19
TORSDOF 11
ENDMDL
MODEL 7
REMARK VINA RESULT:      -6.1      2.670      5.462
REMARK  11 active torsions:
REMARK  status: ('A' for Active; 'I' for Inactive)
REMARK    1  A    between atoms: C_2  and  C_3 
REMARK    2  A    between atoms: C_3  and  O_4 
REMARK    3  A    between atoms: C_5  and  C_6 
REMARK    4  A    between atoms: C_7  and  C_8 
REMARK    5  A    between atoms: C_10  and  C_11 
REMARK    6  A    between atoms: C_12  and  C_13 
REMARK    7  A    between atoms: C_14  and  C_16 
REMARK    8  A    between atoms: C_17  and  C_18 
REMARK    9  A    between atoms: C_19  and  C_21 
REMARK   10  A    between atoms: C_22  and  C_23 
REMARK   11  A    between atoms: C_27  and  O_28 
ROOT
HETATM    1  C   UNK N   1      25.740  25.446  -4.609  0.00  0.00     0.007 C 
HETATM    2  C   UNK N   1      25.825  24.190  -5.056  0.00  0.00     0.001 C 
ENDROOT
BRANCH   1   3
HETATM    3  C   UNK N   1      25.812  26.679  -5.430  0.00  0.00    -0.062 C 
HETATM    4  C   UNK N   1      26.993  27.213  -5.783  0.00  0.00     0.007 C 
HETATM    5  C   UNK N   1      24.568  27.362  -5.901  0.00  0.00     0.048 C 
BRANCH   4   6
HETATM    6  C   UNK N   1      28.346  26.685  -5.459  0.00  0.00     0.001 C 
HETATM    7  C   UNK N   1      29.381  26.700  -6.305  0.00  0.00     0.001 C 
BRANCH   7   8
HETATM    8  C   UNK N   1      30.720  26.169  -5.967  0.00  0.00     0.007 C 
HETATM    9  C   UNK N   1      31.630  26.651  -5.093  0.00  0.00    -0.062 C 
HETATM   10  C   UNK N   1      32.932  25.932  -5.011  0.00  0.00     0.048 C 
BRANCH   9  11
HETATM   11  C   UNK N   1      31.451  27.815  -4.186  0.00  0.00     0.007 C 
HETATM   12  C   UNK N   1      31.009  27.740  -2.929  0.00  0.00     0.001 C 
BRANCH  12  13
HETATM   13  C   UNK N   1      30.786  28.904  -2.039  0.00  0.00     0.004 C 
HETATM   14  C   UNK N   1      29.645  29.586  -1.850  0.00  0.00    -0.061 C 
HETATM   15  C   UNK N   1      28.378  29.248  -2.583  0.00  0.00     0.045 C 
BRANCH  14  16
HETATM   16  C   UNK N   1      29.668  30.722  -0.872  0.00  0.00     0.198 C 
BRANCH  16  17
HETATM   17  O   UNK N   1      28.439  30.871  -0.226  0.00  0.00    -0.397 OA
HETATM   18  H   UNK N   1      27.720  30.239  -0.385  0.00  0.00     0.209 HD
ENDBRANCH  16  17
ENDBRANCH  14  16
ENDBRANCH  12  13
ENDBRANCH   9  11
ENDBRANCH   7   8
ENDBRANCH   4   6
ENDBRANCH   1   3
BRANCH   2  19
HETATM   19  C   UNK N   1      26.068  23.832  -6.463  0.00  0.00     0.007 C 
HETATM   20  C   UNK N   1      27.112  23.088  -6.872  0.00  0.00    -0.062 C 
HETATM   21  C   UNK N   1      27.205  22.758  -8.319  0.00  0.00     0.048 C 
BRANCH  20  22
HETATM   22  C   UNK N   1      28.207  22.603  -5.985  0.00  0.00     0.007 C 
HETATM   23  C   UNK N   1      29.388  23.217  -5.839  0.00  0.00     0.009 C 
BRANCH  23  24
HETATM   24  C   UNK N   1      30.471  22.733  -4.937  0.00  0.00    -0.048 C 
HETATM   25  C   UNK N   1      30.455  23.114  -3.629  0.00  0.00    -0.074 C 
HETATM   26  C   UNK N   1      29.392  24.033  -3.106  0.00  0.00     0.044 C 
HETATM   27  C   UNK N   1      31.485  22.631  -2.644  0.00  0.00     0.066 C 
HETATM   28  C   UNK N   1      32.079  21.297  -3.062  0.00  0.00     0.123 C 
HETATM   29  C   UNK N   1      32.657  21.475  -4.448  0.00  0.00     0.045 C 
HETATM   30  C   UNK N   1      31.565  21.791  -5.473  0.00  0.00    -0.018 C 
HETATM   31  C   UNK N   1      30.927  20.484  -5.918  0.00  0.00     0.020 C 
HETATM   32  C   UNK N   1      32.273  22.417  -6.662  0.00  0.00     0.020 C 
BRANCH  28  33
HETATM   33  O   UNK N   1      33.094  20.942  -2.176  0.00  0.00    -0.395 OA
HETATM   34  H   UNK N   1      33.871  20.456  -2.493  0.00  0.00     0.210 HD
ENDBRANCH  28  33
ENDBRANCH  23  24
ENDBRANCH  20  22
ENDBRANCH   2  19
TORSDOF 11
ENDMDL
MODEL 8
REMARK VINA RESULT:      -6.1      2.773      5.637
REMARK  11 active torsions:
REMARK  status: ('A' for Active; 'I' for Inactive)
REMARK    1  A    between atoms: C_2  and  C_3 
REMARK    2  A    between atoms: C_3  and  O_4 
REMARK    3  A    between atoms: C_5  and  C_6 
REMARK    4  A    between atoms: C_7  and  C_8 
REMARK    5  A    between atoms: C_10  and  C_11 
REMARK    6  A    between atoms: C_12  and  C_13 
REMARK    7  A    between atoms: C_14  and  C_16 
REMARK    8  A    between atoms: C_17  and  C_18 
REMARK    9  A    between atoms: C_19  and  C_21 
REMARK   10  A    between atoms: C_22  and  C_23 
REMARK   11  A    between atoms: C_27  and  O_28 
ROOT
HETATM    1  C   UNK N   1      26.359  25.282  -3.702  0.00  0.00     0.007 C 
HETATM    2  C   UNK N   1      26.079  24.435  -4.696  0.00  0.00     0.001 C 
ENDROOT
BRANCH   1   3
HETATM    3  C   UNK N   1      26.719  26.714  -3.842  0.00  0.00    -0.062 C 
HETATM    4  C   UNK N   1      27.986  27.093  -4.083  0.00  0.00     0.007 C 
HETATM    5  C   UNK N   1      25.680  27.782  -3.730  0.00  0.00     0.048 C 
BRANCH   4   6
HETATM    6  C   UNK N   1      29.165  26.205  -4.267  0.00  0.00     0.001 C 
HETATM    7  C   UNK N   1      30.404  26.506  -3.861  0.00  0.00     0.001 C 
BRANCH   7   8
HETATM    8  C   UNK N   1      31.566  25.611  -4.053  0.00  0.00     0.007 C 
HETATM    9  C   UNK N   1      32.013  25.029  -5.187  0.00  0.00    -0.062 C 
HETATM   10  C   UNK N   1      33.182  24.115  -5.060  0.00  0.00     0.048 C 
BRANCH   9  11
HETATM   11  C   UNK N   1      31.467  25.230  -6.556  0.00  0.00     0.007 C 
HETATM   12  C   UNK N   1      31.350  26.413  -7.162  0.00  0.00     0.001 C 
BRANCH  12  13
HETATM   13  C   UNK N   1      30.764  26.620  -8.508  0.00  0.00     0.004 C 
HETATM   14  C   UNK N   1      29.676  27.340  -8.826  0.00  0.00    -0.061 C 
HETATM   15  C   UNK N   1      28.852  28.049  -7.791  0.00  0.00     0.045 C 
BRANCH  14  16
HETATM   16  C   UNK N   1      29.293  27.416 -10.275  0.00  0.00     0.198 C 
BRANCH  16  17
HETATM   17  O   UNK N   1      29.107  28.736 -10.689  0.00  0.00    -0.397 OA
HETATM   18  H   UNK N   1      29.090  29.457 -10.042  0.00  0.00     0.209 HD
ENDBRANCH  16  17
ENDBRANCH  14  16
ENDBRANCH  12  13
ENDBRANCH   9  11
ENDBRANCH   7   8
ENDBRANCH   4   6
ENDBRANCH   1   3
BRANCH   2  19
HETATM   19  C   UNK N   1      26.146  24.789  -6.123  0.00  0.00     0.007 C 
HETATM   20  C   UNK N   1      27.177  24.461  -6.923  0.00  0.00    -0.062 C 
HETATM   21  C   UNK N   1      27.087  24.838  -8.359  0.00  0.00     0.048 C 
BRANCH  20  22
HETATM   22  C   UNK N   1      28.423  23.783  -6.467  0.00  0.00     0.007 C 
HETATM   23  C   UNK N   1      28.491  22.499  -6.095  0.00  0.00     0.009 C 
BRANCH  23  24
HETATM   24  C   UNK N   1      29.745  21.825  -5.655  0.00  0.00    -0.048 C 
HETATM   25  C   UNK N   1      30.118  21.921  -4.348  0.00  0.00    -0.074 C 
HETATM   26  C   UNK N   1      29.307  22.719  -3.371  0.00  0.00     0.044 C 
HETATM   27  C   UNK N   1      31.344  21.231  -3.814  0.00  0.00     0.066 C 
HETATM   28  C   UNK N   1      31.704  20.009  -4.642  0.00  0.00     0.123 C 
HETATM   29  C   UNK N   1      31.888  20.470  -6.070  0.00  0.00     0.045 C 
HETATM   30  C   UNK N   1      30.580  21.006  -6.657  0.00  0.00    -0.018 C 
HETATM   31  C   UNK N   1      29.755  19.829  -7.153  0.00  0.00     0.020 C 
HETATM   32  C   UNK N   1      30.973  21.862  -7.848  0.00  0.00     0.020 C 
BRANCH  28  33
HETATM   33  O   UNK N   1      32.898  19.465  -4.171  0.00  0.00    -0.395 OA
HETATM   34  H   UNK N   1      32.942  18.530  -3.915  0.00  0.00     0.210 HD
ENDBRANCH  28  33
ENDBRANCH  23  24
ENDBRANCH  20  22
ENDBRANCH   2  19
TORSDOF 11
ENDMDL
MODEL 9
REMARK VINA RESULT:      -6.0      2.677      7.911
REMARK  11 active torsions:
REMARK  status: ('A' for Active; 'I' for Inactive)
REMARK    1  A    between atoms: C_2  and  C_3 
REMARK    2  A    between atoms: C_3  and  O_4 
REMARK    3  A    between atoms: C_5  and  C_6 
REMARK    4  A    between atoms: C_7  and  C_8 
REMARK    5  A    between atoms: C_10  and  C_11 
REMARK    6  A    between atoms: C_12  and  C_13 
REMARK    7  A    between atoms: C_14  and  C_16 
REMARK    8  A    between atoms: C_17  and  C_18 
REMARK    9  A    between atoms: C_19  and  C_21 
REMARK   10  A    between atoms: C_22  and  C_23 
REMARK   11  A    between atoms: C_27  and  O_28 
ROOT
HETATM    1  C   UNK N   1      25.627  22.513  -8.500  0.00  0.00     0.007 C 
HETATM    2  C   UNK N   1      25.161  23.717  -8.847  0.00  0.00     0.001 C 
ENDROOT
BRANCH   1   3
HETATM    3  C   UNK N   1      26.903  21.903  -8.945  0.00  0.00    -0.062 C 
HETATM    4  C   UNK N   1      27.958  21.813  -8.117  0.00  0.00     0.007 C 
HETATM    5  C   UNK N   1      27.054  21.361 -10.329  0.00  0.00     0.048 C 
BRANCH   4   6
HETATM    6  C   UNK N   1      28.020  22.252  -6.697  0.00  0.00     0.001 C 
HETATM    7  C   UNK N   1      29.046  22.922  -6.161  0.00  0.00     0.001 C 
BRANCH   7   8
HETATM    8  C   UNK N   1      29.092  23.350  -4.746  0.00  0.00     0.007 C 
HETATM    9  C   UNK N   1      29.720  22.768  -3.701  0.00  0.00    -0.062 C 
HETATM   10  C   UNK N   1      29.531  23.398  -2.365  0.00  0.00     0.048 C 
BRANCH   9  11
HETATM   11  C   UNK N   1      30.604  21.574  -3.758  0.00  0.00     0.007 C 
HETATM   12  C   UNK N   1      31.471  21.314  -4.739  0.00  0.00     0.001 C 
BRANCH  12  13
HETATM   13  C   UNK N   1      32.319  20.101  -4.820  0.00  0.00     0.004 C 
HETATM   14  C   UNK N   1      33.490  19.876  -4.203  0.00  0.00    -0.061 C 
HETATM   15  C   UNK N   1      34.139  20.900  -3.318  0.00  0.00     0.045 C 
BRANCH  14  16
HETATM   16  C   UNK N   1      34.151  18.549  -4.429  0.00  0.00     0.198 C 
BRANCH  16  17
HETATM   17  O   UNK N   1      33.730  17.598  -3.497  0.00  0.00    -0.397 OA
HETATM   18  H   UNK N   1      34.360  16.962  -3.126  0.00  0.00     0.209 HD
ENDBRANCH  16  17
ENDBRANCH  14  16
ENDBRANCH  12  13
ENDBRANCH   9  11
ENDBRANCH   7   8
ENDBRANCH   4   6
ENDBRANCH   1   3
BRANCH   2  19
HETATM   19  C   UNK N   1      25.834  24.618  -9.796  0.00  0.00     0.007 C 
HETATM   20  C   UNK N   1      26.446  25.760  -9.431  0.00  0.00    -0.062 C 
HETATM   21  C   UNK N   1      27.133  26.547 -10.490  0.00  0.00     0.048 C 
BRANCH  20  22
HETATM   22  C   UNK N   1      26.451  26.315  -8.049  0.00  0.00     0.007 C 
HETATM   23  C   UNK N   1      27.294  25.929  -7.083  0.00  0.00     0.009 C 
BRANCH  23  24
HETATM   24  C   UNK N   1      27.302  26.502  -5.707  0.00  0.00    -0.048 C 
HETATM   25  C   UNK N   1      28.398  27.200  -5.294  0.00  0.00    -0.074 C 
HETATM   26  C   UNK N   1      29.591  27.362  -6.187  0.00  0.00     0.044 C 
HETATM   27  C   UNK N   1      28.466  27.851  -3.939  0.00  0.00     0.066 C 
HETATM   28  C   UNK N   1      27.082  28.178  -3.404  0.00  0.00     0.123 C 
HETATM   29  C   UNK N   1      26.291  26.889  -3.377  0.00  0.00     0.045 C 
HETATM   30  C   UNK N   1      26.078  26.335  -4.788  0.00  0.00    -0.018 C 
HETATM   31  C   UNK N   1      24.885  27.043  -5.411  0.00  0.00     0.020 C 
HETATM   32  C   UNK N   1      25.737  24.866  -4.616  0.00  0.00     0.020 C 
BRANCH  28  33
HETATM   33  O   UNK N   1      27.192  28.684  -2.110  0.00  0.00    -0.395 OA
HETATM   34  H   UNK N   1      26.514  28.480  -1.447  0.00  0.00     0.210 HD
ENDBRANCH  28  33
ENDBRANCH  23  24
ENDBRANCH  20  22
ENDBRANCH   2  19
TORSDOF 11
ENDMDL
