MODEL 1
REMARK VINA RESULT:      -5.0      0.000      0.000
REMARK  6 active torsions:
REMARK  status: ('A' for Active; 'I' for Inactive)
REMARK    1  A    between atoms: C_3  and  C_4 
REMARK    2  A    between atoms: C_4  and  C_5 
REMARK    3  A    between atoms: C_5  and  N_6 
REMARK    4  A    between atoms: C_5  and  C_7 
REMARK    5  A    between atoms: C_7  and  O_8 
REMARK    6  A    between atoms: C_10  and  O_11 
ROOT
HETATM    1  C   UNK N   1      22.820  16.817   4.495  0.00  0.00     0.079 C 
HETATM    2  C   UNK N   1      23.401  18.109   4.041  0.00  0.00     0.083 A 
HETATM    3  C   UNK N   1      22.740  19.259   3.631  0.00  0.00     0.028 A 
HETATM    4  C   UNK N   1      23.758  20.132   3.335  0.00  0.00     0.169 A 
HETATM    5  N   UNK N   1      24.945  19.539   3.552  0.00  0.00    -0.239 N 
ATOM      6  HN  UNK N   1      25.865  19.955   3.411  1.00  0.00     0.197 HD
HETATM    7  O   UNK N   1      24.697  18.331   3.974  0.00  0.00    -0.240 OA
ENDROOT
BRANCH   3   8
HETATM    8  C   UNK N   1      21.275  19.587   3.500  0.00  0.00     0.081 C 
BRANCH   8   9
HETATM    9  C   UNK N   1      20.641  19.342   2.130  0.00  0.00     0.177 C 
BRANCH   9  10
HETATM   10  N   UNK N   1      19.215  19.100   2.275  0.00  0.00    -0.417 N 
HETATM   11  H   UNK N   1      18.429  19.742   2.372  0.00  0.00     0.150 HD
HETATM   12  H   UNK N   1      18.954  18.113   2.280  0.00  0.00     0.150 HD
ENDBRANCH   9  10
BRANCH   9  13
HETATM   13  C   UNK N   1      20.839  20.516   1.208  0.00  0.00     0.163 C 
HETATM   14  O   UNK N   1      20.934  20.359  -0.000  0.00  0.00    -0.648 OA
BRANCH  13  15
HETATM   15  O   UNK N   1      20.915  21.758   1.723  0.00  0.00    -0.775 OA
HETATM   16  H   UNK N   1      21.603  22.049   2.289  0.00  0.00     0.167 HD
ENDBRANCH  13  15
ENDBRANCH   9  13
ENDBRANCH   8   9
ENDBRANCH   3   8
BRANCH   4  17
HETATM   17  O   UNK N   1      23.619  21.391   2.885  0.00  0.00    -0.344 OA
HETATM   18  H   UNK N   1      23.160  22.044   3.375  0.00  0.00     0.219 HD
ENDBRANCH   4  17
TORSDOF 6
ENDMDL
MODEL 2
REMARK VINA RESULT:      -5.0      8.395     10.149
REMARK  6 active torsions:
REMARK  status: ('A' for Active; 'I' for Inactive)
REMARK    1  A    between atoms: C_3  and  C_4 
REMARK    2  A    between atoms: C_4  and  C_5 
REMARK    3  A    between atoms: C_5  and  N_6 
REMARK    4  A    between atoms: C_5  and  C_7 
REMARK    5  A    between atoms: C_7  and  O_8 
REMARK    6  A    between atoms: C_10  and  O_11 
ROOT
HETATM    1  C   UNK N   1      24.884  12.661   9.974  0.00  0.00     0.079 C 
HETATM    2  C   UNK N   1      23.710  12.332  10.825  0.00  0.00     0.083 A 
HETATM    3  C   UNK N   1      22.361  12.402  10.505  0.00  0.00     0.028 A 
HETATM    4  C   UNK N   1      21.732  11.979  11.651  0.00  0.00     0.169 A 
HETATM    5  N   UNK N   1      22.647  11.680  12.589  0.00  0.00    -0.239 N 
ATOM      6  HN  UNK N   1      22.458  11.345  13.534  1.00  0.00     0.197 HD
HETATM    7  O   UNK N   1      23.819  11.900  12.064  0.00  0.00    -0.240 OA
ENDROOT
BRANCH   3   8
HETATM    8  C   UNK N   1      21.645  12.825   9.249  0.00  0.00     0.081 C 
BRANCH   8   9
HETATM    9  C   UNK N   1      21.448  14.329   9.048  0.00  0.00     0.177 C 
BRANCH   9  10
HETATM   10  N   UNK N   1      21.888  14.717   7.718  0.00  0.00    -0.417 N 
HETATM   11  H   UNK N   1      21.945  15.629   7.266  0.00  0.00     0.150 HD
HETATM   12  H   UNK N   1      22.194  13.939   7.133  0.00  0.00     0.150 HD
ENDBRANCH   9  10
BRANCH   9  13
HETATM   13  C   UNK N   1      20.006  14.728   9.214  0.00  0.00     0.163 C 
HETATM   14  O   UNK N   1      19.544  15.686   8.612  0.00  0.00    -0.648 OA
BRANCH  13  15
HETATM   15  O   UNK N   1      19.213  14.020  10.042  0.00  0.00    -0.775 OA
HETATM   16  H   UNK N   1      19.364  13.124  10.272  0.00  0.00     0.167 HD
ENDBRANCH  13  15
ENDBRANCH   9  13
ENDBRANCH   8   9
ENDBRANCH   3   8
BRANCH   4  17
HETATM   17  O   UNK N   1      20.405  11.880  11.836  0.00  0.00    -0.344 OA
HETATM   18  H   UNK N   1      20.039  11.428  12.571  0.00  0.00     0.219 HD
ENDBRANCH   4  17
TORSDOF 6
ENDMDL
MODEL 3
REMARK VINA RESULT:      -4.9     11.282     12.814
REMARK  6 active torsions:
REMARK  status: ('A' for Active; 'I' for Inactive)
REMARK    1  A    between atoms: C_3  and  C_4 
REMARK    2  A    between atoms: C_4  and  C_5 
REMARK    3  A    between atoms: C_5  and  N_6 
REMARK    4  A    between atoms: C_5  and  C_7 
REMARK    5  A    between atoms: C_7  and  O_8 
REMARK    6  A    between atoms: C_10  and  O_11 
ROOT
HETATM    1  C   UNK N   1      33.663  17.279   5.645  0.00  0.00     0.079 C 
HETATM    2  C   UNK N   1      34.097  17.498   7.051  0.00  0.00     0.083 A 
HETATM    3  C   UNK N   1      33.951  16.654   8.144  0.00  0.00     0.028 A 
HETATM    4  C   UNK N   1      34.533  17.352   9.174  0.00  0.00     0.169 A 
HETATM    5  N   UNK N   1      34.991  18.533   8.724  0.00  0.00    -0.239 N 
ATOM      6  HN  UNK N   1      35.464  19.249   9.274  1.00  0.00     0.197 HD
HETATM    7  O   UNK N   1      34.717  18.589   7.450  0.00  0.00    -0.240 OA
ENDROOT
BRANCH   3   8
HETATM    8  C   UNK N   1      33.326  15.290   8.287  0.00  0.00     0.081 C 
BRANCH   8   9
HETATM    9  C   UNK N   1      31.939  15.240   8.930  0.00  0.00     0.177 C 
BRANCH   9  10
HETATM   10  N   UNK N   1      32.060  15.198  10.377  0.00  0.00    -0.417 N 
HETATM   11  H   UNK N   1      31.972  15.928  11.082  0.00  0.00     0.150 HD
HETATM   12  H   UNK N   1      32.268  14.273  10.755  0.00  0.00     0.150 HD
ENDBRANCH   9  10
BRANCH   9  13
HETATM   13  C   UNK N   1      31.107  16.436   8.550  0.00  0.00     0.163 C 
HETATM   14  O   UNK N   1      30.600  16.525   7.441  0.00  0.00    -0.648 OA
BRANCH  13  15
HETATM   15  O   UNK N   1      30.919  17.425   9.445  0.00  0.00    -0.775 OA
HETATM   16  H   UNK N   1      30.230  17.432  10.080  0.00  0.00     0.167 HD
ENDBRANCH  13  15
ENDBRANCH   9  13
ENDBRANCH   8   9
ENDBRANCH   3   8
BRANCH   4  17
HETATM   17  O   UNK N   1      34.634  16.945  10.451  0.00  0.00    -0.344 OA
HETATM   18  H   UNK N   1      33.929  16.510  10.890  0.00  0.00     0.219 HD
ENDBRANCH   4  17
TORSDOF 6
ENDMDL
MODEL 4
REMARK VINA RESULT:      -4.9      2.971      4.118
REMARK  6 active torsions:
REMARK  status: ('A' for Active; 'I' for Inactive)
REMARK    1  A    between atoms: C_3  and  C_4 
REMARK    2  A    between atoms: C_4  and  C_5 
REMARK    3  A    between atoms: C_5  and  N_6 
REMARK    4  A    between atoms: C_5  and  C_7 
REMARK    5  A    between atoms: C_7  and  O_8 
REMARK    6  A    between atoms: C_10  and  O_11 
ROOT
HETATM    1  C   UNK N   1      20.057  15.864   4.378  0.00  0.00     0.079 C 
HETATM    2  C   UNK N   1      20.209  15.916   2.900  0.00  0.00     0.083 A 
HETATM    3  C   UNK N   1      20.072  17.008   2.054  0.00  0.00     0.028 A 
HETATM    4  C   UNK N   1      20.326  16.489   0.807  0.00  0.00     0.169 A 
HETATM    5  N   UNK N   1      20.593  15.175   0.907  0.00  0.00    -0.239 N 
ATOM      6  HN  UNK N   1      20.813  14.541   0.139  1.00  0.00     0.197 HD
HETATM    7  O   UNK N   1      20.516  14.863   2.171  0.00  0.00    -0.240 OA
ENDROOT
BRANCH   3   8
HETATM    8  C   UNK N   1      19.731  18.452   2.319  0.00  0.00     0.081 C 
BRANCH   8   9
HETATM    9  C   UNK N   1      20.800  19.484   1.956  0.00  0.00     0.177 C 
BRANCH   9  10
HETATM   10  N   UNK N   1      20.451  20.147   0.710  0.00  0.00    -0.417 N 
HETATM   11  H   UNK N   1      20.133  19.777  -0.184  0.00  0.00     0.150 HD
HETATM   12  H   UNK N   1      20.540  21.164   0.737  0.00  0.00     0.150 HD
ENDBRANCH   9  10
BRANCH   9  13
HETATM   13  C   UNK N   1      20.953  20.527   3.031  0.00  0.00     0.163 C 
HETATM   14  O   UNK N   1      20.564  20.318   4.171  0.00  0.00    -0.648 OA
BRANCH  13  15
HETATM   15  O   UNK N   1      21.525  21.709   2.732  0.00  0.00    -0.775 OA
HETATM   16  H   UNK N   1      21.602  22.421   3.337  0.00  0.00     0.167 HD
ENDBRANCH  13  15
ENDBRANCH   9  13
ENDBRANCH   8   9
ENDBRANCH   3   8
BRANCH   4  17
HETATM   17  O   UNK N   1      20.307  17.165  -0.353  0.00  0.00    -0.344 OA
HETATM   18  H   UNK N   1      20.963  17.042  -1.010  0.00  0.00     0.219 HD
ENDBRANCH   4  17
TORSDOF 6
ENDMDL
MODEL 5
REMARK VINA RESULT:      -4.8      8.840     11.437
REMARK  6 active torsions:
REMARK  status: ('A' for Active; 'I' for Inactive)
REMARK    1  A    between atoms: C_3  and  C_4 
REMARK    2  A    between atoms: C_4  and  C_5 
REMARK    3  A    between atoms: C_5  and  N_6 
REMARK    4  A    between atoms: C_5  and  C_7 
REMARK    5  A    between atoms: C_7  and  O_8 
REMARK    6  A    between atoms: C_10  and  O_11 
ROOT
HETATM    1  C   UNK N   1      29.041  17.294   7.450  0.00  0.00     0.079 C 
HETATM    2  C   UNK N   1      29.929  17.423   6.264  0.00  0.00     0.083 A 
HETATM    3  C   UNK N   1      31.277  17.109   6.154  0.00  0.00     0.028 A 
HETATM    4  C   UNK N   1      31.578  17.417   4.849  0.00  0.00     0.169 A 
HETATM    5  N   UNK N   1      30.482  17.885   4.227  0.00  0.00    -0.239 N 
ATOM      6  HN  UNK N   1      30.420  18.191   3.256  1.00  0.00     0.197 HD
HETATM    7  O   UNK N   1      29.513  17.875   5.099  0.00  0.00    -0.240 OA
ENDROOT
BRANCH   3   8
HETATM    8  C   UNK N   1      32.269  16.563   7.149  0.00  0.00     0.081 C 
BRANCH   8   9
HETATM    9  C   UNK N   1      32.890  17.572   8.117  0.00  0.00     0.177 C 
BRANCH   9  10
HETATM   10  N   UNK N   1      33.139  16.941   9.403  0.00  0.00    -0.417 N 
HETATM   11  H   UNK N   1      32.729  16.117   9.840  0.00  0.00     0.150 HD
HETATM   12  H   UNK N   1      33.851  17.406   9.967  0.00  0.00     0.150 HD
ENDBRANCH   9  10
BRANCH   9  13
HETATM   13  C   UNK N   1      34.190  18.120   7.589  0.00  0.00     0.163 C 
HETATM   14  O   UNK N   1      34.647  17.740   6.521  0.00  0.00    -0.648 OA
BRANCH  13  15
HETATM   15  O   UNK N   1      34.860  19.042   8.306  0.00  0.00    -0.775 OA
HETATM   16  H   UNK N   1      34.504  19.488   9.049  0.00  0.00     0.167 HD
ENDBRANCH  13  15
ENDBRANCH   9  13
ENDBRANCH   8   9
ENDBRANCH   3   8
BRANCH   4  17
HETATM   17  O   UNK N   1      32.779  17.290   4.261  0.00  0.00    -0.344 OA
HETATM   18  H   UNK N   1      33.299  16.517   4.357  0.00  0.00     0.219 HD
ENDBRANCH   4  17
TORSDOF 6
ENDMDL
MODEL 6
REMARK VINA RESULT:      -4.7      8.303     10.942
REMARK  6 active torsions:
REMARK  status: ('A' for Active; 'I' for Inactive)
REMARK    1  A    between atoms: C_3  and  C_4 
REMARK    2  A    between atoms: C_4  and  C_5 
REMARK    3  A    between atoms: C_5  and  N_6 
REMARK    4  A    between atoms: C_5  and  C_7 
REMARK    5  A    between atoms: C_7  and  O_8 
REMARK    6  A    between atoms: C_10  and  O_11 
ROOT
HETATM    1  C   UNK N   1      29.241  17.505   5.749  0.00  0.00     0.079 C 
HETATM    2  C   UNK N   1      29.055  17.904   7.169  0.00  0.00     0.083 A 
HETATM    3  C   UNK N   1      29.892  17.669   8.251  0.00  0.00     0.028 A 
HETATM    4  C   UNK N   1      29.236  18.259   9.305  0.00  0.00     0.169 A 
HETATM    5  N   UNK N   1      28.085  18.805   8.877  0.00  0.00    -0.239 N 
ATOM      6  HN  UNK N   1      27.402  19.304   9.447  1.00  0.00     0.197 HD
HETATM    7  O   UNK N   1      28.006  18.577   7.595  0.00  0.00    -0.240 OA
ENDROOT
BRANCH   3   8
HETATM    8  C   UNK N   1      31.214  16.955   8.366  0.00  0.00     0.081 C 
BRANCH   8   9
HETATM    9  C   UNK N   1      32.470  17.820   8.248  0.00  0.00     0.177 C 
BRANCH   9  10
HETATM   10  N   UNK N   1      33.404  17.492   9.311  0.00  0.00    -0.417 N 
HETATM   11  H   UNK N   1      33.333  17.586  10.324  0.00  0.00     0.150 HD
HETATM   12  H   UNK N   1      34.288  17.097   8.988  0.00  0.00     0.150 HD
ENDBRANCH   9  10
BRANCH   9  13
HETATM   13  C   UNK N   1      33.158  17.621   6.923  0.00  0.00     0.163 C 
HETATM   14  O   UNK N   1      32.620  16.995   6.021  0.00  0.00    -0.648 OA
BRANCH  13  15
HETATM   15  O   UNK N   1      34.386  18.138   6.730  0.00  0.00    -0.775 OA
HETATM   16  H   UNK N   1      35.059  18.149   7.382  0.00  0.00     0.167 HD
ENDBRANCH  13  15
ENDBRANCH   9  13
ENDBRANCH   8   9
ENDBRANCH   3   8
BRANCH   4  17
HETATM   17  O   UNK N   1      29.654  18.291  10.582  0.00  0.00    -0.344 OA
HETATM   18  H   UNK N   1      29.171  17.881  11.272  0.00  0.00     0.219 HD
ENDBRANCH   4  17
TORSDOF 6
ENDMDL
MODEL 7
REMARK VINA RESULT:      -4.7      2.917      3.886
REMARK  6 active torsions:
REMARK  status: ('A' for Active; 'I' for Inactive)
REMARK    1  A    between atoms: C_3  and  C_4 
REMARK    2  A    between atoms: C_4  and  C_5 
REMARK    3  A    between atoms: C_5  and  N_6 
REMARK    4  A    between atoms: C_5  and  C_7 
REMARK    5  A    between atoms: C_7  and  O_8 
REMARK    6  A    between atoms: C_10  and  O_11 
ROOT
HETATM    1  C   UNK N   1      19.323  16.222  -0.062  0.00  0.00     0.079 C 
HETATM    2  C   UNK N   1      20.145  16.287   1.176  0.00  0.00     0.083 A 
HETATM    3  C   UNK N   1      20.331  17.359   2.037  0.00  0.00     0.028 A 
HETATM    4  C   UNK N   1      21.171  16.861   3.003  0.00  0.00     0.169 A 
HETATM    5  N   UNK N   1      21.466  15.577   2.731  0.00  0.00    -0.239 N 
ATOM      6  HN  UNK N   1      22.069  14.965   3.280  1.00  0.00     0.197 HD
HETATM    7  O   UNK N   1      20.837  15.264   1.634  0.00  0.00    -0.240 OA
ENDROOT
BRANCH   3   8
HETATM    8  C   UNK N   1      19.799  18.769   2.019  0.00  0.00     0.081 C 
BRANCH   8   9
HETATM    9  C   UNK N   1      20.806  19.875   1.696  0.00  0.00     0.177 C 
BRANCH   9  10
HETATM   10  N   UNK N   1      20.304  20.707   0.615  0.00  0.00    -0.417 N 
HETATM   11  H   UNK N   1      19.522  21.359   0.574  0.00  0.00     0.150 HD
HETATM   12  H   UNK N   1      20.830  20.626  -0.256  0.00  0.00     0.150 HD
ENDBRANCH   9  10
BRANCH   9  13
HETATM   13  C   UNK N   1      21.073  20.749   2.893  0.00  0.00     0.163 C 
HETATM   14  O   UNK N   1      20.625  20.464   3.994  0.00  0.00    -0.648 OA
BRANCH  13  15
HETATM   15  O   UNK N   1      21.816  21.862   2.748  0.00  0.00    -0.775 OA
HETATM   16  H   UNK N   1      22.749  21.861   2.654  0.00  0.00     0.167 HD
ENDBRANCH  13  15
ENDBRANCH   9  13
ENDBRANCH   8   9
ENDBRANCH   3   8
BRANCH   4  17
HETATM   17  O   UNK N   1      21.649  17.534   4.063  0.00  0.00    -0.344 OA
HETATM   18  H   UNK N   1      21.809  17.114   4.885  0.00  0.00     0.219 HD
ENDBRANCH   4  17
TORSDOF 6
ENDMDL
MODEL 8
REMARK VINA RESULT:      -4.7     19.136     20.788
REMARK  6 active torsions:
REMARK  status: ('A' for Active; 'I' for Inactive)
REMARK    1  A    between atoms: C_3  and  C_4 
REMARK    2  A    between atoms: C_4  and  C_5 
REMARK    3  A    between atoms: C_5  and  N_6 
REMARK    4  A    between atoms: C_5  and  C_7 
REMARK    5  A    between atoms: C_7  and  O_8 
REMARK    6  A    between atoms: C_10  and  O_11 
ROOT
HETATM    1  C   UNK N   1      44.321  19.025   2.921  0.00  0.00     0.079 C 
HETATM    2  C   UNK N   1      44.422  20.438   3.375  0.00  0.00     0.083 A 
HETATM    3  C   UNK N   1      43.435  21.413   3.396  0.00  0.00     0.028 A 
HETATM    4  C   UNK N   1      44.074  22.513   3.913  0.00  0.00     0.169 A 
HETATM    5  N   UNK N   1      45.357  22.212   4.179  0.00  0.00    -0.239 N 
ATOM      6  HN  UNK N   1      46.060  22.842   4.565  1.00  0.00     0.197 HD
HETATM    7  O   UNK N   1      45.533  20.964   3.848  0.00  0.00    -0.240 OA
ENDROOT
BRANCH   3   8
HETATM    8  C   UNK N   1      41.987  21.389   2.979  0.00  0.00     0.081 C 
BRANCH   8   9
HETATM    9  C   UNK N   1      41.701  21.599   1.490  0.00  0.00     0.177 C 
BRANCH   9  10
HETATM   10  N   UNK N   1      40.755  20.603   1.018  0.00  0.00    -0.417 N 
HETATM   11  H   UNK N   1      40.894  19.717   0.532  0.00  0.00     0.150 HD
HETATM   12  H   UNK N   1      39.778  20.829   1.207  0.00  0.00     0.150 HD
ENDBRANCH   9  10
BRANCH   9  13
HETATM   13  C   UNK N   1      41.135  22.968   1.221  0.00  0.00     0.163 C 
HETATM   14  O   UNK N   1      40.547  23.212   0.178  0.00  0.00    -0.648 OA
BRANCH  13  15
HETATM   15  O   UNK N   1      41.280  23.939   2.143  0.00  0.00    -0.775 OA
HETATM   16  H   UNK N   1      42.066  24.082   2.633  0.00  0.00     0.167 HD
ENDBRANCH  13  15
ENDBRANCH   9  13
ENDBRANCH   8   9
ENDBRANCH   3   8
BRANCH   4  17
HETATM   17  O   UNK N   1      43.528  23.723   4.122  0.00  0.00    -0.344 OA
HETATM   18  H   UNK N   1      42.636  23.825   4.390  0.00  0.00     0.219 HD
ENDBRANCH   4  17
TORSDOF 6
ENDMDL
MODEL 9
REMARK VINA RESULT:      -4.7      6.242      8.069
REMARK  6 active torsions:
REMARK  status: ('A' for Active; 'I' for Inactive)
REMARK    1  A    between atoms: C_3  and  C_4 
REMARK    2  A    between atoms: C_4  and  C_5 
REMARK    3  A    between atoms: C_5  and  N_6 
REMARK    4  A    between atoms: C_5  and  C_7 
REMARK    5  A    between atoms: C_7  and  O_8 
REMARK    6  A    between atoms: C_10  and  O_11 
ROOT
HETATM    1  C   UNK N   1      31.407  17.167   6.750  0.00  0.00     0.079 C 
HETATM    2  C   UNK N   1      30.421  17.507   7.810  0.00  0.00     0.083 A 
HETATM    3  C   UNK N   1      29.079  17.834   7.671  0.00  0.00     0.028 A 
HETATM    4  C   UNK N   1      28.659  18.043   8.962  0.00  0.00     0.169 A 
HETATM    5  N   UNK N   1      29.684  17.856   9.811  0.00  0.00    -0.239 N 
ATOM      6  HN  UNK N   1      29.655  17.948  10.826  1.00  0.00     0.197 HD
HETATM    7  O   UNK N   1      30.723  17.535   9.091  0.00  0.00    -0.240 OA
ENDROOT
BRANCH   3   8
HETATM    8  C   UNK N   1      28.193  17.962   6.458  0.00  0.00     0.081 C 
BRANCH   8   9
HETATM    9  C   UNK N   1      28.108  19.348   5.818  0.00  0.00     0.177 C 
BRANCH   9  10
HETATM   10  N   UNK N   1      28.267  19.244   4.377  0.00  0.00    -0.417 N 
HETATM   11  H   UNK N   1      28.845  18.629   3.805  0.00  0.00     0.150 HD
HETATM   12  H   UNK N   1      27.699  19.902   3.843  0.00  0.00     0.150 HD
ENDBRANCH   9  10
BRANCH   9  13
HETATM   13  C   UNK N   1      26.790  20.016   6.110  0.00  0.00     0.163 C 
HETATM   14  O   UNK N   1      25.947  20.154   5.237  0.00  0.00    -0.648 OA
BRANCH  13  15
HETATM   15  O   UNK N   1      26.538  20.468   7.353  0.00  0.00    -0.775 OA
HETATM   16  H   UNK N   1      25.715  20.367   7.790  0.00  0.00     0.167 HD
ENDBRANCH  13  15
ENDBRANCH   9  13
ENDBRANCH   8   9
ENDBRANCH   3   8
BRANCH   4  17
HETATM   17  O   UNK N   1      27.420  18.394   9.346  0.00  0.00    -0.344 OA
HETATM   18  H   UNK N   1      27.078  19.252   9.196  0.00  0.00     0.219 HD
ENDBRANCH   4  17
TORSDOF 6
ENDMDL
