MODEL 1
REMARK VINA RESULT:      -4.3      0.000      0.000
REMARK  5 active torsions:
REMARK  status: ('A' for Active; 'I' for Inactive)
REMARK    1  A    between atoms: O_1  and  N_2 
REMARK    2  A    between atoms: N_2  and  C_3 
REMARK    3  A    between atoms: N_2  and  C_7 
REMARK    4  A    between atoms: C_3  and  C_4 
REMARK    5  A    between atoms: C_4  and  O_5 
ROOT
HETATM    1  N   UNK N   1      20.990  20.887   2.314  0.00  0.00    -0.226 N 
ENDROOT
BRANCH   1   2
HETATM    2  O   UNK N   1      22.047  21.613   2.713  0.00  0.00    -0.285 OA
HETATM    3  H   UNK N   1      22.062  22.001   3.601  0.00  0.00     0.245 HD
ENDBRANCH   1   2
BRANCH   1   4
HETATM    4  C   UNK N   1      20.278  20.005   3.220  0.00  0.00     0.268 C 
BRANCH   4   5
HETATM    5  C   UNK N   1      19.690  18.747   2.631  0.00  0.00     0.160 C 
HETATM    6  O   UNK N   1      20.382  17.785   2.340  0.00  0.00    -0.649 OA
BRANCH   5   7
HETATM    7  O   UNK N   1      18.362  18.691   2.423  0.00  0.00    -0.775 OA
HETATM    8  H   UNK N   1      18.003  18.980   1.608  0.00  0.00     0.167 HD
ENDBRANCH   5   7
ENDBRANCH   4   5
ENDBRANCH   1   4
BRANCH   1   9
HETATM    9  C   UNK N   1      20.562  20.967   1.035  0.00  0.00     0.377 C 
HETATM   10  O   UNK N   1      21.309  20.700   0.107  0.00  0.00    -0.281 OA
ENDBRANCH   1   9
TORSDOF 5
ENDMDL
MODEL 2
REMARK VINA RESULT:      -4.2     15.565     16.577
REMARK  5 active torsions:
REMARK  status: ('A' for Active; 'I' for Inactive)
REMARK    1  A    between atoms: O_1  and  N_2 
REMARK    2  A    between atoms: N_2  and  C_3 
REMARK    3  A    between atoms: N_2  and  C_7 
REMARK    4  A    between atoms: C_3  and  C_4 
REMARK    5  A    between atoms: C_4  and  O_5 
ROOT
HETATM    1  N   UNK N   1      34.888  16.630   9.996  0.00  0.00    -0.226 N 
ENDROOT
BRANCH   1   2
HETATM    2  O   UNK N   1      35.876  17.346  10.557  0.00  0.00    -0.285 OA
HETATM    3  H   UNK N   1      35.828  18.314  10.565  0.00  0.00     0.245 HD
ENDBRANCH   1   2
BRANCH   1   4
HETATM    4  C   UNK N   1      33.986  17.202   9.013  0.00  0.00     0.268 C 
BRANCH   4   5
HETATM    5  C   UNK N   1      34.574  18.192   8.039  0.00  0.00     0.160 C 
HETATM    6  O   UNK N   1      34.435  18.074   6.833  0.00  0.00    -0.649 OA
BRANCH   5   7
HETATM    7  O   UNK N   1      35.273  19.236   8.522  0.00  0.00    -0.775 OA
HETATM    8  H   UNK N   1      35.718  19.814   7.936  0.00  0.00     0.167 HD
ENDBRANCH   5   7
ENDBRANCH   4   5
ENDBRANCH   1   4
BRANCH   1   9
HETATM    9  C   UNK N   1      34.713  15.336  10.343  0.00  0.00     0.377 C 
HETATM   10  O   UNK N   1      33.966  15.029  11.260  0.00  0.00    -0.281 OA
ENDBRANCH   1   9
TORSDOF 5
ENDMDL
MODEL 3
REMARK VINA RESULT:      -4.2      1.668      3.374
REMARK  5 active torsions:
REMARK  status: ('A' for Active; 'I' for Inactive)
REMARK    1  A    between atoms: O_1  and  N_2 
REMARK    2  A    between atoms: N_2  and  C_3 
REMARK    3  A    between atoms: N_2  and  C_7 
REMARK    4  A    between atoms: C_3  and  C_4 
REMARK    5  A    between atoms: C_4  and  O_5 
ROOT
HETATM    1  N   UNK N   1      19.872  18.342   1.934  0.00  0.00    -0.226 N 
ENDROOT
BRANCH   1   2
HETATM    2  O   UNK N   1      18.599  18.636   2.245  0.00  0.00    -0.285 OA
HETATM    3  H   UNK N   1      18.174  18.206   3.003  0.00  0.00     0.245 HD
ENDBRANCH   1   2
BRANCH   1   4
HETATM    4  C   UNK N   1      20.987  19.120   2.444  0.00  0.00     0.268 C 
BRANCH   4   5
HETATM    5  C   UNK N   1      21.233  20.464   1.806  0.00  0.00     0.160 C 
HETATM    6  O   UNK N   1      21.266  20.609   0.595  0.00  0.00    -0.649 OA
BRANCH   5   7
HETATM    7  O   UNK N   1      21.423  21.531   2.603  0.00  0.00    -0.775 OA
HETATM    8  H   UNK N   1      21.661  21.411   3.500  0.00  0.00     0.167 HD
ENDBRANCH   5   7
ENDBRANCH   4   5
ENDBRANCH   1   4
BRANCH   1   9
HETATM    9  C   UNK N   1      20.143  17.296   1.122  0.00  0.00     0.377 C 
HETATM   10  O   UNK N   1      20.355  17.466  -0.068  0.00  0.00    -0.281 OA
ENDBRANCH   1   9
TORSDOF 5
ENDMDL
MODEL 4
REMARK VINA RESULT:      -4.2     11.306     12.488
REMARK  5 active torsions:
REMARK  status: ('A' for Active; 'I' for Inactive)
REMARK    1  A    between atoms: O_1  and  N_2 
REMARK    2  A    between atoms: N_2  and  C_3 
REMARK    3  A    between atoms: N_2  and  C_7 
REMARK    4  A    between atoms: C_3  and  C_4 
REMARK    5  A    between atoms: C_4  and  O_5 
ROOT
HETATM    1  N   UNK N   1      21.520  12.214  11.029  0.00  0.00    -0.226 N 
ENDROOT
BRANCH   1   2
HETATM    2  O   UNK N   1      20.733  11.714  11.996  0.00  0.00    -0.285 OA
HETATM    3  H   UNK N   1      20.975  11.831  12.928  0.00  0.00     0.245 HD
ENDBRANCH   1   2
BRANCH   1   4
HETATM    4  C   UNK N   1      22.875  11.738  10.820  0.00  0.00     0.268 C 
BRANCH   4   5
HETATM    5  C   UNK N   1      23.883  12.043  11.900  0.00  0.00     0.160 C 
HETATM    6  O   UNK N   1      23.592  12.008  13.084  0.00  0.00    -0.649 OA
BRANCH   5   7
HETATM    7  O   UNK N   1      25.139  12.362  11.539  0.00  0.00    -0.775 OA
HETATM    8  H   UNK N   1      25.861  12.111  12.079  0.00  0.00     0.167 HD
ENDBRANCH   5   7
ENDBRANCH   4   5
ENDBRANCH   1   4
BRANCH   1   9
HETATM    9  C   UNK N   1      21.054  13.189  10.218  0.00  0.00     0.377 C 
HETATM   10  O   UNK N   1      19.857  13.412  10.131  0.00  0.00    -0.281 OA
ENDBRANCH   1   9
TORSDOF 5
ENDMDL
MODEL 5
REMARK VINA RESULT:      -4.0     11.455     12.596
REMARK  5 active torsions:
REMARK  status: ('A' for Active; 'I' for Inactive)
REMARK    1  A    between atoms: O_1  and  N_2 
REMARK    2  A    between atoms: N_2  and  C_3 
REMARK    3  A    between atoms: N_2  and  C_7 
REMARK    4  A    between atoms: C_3  and  C_4 
REMARK    5  A    between atoms: C_4  and  O_5 
ROOT
HETATM    1  N   UNK N   1      23.625  11.998  11.774  0.00  0.00    -0.226 N 
ENDROOT
BRANCH   1   2
HETATM    2  O   UNK N   1      24.917  12.324  11.610  0.00  0.00    -0.285 OA
HETATM    3  H   UNK N   1      25.612  11.757  11.979  0.00  0.00     0.245 HD
ENDBRANCH   1   2
BRANCH   1   4
HETATM    4  C   UNK N   1      22.744  11.759  10.646  0.00  0.00     0.268 C 
BRANCH   4   5
HETATM    5  C   UNK N   1      21.647  12.766  10.407  0.00  0.00     0.160 C 
HETATM    6  O   UNK N   1      20.483  12.535  10.690  0.00  0.00    -0.649 OA
BRANCH   5   7
HETATM    7  O   UNK N   1      21.970  13.955   9.865  0.00  0.00    -0.775 OA
HETATM    8  H   UNK N   1      22.621  14.003   9.194  0.00  0.00     0.167 HD
ENDBRANCH   5   7
ENDBRANCH   4   5
ENDBRANCH   1   4
BRANCH   1   9
HETATM    9  C   UNK N   1      23.112  11.885  13.019  0.00  0.00     0.377 C 
HETATM   10  O   UNK N   1      23.747  12.254  13.994  0.00  0.00    -0.281 OA
ENDBRANCH   1   9
TORSDOF 5
ENDMDL
MODEL 6
REMARK VINA RESULT:      -4.0      1.453      3.561
REMARK  5 active torsions:
REMARK  status: ('A' for Active; 'I' for Inactive)
REMARK    1  A    between atoms: O_1  and  N_2 
REMARK    2  A    between atoms: N_2  and  C_3 
REMARK    3  A    between atoms: N_2  and  C_7 
REMARK    4  A    between atoms: C_3  and  C_4 
REMARK    5  A    between atoms: C_4  and  O_5 
ROOT
HETATM    1  N   UNK N   1      19.670  18.613   2.608  0.00  0.00    -0.226 N 
ENDROOT
BRANCH   1   2
HETATM    2  O   UNK N   1      18.368  18.818   2.351  0.00  0.00    -0.285 OA
HETATM    3  H   UNK N   1      18.101  19.309   1.558  0.00  0.00     0.245 HD
ENDBRANCH   1   2
BRANCH   1   4
HETATM    4  C   UNK N   1      20.649  19.680   2.509  0.00  0.00     0.268 C 
BRANCH   4   5
HETATM    5  C   UNK N   1      20.718  20.428   1.202  0.00  0.00     0.160 C 
HETATM    6  O   UNK N   1      20.907  21.633   1.154  0.00  0.00    -0.649 OA
BRANCH   5   7
HETATM    7  O   UNK N   1      20.564  19.740   0.056  0.00  0.00    -0.775 OA
HETATM    8  H   UNK N   1      20.321  20.186  -0.730  0.00  0.00     0.167 HD
ENDBRANCH   5   7
ENDBRANCH   4   5
ENDBRANCH   1   4
BRANCH   1   9
HETATM    9  C   UNK N   1      20.100  17.385   2.972  0.00  0.00     0.377 C 
HETATM   10  O   UNK N   1      21.292  17.143   3.071  0.00  0.00    -0.281 OA
ENDBRANCH   1   9
TORSDOF 5
ENDMDL
MODEL 7
REMARK VINA RESULT:      -3.9     17.783     18.535
REMARK  5 active torsions:
REMARK  status: ('A' for Active; 'I' for Inactive)
REMARK    1  A    between atoms: O_1  and  N_2 
REMARK    2  A    between atoms: N_2  and  C_3 
REMARK    3  A    between atoms: N_2  and  C_7 
REMARK    4  A    between atoms: C_3  and  C_4 
REMARK    5  A    between atoms: C_4  and  O_5 
ROOT
HETATM    1  N   UNK N   1      34.768  15.475  11.026  0.00  0.00    -0.226 N 
ENDROOT
BRANCH   1   2
HETATM    2  O   UNK N   1      33.573  14.919  11.283  0.00  0.00    -0.285 OA
HETATM    3  H   UNK N   1      33.517  13.984  11.535  0.00  0.00     0.245 HD
ENDBRANCH   1   2
BRANCH   1   4
HETATM    4  C   UNK N   1      35.992  14.981  11.630  0.00  0.00     0.268 C 
BRANCH   4   5
HETATM    5  C   UNK N   1      35.886  14.409  13.021  0.00  0.00     0.160 C 
HETATM    6  O   UNK N   1      34.971  13.672  13.350  0.00  0.00    -0.649 OA
BRANCH   5   7
HETATM    7  O   UNK N   1      36.834  14.725  13.923  0.00  0.00    -0.775 OA
HETATM    8  H   UNK N   1      36.589  15.018  14.777  0.00  0.00     0.167 HD
ENDBRANCH   5   7
ENDBRANCH   4   5
ENDBRANCH   1   4
BRANCH   1   9
HETATM    9  C   UNK N   1      34.853  16.527  10.182  0.00  0.00     0.377 C 
HETATM   10  O   UNK N   1      35.681  17.407  10.359  0.00  0.00    -0.281 OA
ENDBRANCH   1   9
TORSDOF 5
ENDMDL
MODEL 8
REMARK VINA RESULT:      -3.9      1.843      2.423
REMARK  5 active torsions:
REMARK  status: ('A' for Active; 'I' for Inactive)
REMARK    1  A    between atoms: O_1  and  N_2 
REMARK    2  A    between atoms: N_2  and  C_3 
REMARK    3  A    between atoms: N_2  and  C_7 
REMARK    4  A    between atoms: C_3  and  C_4 
REMARK    5  A    between atoms: C_4  and  O_5 
ROOT
HETATM    1  N   UNK N   1      20.657  19.451   1.387  0.00  0.00    -0.226 N 
ENDROOT
BRANCH   1   2
HETATM    2  O   UNK N   1      20.569  19.750   0.081  0.00  0.00    -0.285 OA
HETATM    3  H   UNK N   1      20.849  19.103  -0.585  0.00  0.00     0.245 HD
ENDBRANCH   1   2
BRANCH   1   4
HETATM    4  C   UNK N   1      20.351  18.126   1.895  0.00  0.00     0.268 C 
BRANCH   4   5
HETATM    5  C   UNK N   1      19.989  17.071   0.880  0.00  0.00     0.160 C 
HETATM    6  O   UNK N   1      20.768  16.189   0.557  0.00  0.00    -0.649 OA
BRANCH   5   7
HETATM    7  O   UNK N   1      18.767  17.109   0.317  0.00  0.00    -0.775 OA
HETATM    8  H   UNK N   1      18.051  17.500   0.776  0.00  0.00     0.167 HD
ENDBRANCH   5   7
ENDBRANCH   4   5
ENDBRANCH   1   4
BRANCH   1   9
HETATM    9  C   UNK N   1      21.042  20.398   2.270  0.00  0.00     0.377 C 
HETATM   10  O   UNK N   1      22.135  20.934   2.178  0.00  0.00    -0.281 OA
ENDBRANCH   1   9
TORSDOF 5
ENDMDL
MODEL 9
REMARK VINA RESULT:      -3.9     15.774     16.783
REMARK  5 active torsions:
REMARK  status: ('A' for Active; 'I' for Inactive)
REMARK    1  A    between atoms: O_1  and  N_2 
REMARK    2  A    between atoms: N_2  and  C_3 
REMARK    3  A    between atoms: N_2  and  C_7 
REMARK    4  A    between atoms: C_3  and  C_4 
REMARK    5  A    between atoms: C_4  and  O_5 
ROOT
HETATM    1  N   UNK N   1      34.996  15.943   9.133  0.00  0.00    -0.226 N 
ENDROOT
BRANCH   1   2
HETATM    2  O   UNK N   1      34.735  15.096   8.123  0.00  0.00    -0.285 OA
HETATM    3  H   UNK N   1      34.071  15.328   7.455  0.00  0.00     0.245 HD
ENDBRANCH   1   2
BRANCH   1   4
HETATM    4  C   UNK N   1      34.355  17.241   9.232  0.00  0.00     0.268 C 
BRANCH   4   5
HETATM    5  C   UNK N   1      34.767  18.287   8.227  0.00  0.00     0.160 C 
HETATM    6  O   UNK N   1      35.289  19.337   8.564  0.00  0.00    -0.649 OA
BRANCH   5   7
HETATM    7  O   UNK N   1      34.550  18.048   6.921  0.00  0.00    -0.775 OA
HETATM    8  H   UNK N   1      34.774  18.695   6.283  0.00  0.00     0.167 HD
ENDBRANCH   5   7
ENDBRANCH   4   5
ENDBRANCH   1   4
BRANCH   1   9
HETATM    9  C   UNK N   1      35.879  15.593  10.094  0.00  0.00     0.377 C 
HETATM   10  O   UNK N   1      36.468  16.443  10.743  0.00  0.00    -0.281 OA
ENDBRANCH   1   9
TORSDOF 5
ENDMDL
