MODEL 1
REMARK VINA RESULT:      -6.9      0.000      0.000
REMARK  9 active torsions:
REMARK  status: ('A' for Active; 'I' for Inactive)
REMARK    1  A    between atoms: C_7  and  C_5 
REMARK    2  A    between atoms: O_20  and  C_5 
REMARK    3  A    between atoms: C_11  and  C_6 
REMARK    4  A    between atoms: C_8  and  O_13 
REMARK    5  A    between atoms: C_9  and  O_14 
REMARK    6  A    between atoms: C_10  and  N_12 
REMARK    7  A    between atoms: O_16  and  C_11 
REMARK    8  A    between atoms: P_22  and  O_17 
REMARK    9  A    between atoms: P_22  and  O_20 
ROOT
HETATM    1  C   UNK N   1      35.460  12.949  12.257  0.00  0.00     0.180 C 
HETATM    2  C   UNK N   1      36.737  13.791  12.181  0.00  0.00     0.182 C 
HETATM    3  C   UNK N   1      36.363  14.630  10.990  0.00  0.00     0.198 C 
HETATM    4  C   UNK N   1      34.917  14.970  11.374  0.00  0.00     0.259 C 
HETATM    5  O   UNK N   1      34.371  13.786  11.931  0.00  0.00    -0.353 OA
ENDROOT
BRANCH   4   6
HETATM    6  N   UNK N   1      34.066  15.430  10.270  0.00  0.00    -0.336 N 
HETATM    7  C   UNK N   1      32.817  14.917  10.042  0.00  0.00     0.093 A 
HETATM    8  C   UNK N   1      32.030  15.410   8.998  0.00  0.00     0.018 A 
HETATM    9  C   UNK N   1      32.514  16.453   8.207  0.00  0.00     0.021 A 
HETATM   10  C   UNK N   1      33.787  16.978   8.455  0.00  0.00     0.053 A 
HETATM   11  C   UNK N   1      34.549  16.434   9.486  0.00  0.00     0.111 A 
BRANCH  10  12
HETATM   12  C   UNK N   1      34.314  18.117   7.680  0.00  0.00     0.177 C 
HETATM   13  O   UNK N   1      34.841  19.060   8.246  0.00  0.00    -0.646 OA
BRANCH  12  14
HETATM   14  O   UNK N   1      34.243  18.105   6.332  0.00  0.00    -0.773 OA
HETATM   15  H   UNK N   1      34.974  17.819   5.820  0.00  0.00     0.167 HD
ENDBRANCH  12  14
ENDBRANCH  10  12
ENDBRANCH   4   6
BRANCH   3  16
HETATM   16  O   UNK N   1      37.175  15.755  10.827  0.00  0.00    -0.388 OA
HETATM   17  H   UNK N   1      37.996  16.124  11.190  0.00  0.00     0.210 HD
ENDBRANCH   3  16
BRANCH   2  18
HETATM   18  O   UNK N   1      36.875  14.605  13.315  0.00  0.00    -0.390 OA
HETATM   19  H   UNK N   1      37.175  15.424  13.739  0.00  0.00     0.210 HD
ENDBRANCH   2  18
BRANCH   1  20
HETATM   20  C   UNK N   1      35.232  12.272  13.606  0.00  0.00     0.216 C 
BRANCH  20  21
HETATM   21  O   UNK N   1      34.836  13.213  14.565  0.00  0.00    -0.287 OA
BRANCH  21  22
HETATM   22  P   UNK N   1      35.308  12.536  16.091  0.00  0.00     0.406 P 
HETATM   23  O   UNK N   1      33.808  13.394  16.275  0.00  0.00    -0.624 OA
HETATM   24  O   UNK N   1      36.459  13.532  15.788  0.00  0.00    -0.624 OA
BRANCH  22  25
HETATM   25  O   UNK N   1      35.349  13.535  17.510  0.00  0.00    -0.300 OA
HETATM   26  H   UNK N   1      34.918  13.648  18.372  0.00  0.00     0.223 HD
ENDBRANCH  22  25
ENDBRANCH  21  22
ENDBRANCH  20  21
ENDBRANCH   1  20
TORSDOF 9
ENDMDL
MODEL 2
REMARK VINA RESULT:      -6.6      3.258      4.755
REMARK  9 active torsions:
REMARK  status: ('A' for Active; 'I' for Inactive)
REMARK    1  A    between atoms: C_7  and  C_5 
REMARK    2  A    between atoms: O_20  and  C_5 
REMARK    3  A    between atoms: C_11  and  C_6 
REMARK    4  A    between atoms: C_8  and  O_13 
REMARK    5  A    between atoms: C_9  and  O_14 
REMARK    6  A    between atoms: C_10  and  N_12 
REMARK    7  A    between atoms: O_16  and  C_11 
REMARK    8  A    between atoms: P_22  and  O_17 
REMARK    9  A    between atoms: P_22  and  O_20 
ROOT
HETATM    1  C   UNK N   1      34.517  15.341   8.949  0.00  0.00     0.180 C 
HETATM    2  C   UNK N   1      35.244  16.689   8.950  0.00  0.00     0.182 C 
HETATM    3  C   UNK N   1      34.239  17.470   8.148  0.00  0.00     0.198 C 
HETATM    4  C   UNK N   1      32.953  16.984   8.828  0.00  0.00     0.259 C 
HETATM    5  O   UNK N   1      33.133  15.597   9.064  0.00  0.00    -0.353 OA
ENDROOT
BRANCH   4   6
HETATM    6  N   UNK N   1      31.718  17.195   8.061  0.00  0.00    -0.336 N 
HETATM    7  C   UNK N   1      31.672  17.079   6.698  0.00  0.00     0.093 A 
HETATM    8  C   UNK N   1      30.466  17.257   6.014  0.00  0.00     0.018 A 
HETATM    9  C   UNK N   1      29.301  17.522   6.735  0.00  0.00     0.021 A 
HETATM   10  C   UNK N   1      29.357  17.628   8.129  0.00  0.00     0.053 A 
HETATM   11  C   UNK N   1      30.587  17.475   8.766  0.00  0.00     0.111 A 
BRANCH  10  12
HETATM   12  C   UNK N   1      28.141  17.852   8.933  0.00  0.00     0.177 C 
HETATM   13  O   UNK N   1      27.778  17.023   9.750  0.00  0.00    -0.646 OA
BRANCH  12  14
HETATM   14  O   UNK N   1      27.440  18.996   8.790  0.00  0.00    -0.773 OA
HETATM   15  H   UNK N   1      27.223  19.317   7.936  0.00  0.00     0.167 HD
ENDBRANCH  12  14
ENDBRANCH  10  12
ENDBRANCH   4   6
BRANCH   3  16
HETATM   16  O   UNK N   1      34.422  18.853   8.226  0.00  0.00    -0.388 OA
HETATM   17  H   UNK N   1      34.008  19.623   8.647  0.00  0.00     0.210 HD
ENDBRANCH   3  16
BRANCH   2  18
HETATM   18  O   UNK N   1      35.333  17.214  10.247  0.00  0.00    -0.390 OA
HETATM   19  H   UNK N   1      35.034  17.251  11.169  0.00  0.00     0.210 HD
ENDBRANCH   2  18
BRANCH   1  20
HETATM   20  C   UNK N   1      34.977  14.376  10.038  0.00  0.00     0.216 C 
BRANCH  20  21
HETATM   21  O   UNK N   1      34.475  14.771  11.285  0.00  0.00    -0.287 OA
BRANCH  21  22
HETATM   22  P   UNK N   1      35.375  13.853  12.450  0.00  0.00     0.406 P 
HETATM   23  O   UNK N   1      36.032  15.457  12.342  0.00  0.00    -0.624 OA
HETATM   24  O   UNK N   1      35.635  13.079  11.130  0.00  0.00    -0.624 OA
BRANCH  22  25
HETATM   25  O   UNK N   1      37.107  13.795  12.362  0.00  0.00    -0.300 OA
HETATM   26  H   UNK N   1      37.892  13.653  12.916  0.00  0.00     0.223 HD
ENDBRANCH  22  25
ENDBRANCH  21  22
ENDBRANCH  20  21
ENDBRANCH   1  20
TORSDOF 9
ENDMDL
MODEL 3
REMARK VINA RESULT:      -6.5      2.728      7.354
REMARK  9 active torsions:
REMARK  status: ('A' for Active; 'I' for Inactive)
REMARK    1  A    between atoms: C_7  and  C_5 
REMARK    2  A    between atoms: O_20  and  C_5 
REMARK    3  A    between atoms: C_11  and  C_6 
REMARK    4  A    between atoms: C_8  and  O_13 
REMARK    5  A    between atoms: C_9  and  O_14 
REMARK    6  A    between atoms: C_10  and  N_12 
REMARK    7  A    between atoms: O_16  and  C_11 
REMARK    8  A    between atoms: P_22  and  O_17 
REMARK    9  A    between atoms: P_22  and  O_20 
ROOT
HETATM    1  C   UNK N   1      34.583  15.465  10.935  0.00  0.00     0.180 C 
HETATM    2  C   UNK N   1      35.823  15.932  11.704  0.00  0.00     0.182 C 
HETATM    3  C   UNK N   1      35.802  14.889  12.788  0.00  0.00     0.198 C 
HETATM    4  C   UNK N   1      35.518  13.649  11.929  0.00  0.00     0.259 C 
HETATM    5  O   UNK N   1      34.566  14.053  10.959  0.00  0.00    -0.353 OA
ENDROOT
BRANCH   4   6
HETATM    6  N   UNK N   1      35.009  12.482  12.660  0.00  0.00    -0.336 N 
HETATM    7  C   UNK N   1      34.541  11.364  12.024  0.00  0.00     0.093 A 
HETATM    8  C   UNK N   1      34.095  10.265  12.763  0.00  0.00     0.018 A 
HETATM    9  C   UNK N   1      34.162  10.302  14.156  0.00  0.00     0.021 A 
HETATM   10  C   UNK N   1      34.652  11.445  14.797  0.00  0.00     0.053 A 
HETATM   11  C   UNK N   1      35.054  12.530  14.021  0.00  0.00     0.111 A 
BRANCH  10  12
HETATM   12  C   UNK N   1      34.791  11.506  16.264  0.00  0.00     0.177 C 
HETATM   13  O   UNK N   1      34.873  12.580  16.834  0.00  0.00    -0.646 OA
BRANCH  12  14
HETATM   14  O   UNK N   1      34.795  10.367  16.987  0.00  0.00    -0.773 OA
HETATM   15  H   UNK N   1      34.885  10.396  17.920  0.00  0.00     0.167 HD
ENDBRANCH  12  14
ENDBRANCH  10  12
ENDBRANCH   4   6
BRANCH   3  16
HETATM   16  O   UNK N   1      36.999  14.809  13.503  0.00  0.00    -0.388 OA
HETATM   17  H   UNK N   1      37.505  15.334  14.144  0.00  0.00     0.210 HD
ENDBRANCH   3  16
BRANCH   2  18
HETATM   18  O   UNK N   1      36.982  15.791  10.927  0.00  0.00    -0.390 OA
HETATM   19  H   UNK N   1      37.746  15.272  10.631  0.00  0.00     0.210 HD
ENDBRANCH   2  18
BRANCH   1  20
HETATM   20  C   UNK N   1      34.501  15.978   9.500  0.00  0.00     0.216 C 
BRANCH  20  21
HETATM   21  O   UNK N   1      34.797  17.346   9.452  0.00  0.00    -0.287 OA
BRANCH  21  22
HETATM   22  P   UNK N   1      33.832  17.977   8.155  0.00  0.00     0.406 P 
HETATM   23  O   UNK N   1      34.487  16.435   7.696  0.00  0.00    -0.624 OA
HETATM   24  O   UNK N   1      34.970  19.025   8.276  0.00  0.00    -0.624 OA
BRANCH  22  25
HETATM   25  O   UNK N   1      34.478  18.046   6.545  0.00  0.00    -0.300 OA
HETATM   26  H   UNK N   1      35.303  18.222   6.065  0.00  0.00     0.223 HD
ENDBRANCH  22  25
ENDBRANCH  21  22
ENDBRANCH  20  21
ENDBRANCH   1  20
TORSDOF 9
ENDMDL
MODEL 4
REMARK VINA RESULT:      -6.2      4.121      6.355
REMARK  9 active torsions:
REMARK  status: ('A' for Active; 'I' for Inactive)
REMARK    1  A    between atoms: C_7  and  C_5 
REMARK    2  A    between atoms: O_20  and  C_5 
REMARK    3  A    between atoms: C_11  and  C_6 
REMARK    4  A    between atoms: C_8  and  O_13 
REMARK    5  A    between atoms: C_9  and  O_14 
REMARK    6  A    between atoms: C_10  and  N_12 
REMARK    7  A    between atoms: O_16  and  C_11 
REMARK    8  A    between atoms: P_22  and  O_17 
REMARK    9  A    between atoms: P_22  and  O_20 
ROOT
HETATM    1  C   UNK N   1      33.427  15.052   7.316  0.00  0.00     0.180 C 
HETATM    2  C   UNK N   1      34.075  15.537   6.015  0.00  0.00     0.182 C 
HETATM    3  C   UNK N   1      32.828  16.024   5.330  0.00  0.00     0.198 C 
HETATM    4  C   UNK N   1      32.177  16.766   6.503  0.00  0.00     0.259 C 
HETATM    5  O   UNK N   1      32.396  15.958   7.648  0.00  0.00    -0.353 OA
ENDROOT
BRANCH   4   6
HETATM    6  N   UNK N   1      30.740  17.032   6.359  0.00  0.00    -0.336 N 
HETATM    7  C   UNK N   1      30.082  16.885   5.168  0.00  0.00     0.093 A 
HETATM    8  C   UNK N   1      28.707  17.119   5.086  0.00  0.00     0.018 A 
HETATM    9  C   UNK N   1      28.002  17.473   6.237  0.00  0.00     0.021 A 
HETATM   10  C   UNK N   1      28.682  17.610   7.452  0.00  0.00     0.053 A 
HETATM   11  C   UNK N   1      30.058  17.399   7.479  0.00  0.00     0.111 A 
BRANCH  10  12
HETATM   12  C   UNK N   1      27.966  17.928   8.702  0.00  0.00     0.177 C 
HETATM   13  O   UNK N   1      27.979  17.147   9.638  0.00  0.00    -0.646 OA
BRANCH  12  14
HETATM   14  O   UNK N   1      27.319  19.105   8.827  0.00  0.00    -0.773 OA
HETATM   15  H   UNK N   1      26.460  19.139   9.202  0.00  0.00     0.167 HD
ENDBRANCH  12  14
ENDBRANCH  10  12
ENDBRANCH   4   6
BRANCH   3  16
HETATM   16  O   UNK N   1      33.087  16.843   4.228  0.00  0.00    -0.388 OA
HETATM   17  H   UNK N   1      33.849  17.207   3.748  0.00  0.00     0.210 HD
ENDBRANCH   3  16
BRANCH   2  18
HETATM   18  O   UNK N   1      34.942  16.612   6.253  0.00  0.00    -0.390 OA
HETATM   19  H   UNK N   1      35.836  16.971   6.369  0.00  0.00     0.210 HD
ENDBRANCH   2  18
BRANCH   1  20
HETATM   20  C   UNK N   1      34.398  14.891   8.483  0.00  0.00     0.216 C 
BRANCH  20  21
HETATM   21  O   UNK N   1      34.621  16.126   9.105  0.00  0.00    -0.287 OA
BRANCH  21  22
HETATM   22  P   UNK N   1      35.344  15.740  10.636  0.00  0.00     0.406 P 
HETATM   23  O   UNK N   1      35.636  17.411  10.259  0.00  0.00    -0.624 OA
HETATM   24  O   UNK N   1      36.121  14.827   9.650  0.00  0.00    -0.624 OA
BRANCH  22  25
HETATM   25  O   UNK N   1      37.002  16.150  10.942  0.00  0.00    -0.300 OA
HETATM   26  H   UNK N   1      37.875  16.148  10.519  0.00  0.00     0.223 HD
ENDBRANCH  22  25
ENDBRANCH  21  22
ENDBRANCH  20  21
ENDBRANCH   1  20
TORSDOF 9
ENDMDL
MODEL 5
REMARK VINA RESULT:      -6.2     17.074     21.244
REMARK  9 active torsions:
REMARK  status: ('A' for Active; 'I' for Inactive)
REMARK    1  A    between atoms: C_7  and  C_5 
REMARK    2  A    between atoms: O_20  and  C_5 
REMARK    3  A    between atoms: C_11  and  C_6 
REMARK    4  A    between atoms: C_8  and  O_13 
REMARK    5  A    between atoms: C_9  and  O_14 
REMARK    6  A    between atoms: C_10  and  N_12 
REMARK    7  A    between atoms: O_16  and  C_11 
REMARK    8  A    between atoms: P_22  and  O_17 
REMARK    9  A    between atoms: P_22  and  O_20 
ROOT
HETATM    1  C   UNK N   1      27.023  26.294  -6.445  0.00  0.00     0.180 C 
HETATM    2  C   UNK N   1      25.754  25.465  -6.672  0.00  0.00     0.182 C 
HETATM    3  C   UNK N   1      26.378  24.099  -6.583  0.00  0.00     0.198 C 
HETATM    4  C   UNK N   1      27.269  24.317  -5.353  0.00  0.00     0.259 C 
HETATM    5  O   UNK N   1      27.813  25.620  -5.488  0.00  0.00    -0.353 OA
ENDROOT
BRANCH   4   6
HETATM    6  N   UNK N   1      28.358  23.346  -5.187  0.00  0.00    -0.336 N 
HETATM    7  C   UNK N   1      28.764  22.517  -6.198  0.00  0.00     0.093 A 
HETATM    8  C   UNK N   1      29.827  21.631  -6.002  0.00  0.00     0.018 A 
HETATM    9  C   UNK N   1      30.494  21.621  -4.777  0.00  0.00     0.021 A 
HETATM   10  C   UNK N   1      30.078  22.479  -3.754  0.00  0.00     0.053 A 
HETATM   11  C   UNK N   1      28.993  23.322  -3.983  0.00  0.00     0.111 A 
BRANCH  10  12
HETATM   12  C   UNK N   1      30.790  22.539  -2.463  0.00  0.00     0.177 C 
HETATM   13  O   UNK N   1      30.310  23.144  -1.519  0.00  0.00    -0.646 OA
BRANCH  12  14
HETATM   14  O   UNK N   1      31.966  21.895  -2.311  0.00  0.00    -0.773 OA
HETATM   15  H   UNK N   1      32.729  22.357  -2.025  0.00  0.00     0.167 HD
ENDBRANCH  12  14
ENDBRANCH  10  12
ENDBRANCH   4   6
BRANCH   3  16
HETATM   16  O   UNK N   1      25.444  23.074  -6.420  0.00  0.00    -0.388 OA
HETATM   17  H   UNK N   1      24.807  22.762  -5.757  0.00  0.00     0.210 HD
ENDBRANCH   3  16
BRANCH   2  18
HETATM   18  O   UNK N   1      24.840  25.643  -5.624  0.00  0.00    -0.390 OA
HETATM   19  H   UNK N   1      23.942  25.825  -5.304  0.00  0.00     0.210 HD
ENDBRANCH   2  18
BRANCH   1  20
HETATM   20  C   UNK N   1      26.765  27.734  -6.010  0.00  0.00     0.216 C 
BRANCH  20  21
HETATM   21  O   UNK N   1      26.197  27.764  -4.730  0.00  0.00    -0.287 OA
BRANCH  21  22
HETATM   22  P   UNK N   1      27.315  28.665  -3.756  0.00  0.00     0.406 P 
HETATM   23  O   UNK N   1      26.027  28.064  -2.757  0.00  0.00    -0.624 OA
HETATM   24  O   UNK N   1      26.772  29.739  -4.737  0.00  0.00    -0.624 OA
BRANCH  22  25
HETATM   25  O   UNK N   1      26.735  29.912  -2.696  0.00  0.00    -0.300 OA
HETATM   26  H   UNK N   1      26.468  30.845  -2.696  0.00  0.00     0.223 HD
ENDBRANCH  22  25
ENDBRANCH  21  22
ENDBRANCH  20  21
ENDBRANCH   1  20
TORSDOF 9
ENDMDL
MODEL 6
REMARK VINA RESULT:      -6.1      2.832      4.348
REMARK  9 active torsions:
REMARK  status: ('A' for Active; 'I' for Inactive)
REMARK    1  A    between atoms: C_7  and  C_5 
REMARK    2  A    between atoms: O_20  and  C_5 
REMARK    3  A    between atoms: C_11  and  C_6 
REMARK    4  A    between atoms: C_8  and  O_13 
REMARK    5  A    between atoms: C_9  and  O_14 
REMARK    6  A    between atoms: C_10  and  N_12 
REMARK    7  A    between atoms: O_16  and  C_11 
REMARK    8  A    between atoms: P_22  and  O_17 
REMARK    9  A    between atoms: P_22  and  O_20 
ROOT
HETATM    1  C   UNK N   1      34.156  15.265   9.155  0.00  0.00     0.180 C 
HETATM    2  C   UNK N   1      34.963  16.567   9.141  0.00  0.00     0.182 C 
HETATM    3  C   UNK N   1      34.217  17.264   8.037  0.00  0.00     0.198 C 
HETATM    4  C   UNK N   1      32.781  16.938   8.467  0.00  0.00     0.259 C 
HETATM    5  O   UNK N   1      32.803  15.593   8.919  0.00  0.00    -0.353 OA
ENDROOT
BRANCH   4   6
HETATM    6  N   UNK N   1      31.762  17.086   7.420  0.00  0.00    -0.336 N 
HETATM    7  C   UNK N   1      30.448  17.341   7.705  0.00  0.00     0.093 A 
HETATM    8  C   UNK N   1      29.520  17.506   6.673  0.00  0.00     0.018 A 
HETATM    9  C   UNK N   1      29.950  17.442   5.347  0.00  0.00     0.021 A 
HETATM   10  C   UNK N   1      31.297  17.193   5.067  0.00  0.00     0.053 A 
HETATM   11  C   UNK N   1      32.181  17.002   6.127  0.00  0.00     0.111 A 
BRANCH  10  12
HETATM   12  C   UNK N   1      31.804  17.172   3.681  0.00  0.00     0.177 C 
HETATM   13  O   UNK N   1      33.001  17.243   3.459  0.00  0.00    -0.646 OA
BRANCH  12  14
HETATM   14  O   UNK N   1      30.943  17.043   2.651  0.00  0.00    -0.773 OA
HETATM   15  H   UNK N   1      30.746  17.775   2.100  0.00  0.00     0.167 HD
ENDBRANCH  12  14
ENDBRANCH  10  12
ENDBRANCH   4   6
BRANCH   3  16
HETATM   16  O   UNK N   1      34.480  18.635   7.970  0.00  0.00    -0.388 OA
HETATM   17  H   UNK N   1      34.781  19.291   7.321  0.00  0.00     0.210 HD
ENDBRANCH   3  16
BRANCH   2  18
HETATM   18  O   UNK N   1      34.806  17.272  10.344  0.00  0.00    -0.390 OA
HETATM   19  H   UNK N   1      34.245  17.718  10.997  0.00  0.00     0.210 HD
ENDBRANCH   2  18
BRANCH   1  20
HETATM   20  C   UNK N   1      34.295  14.450  10.438  0.00  0.00     0.216 C 
BRANCH  20  21
HETATM   21  O   UNK N   1      35.642  14.347  10.808  0.00  0.00    -0.287 OA
BRANCH  21  22
HETATM   22  P   UNK N   1      35.622  13.780  12.448  0.00  0.00     0.406 P 
HETATM   23  O   UNK N   1      35.905  15.494  12.429  0.00  0.00    -0.624 OA
HETATM   24  O   UNK N   1      36.840  13.032  11.841  0.00  0.00    -0.624 OA
BRANCH  22  25
HETATM   25  O   UNK N   1      36.918  14.194  13.526  0.00  0.00    -0.300 OA
HETATM   26  H   UNK N   1      37.419  13.844  14.280  0.00  0.00     0.223 HD
ENDBRANCH  22  25
ENDBRANCH  21  22
ENDBRANCH  20  21
ENDBRANCH   1  20
TORSDOF 9
ENDMDL
MODEL 7
REMARK VINA RESULT:      -6.1      5.843      8.382
REMARK  9 active torsions:
REMARK  status: ('A' for Active; 'I' for Inactive)
REMARK    1  A    between atoms: C_7  and  C_5 
REMARK    2  A    between atoms: O_20  and  C_5 
REMARK    3  A    between atoms: C_11  and  C_6 
REMARK    4  A    between atoms: C_8  and  O_13 
REMARK    5  A    between atoms: C_9  and  O_14 
REMARK    6  A    between atoms: C_10  and  N_12 
REMARK    7  A    between atoms: O_16  and  C_11 
REMARK    8  A    between atoms: P_22  and  O_17 
REMARK    9  A    between atoms: P_22  and  O_20 
ROOT
HETATM    1  C   UNK N   1      30.644  18.041   8.034  0.00  0.00     0.180 C 
HETATM    2  C   UNK N   1      29.789  18.342   9.268  0.00  0.00     0.182 C 
HETATM    3  C   UNK N   1      28.444  18.342   8.596  0.00  0.00     0.198 C 
HETATM    4  C   UNK N   1      28.605  17.089   7.726  0.00  0.00     0.259 C 
HETATM    5  O   UNK N   1      29.933  17.124   7.229  0.00  0.00    -0.353 OA
ENDROOT
BRANCH   4   6
HETATM    6  N   UNK N   1      27.664  16.978   6.604  0.00  0.00    -0.336 N 
HETATM    7  C   UNK N   1      26.821  15.910   6.456  0.00  0.00     0.093 A 
HETATM    8  C   UNK N   1      25.920  15.864   5.388  0.00  0.00     0.018 A 
HETATM    9  C   UNK N   1      25.863  16.932   4.492  0.00  0.00     0.021 A 
HETATM   10  C   UNK N   1      26.722  18.023   4.658  0.00  0.00     0.053 A 
HETATM   11  C   UNK N   1      27.626  18.012   5.718  0.00  0.00     0.111 A 
BRANCH  10  12
HETATM   12  C   UNK N   1      26.657  19.196   3.767  0.00  0.00     0.177 C 
HETATM   13  O   UNK N   1      25.605  19.514   3.237  0.00  0.00    -0.646 OA
BRANCH  12  14
HETATM   14  O   UNK N   1      27.759  19.946   3.558  0.00  0.00    -0.773 OA
HETATM   15  H   UNK N   1      28.542  19.788   4.049  0.00  0.00     0.167 HD
ENDBRANCH  12  14
ENDBRANCH  10  12
ENDBRANCH   4   6
BRANCH   3  16
HETATM   16  O   UNK N   1      27.376  18.264   9.493  0.00  0.00    -0.388 OA
HETATM   17  H   UNK N   1      27.099  17.733  10.257  0.00  0.00     0.210 HD
ENDBRANCH   3  16
BRANCH   2  18
HETATM   18  O   UNK N   1      29.859  17.296  10.199  0.00  0.00    -0.390 OA
HETATM   19  H   UNK N   1      29.996  16.975  11.104  0.00  0.00     0.210 HD
ENDBRANCH   2  18
BRANCH   1  20
HETATM   20  C   UNK N   1      32.040  17.508   8.348  0.00  0.00     0.216 C 
BRANCH  20  21
HETATM   21  O   UNK N   1      33.008  18.485   8.081  0.00  0.00    -0.287 OA
BRANCH  21  22
HETATM   22  P   UNK N   1      34.530  17.659   8.186  0.00  0.00     0.406 P 
HETATM   23  O   UNK N   1      33.484  17.113   9.460  0.00  0.00    -0.624 OA
HETATM   24  O   UNK N   1      34.927  19.142   8.420  0.00  0.00    -0.624 OA
BRANCH  22  25
HETATM   25  O   UNK N   1      35.387  17.605   9.694  0.00  0.00    -0.300 OA
HETATM   26  H   UNK N   1      36.288  17.607  10.056  0.00  0.00     0.223 HD
ENDBRANCH  22  25
ENDBRANCH  21  22
ENDBRANCH  20  21
ENDBRANCH   1  20
TORSDOF 9
ENDMDL
MODEL 8
REMARK VINA RESULT:      -6.1      1.584      2.146
REMARK  9 active torsions:
REMARK  status: ('A' for Active; 'I' for Inactive)
REMARK    1  A    between atoms: C_7  and  C_5 
REMARK    2  A    between atoms: O_20  and  C_5 
REMARK    3  A    between atoms: C_11  and  C_6 
REMARK    4  A    between atoms: C_8  and  O_13 
REMARK    5  A    between atoms: C_9  and  O_14 
REMARK    6  A    between atoms: C_10  and  N_12 
REMARK    7  A    between atoms: O_16  and  C_11 
REMARK    8  A    between atoms: P_22  and  O_17 
REMARK    9  A    between atoms: P_22  and  O_20 
ROOT
HETATM    1  C   UNK N   1      35.251  13.059  11.785  0.00  0.00     0.180 C 
HETATM    2  C   UNK N   1      36.682  13.605  11.742  0.00  0.00     0.182 C 
HETATM    3  C   UNK N   1      36.509  14.554  10.588  0.00  0.00     0.198 C 
HETATM    4  C   UNK N   1      35.169  15.185  10.988  0.00  0.00     0.259 C 
HETATM    5  O   UNK N   1      34.373  14.127  11.495  0.00  0.00    -0.353 OA
ENDROOT
BRANCH   4   6
HETATM    6  N   UNK N   1      34.447  15.866   9.905  0.00  0.00    -0.336 N 
HETATM    7  C   UNK N   1      34.671  17.177   9.585  0.00  0.00     0.093 A 
HETATM    8  C   UNK N   1      33.983  17.774   8.525  0.00  0.00     0.018 A 
HETATM    9  C   UNK N   1      33.088  17.012   7.773  0.00  0.00     0.021 A 
HETATM   10  C   UNK N   1      32.874  15.669   8.102  0.00  0.00     0.053 A 
HETATM   11  C   UNK N   1      33.558  15.125   9.187  0.00  0.00     0.111 A 
BRANCH  10  12
HETATM   12  C   UNK N   1      31.979  14.813   7.300  0.00  0.00     0.177 C 
HETATM   13  O   UNK N   1      32.128  13.603   7.286  0.00  0.00    -0.646 OA
BRANCH  12  14
HETATM   14  O   UNK N   1      30.967  15.367   6.600  0.00  0.00    -0.773 OA
HETATM   15  H   UNK N   1      30.225  15.729   7.042  0.00  0.00     0.167 HD
ENDBRANCH  12  14
ENDBRANCH  10  12
ENDBRANCH   4   6
BRANCH   3  16
HETATM   16  O   UNK N   1      37.548  15.480  10.472  0.00  0.00    -0.388 OA
HETATM   17  H   UNK N   1      38.090  16.048  11.043  0.00  0.00     0.210 HD
ENDBRANCH   3  16
BRANCH   2  18
HETATM   18  O   UNK N   1      36.984  14.321  12.909  0.00  0.00    -0.390 OA
HETATM   19  H   UNK N   1      37.316  15.117  13.353  0.00  0.00     0.210 HD
ENDBRANCH   2  18
BRANCH   1  20
HETATM   20  C   UNK N   1      34.869  12.393  13.104  0.00  0.00     0.216 C 
BRANCH  20  21
HETATM   21  O   UNK N   1      34.894  13.326  14.148  0.00  0.00    -0.287 OA
BRANCH  21  22
HETATM   22  P   UNK N   1      35.342  12.421  15.559  0.00  0.00     0.406 P 
HETATM   23  O   UNK N   1      33.842  13.247  15.850  0.00  0.00    -0.624 OA
HETATM   24  O   UNK N   1      36.500  13.447  15.428  0.00  0.00    -0.624 OA
BRANCH  22  25
HETATM   25  O   UNK N   1      35.365  13.190  17.114  0.00  0.00    -0.300 OA
HETATM   26  H   UNK N   1      34.967  13.929  17.602  0.00  0.00     0.223 HD
ENDBRANCH  22  25
ENDBRANCH  21  22
ENDBRANCH  20  21
ENDBRANCH   1  20
TORSDOF 9
ENDMDL
MODEL 9
REMARK VINA RESULT:      -5.9      4.493      7.903
REMARK  9 active torsions:
REMARK  status: ('A' for Active; 'I' for Inactive)
REMARK    1  A    between atoms: C_7  and  C_5 
REMARK    2  A    between atoms: O_20  and  C_5 
REMARK    3  A    between atoms: C_11  and  C_6 
REMARK    4  A    between atoms: C_8  and  O_13 
REMARK    5  A    between atoms: C_9  and  O_14 
REMARK    6  A    between atoms: C_10  and  N_12 
REMARK    7  A    between atoms: O_16  and  C_11 
REMARK    8  A    between atoms: P_22  and  O_17 
REMARK    9  A    between atoms: P_22  and  O_20 
ROOT
HETATM    1  C   UNK N   1      36.588  11.684  12.505  0.00  0.00     0.180 C 
HETATM    2  C   UNK N   1      35.200  11.271  12.005  0.00  0.00     0.182 C 
HETATM    3  C   UNK N   1      34.645  10.777  13.313  0.00  0.00     0.198 C 
HETATM    4  C   UNK N   1      35.123  11.913  14.226  0.00  0.00     0.259 C 
HETATM    5  O   UNK N   1      36.434  12.238  13.795  0.00  0.00    -0.353 OA
ENDROOT
BRANCH   4   6
HETATM    6  N   UNK N   1      35.142  11.599  15.661  0.00  0.00    -0.336 N 
HETATM    7  C   UNK N   1      35.249  10.318  16.131  0.00  0.00     0.093 A 
HETATM    8  C   UNK N   1      35.296  10.071  17.506  0.00  0.00     0.018 A 
HETATM    9  C   UNK N   1      35.265  11.145  18.397  0.00  0.00     0.021 A 
HETATM   10  C   UNK N   1      35.167  12.451  17.906  0.00  0.00     0.053 A 
HETATM   11  C   UNK N   1      35.091  12.647  16.529  0.00  0.00     0.111 A 
BRANCH  10  12
HETATM   12  C   UNK N   1      35.188  13.617  18.810  0.00  0.00     0.177 C 
HETATM   13  O   UNK N   1      34.822  13.509  19.968  0.00  0.00    -0.646 OA
BRANCH  12  14
HETATM   14  O   UNK N   1      35.646  14.805  18.365  0.00  0.00    -0.773 OA
HETATM   15  H   UNK N   1      35.540  15.050  17.467  0.00  0.00     0.167 HD
ENDBRANCH  12  14
ENDBRANCH  10  12
ENDBRANCH   4   6
BRANCH   3  16
HETATM   16  O   UNK N   1      33.258  10.617  13.301  0.00  0.00    -0.388 OA
HETATM   17  H   UNK N   1      32.458  11.155  13.420  0.00  0.00     0.210 HD
ENDBRANCH   3  16
BRANCH   2  18
HETATM   18  O   UNK N   1      34.469  12.384  11.565  0.00  0.00    -0.390 OA
HETATM   19  H   UNK N   1      34.429  13.275  11.185  0.00  0.00     0.210 HD
ENDBRANCH   2  18
BRANCH   1  20
HETATM   20  C   UNK N   1      37.324  12.657  11.588  0.00  0.00     0.216 C 
BRANCH  20  21
HETATM   21  O   UNK N   1      37.128  12.308  10.246  0.00  0.00    -0.287 OA
BRANCH  21  22
HETATM   22  P   UNK N   1      37.580  13.715   9.337  0.00  0.00     0.406 P 
HETATM   23  O   UNK N   1      38.894  13.244  10.370  0.00  0.00    -0.624 OA
HETATM   24  O   UNK N   1      36.387  14.226  10.190  0.00  0.00    -0.624 OA
BRANCH  22  25
HETATM   25  O   UNK N   1      38.240  15.100  10.149  0.00  0.00    -0.300 OA
HETATM   26  H   UNK N   1      38.903  15.345  10.814  0.00  0.00     0.223 HD
ENDBRANCH  22  25
ENDBRANCH  21  22
ENDBRANCH  20  21
ENDBRANCH   1  20
TORSDOF 9
ENDMDL
