REMARK  10 active torsions:
REMARK  status: ('A' for Active; 'I' for Inactive)
REMARK    1  A    between atoms: C_2  and  C_3 
REMARK    2  A    between atoms: C_3  and  C_4 
REMARK    3  A    between atoms: C_4  and  O_5 
REMARK    4  A    between atoms: O_5  and  C_6 
REMARK    5  A    between atoms: C_9  and  S_12 
REMARK    6  A    between atoms: S_12  and  N_15 
REMARK    7  A    between atoms: C_17  and  N_24 
REMARK    8  A    between atoms: C_19  and  C_20 
REMARK       I    between atoms: C_20  and  N_22 
REMARK    9  A    between atoms: N_22  and  O_23 
REMARK   10  A    between atoms: N_24  and  S_25 
ROOT
HETATM    1  N   UNK N   1       6.825  -5.329   0.783  0.00  0.00    -0.191 NA
HETATM    2  C   UNK N   1       8.121  -5.268   1.453  0.00  0.00     0.134 C 
HETATM    3  C   UNK N   1       9.148  -5.866   0.512  0.00  0.00     0.109 C 
HETATM    4  C   UNK N   1       8.350  -6.948  -0.168  0.00  0.00     0.057 C 
HETATM    5  C   UNK N   1       6.953  -6.357  -0.264  0.00  0.00     0.170 C 
ENDROOT
BRANCH   1   6
HETATM    6  S   UNK N   1       6.379  -3.657   0.258  0.00  0.00     0.244 S 
HETATM    7  O   UNK N   1       5.483  -4.074   1.438  0.00  0.00    -0.206 OA
HETATM    8  O   UNK N   1       5.704  -4.308  -0.960  0.00  0.00    -0.206 OA
BRANCH   6   9
HETATM    9  C   UNK N   1       4.725  -2.814   0.248  0.00  0.00     0.074 A 
HETATM   10  C   UNK N   1       4.685  -1.430   0.484  0.00  0.00     0.027 A 
HETATM   11  C   UNK N   1       3.463  -0.741   0.486  0.00  0.00     0.038 A 
HETATM   12  C   UNK N   1       2.261  -1.422   0.256  0.00  0.00     0.068 A 
HETATM   13  C   UNK N   1       2.287  -2.798   0.004  0.00  0.00     0.038 A 
HETATM   14  C   UNK N   1       3.490  -3.485  -0.014  0.00  0.00     0.027 A 
BRANCH  12  15
HETATM   15  O   UNK N   1       1.088  -0.741   0.293  0.00  0.00    -0.351 OA
BRANCH  15  16
HETATM   16  C   UNK N   1      -0.150  -1.353   0.211  0.00  0.00     0.175 C 
BRANCH  16  17
HETATM   17  C   UNK N   1      -0.418  -1.875  -1.195  0.00  0.00     0.026 C 
BRANCH  17  18
HETATM   18  C   UNK N   1      -1.261  -3.139  -1.142  0.00  0.00    -0.002 C 
HETATM   19  C   UNK N   1      -2.688  -2.824  -0.732  0.00  0.00     0.005 C 
ENDBRANCH  17  18
ENDBRANCH  16  17
ENDBRANCH  15  16
ENDBRANCH  12  15
ENDBRANCH   6   9
ENDBRANCH   1   6
BRANCH   5  20
HETATM   20  C   UNK N   1       5.767  -7.308  -0.208  0.00  0.00     0.260 C 
HETATM   21  O   UNK N   1       4.643  -6.830  -0.321  0.00  0.00    -0.270 OA
HETATM   22  N   UNK N   1       5.873  -8.649  -0.036  0.00  0.00    -0.236 N 
HETATM   23  H   UNK N   1       5.050  -9.188  -0.008  0.00  0.00     0.197 HD
BRANCH  22  24
HETATM   24  O   UNK N   1       7.054  -9.271   0.098  0.00  0.00    -0.287 OA
HETATM   25  H   UNK N   1       7.091 -10.235   0.195  0.00  0.00     0.244 HD
ENDBRANCH  22  24
ENDBRANCH   5  20
BRANCH   3  26
HETATM   26  N   UNK N   1       9.567  -4.874  -0.475  0.00  0.00    -0.314 N 
HETATM   27  H   UNK N   1       9.361  -4.903  -1.474  0.00  0.00     0.172 HD
BRANCH  26  28
HETATM   28  S   UNK N   1      10.493  -3.614   0.356  0.00  0.00     0.223 S 
HETATM   29  C   UNK N   1      11.389  -2.253  -0.439  0.00  0.00     0.185 C 
HETATM   30  O   UNK N   1      11.539  -4.164  -0.625  0.00  0.00    -0.206 OA
HETATM   31  O   UNK N   1       9.581  -2.798  -0.573  0.00  0.00    -0.206 OA
ENDBRANCH  26  28
ENDBRANCH   3  26
TORSDOF 10
