REMARK  5 active torsions:
REMARK  status: ('A' for Active; 'I' for Inactive)
REMARK    1  A    between atoms: C_17  and  N_29 
REMARK    2  A    between atoms: N_31  and  C_20 
REMARK    3  A    between atoms: C_25  and  C_24 
REMARK    4  A    between atoms: C_26  and  O_34 
REMARK    5  A    between atoms: N_32  and  C_28 
ROOT
HETATM    1  C   UNK N   1       4.281   0.298  -1.514  0.00  0.00     0.074 C 
HETATM    2  C   UNK N   1       6.077  -1.367  -0.286  0.00  0.00     0.081 C 
HETATM    3  C   UNK N   1       4.668  -2.154  -0.419  0.00  0.00     0.114 C 
HETATM    4  C   UNK N   1       6.017  -0.075   0.607  0.00  0.00     0.233 C 
HETATM    5  C   UNK N   1       3.342  -1.332   0.025  0.00  0.00     0.199 C 
HETATM    6  C   UNK N   1       3.820   0.118  -0.006  0.00  0.00     0.168 C 
HETATM    7  O   UNK N   1       4.741   0.027   1.070  0.00  0.00    -0.333 OA
ENDROOT
BRANCH   3   8
HETATM    8  N   UNK N   1       4.749  -3.456   0.243  0.00  0.00    -0.418 N 
HETATM    9  C   UNK N   1       3.747  -4.356  -0.314  0.00  0.00     0.140 C 
HETATM   10  H   UNK N   1       5.408  -3.697   0.983  0.00  0.00     0.153 HD
ENDBRANCH   3   8
BRANCH   5  11
HETATM   11  O   UNK N   1       2.273  -1.595  -0.864  0.00  0.00    -0.384 OA
HETATM   12  C   UNK N   1       1.085  -1.715  -0.126  0.00  0.00     0.202 C 
ENDBRANCH   5  11
BRANCH   4  13
HETATM   13  N   UNK N   1       6.391   1.300   0.144  0.00  0.00    -0.316 N 
HETATM   14  C   UNK N   1       7.638   1.797  -0.028  0.00  0.00     0.048 A 
HETATM   15  C   UNK N   1       8.844   1.102   0.029  0.00  0.00     0.030 A 
HETATM   16  C   UNK N   1       7.600   3.178  -0.189  0.00  0.00     0.004 A 
HETATM   17  C   UNK N   1      10.032   1.841  -0.116  0.00  0.00     0.002 A 
HETATM   18  C   UNK N   1       9.992   3.243  -0.296  0.00  0.00     0.001 A 
HETATM   19  C   UNK N   1       8.764   3.928  -0.325  0.00  0.00     0.014 A 
HETATM   20  C   UNK N   1       6.272   3.562  -0.107  0.00  0.00     0.022 A 
HETATM   21  C   UNK N   1       5.596   4.804  -0.120  0.00  0.00     0.054 A 
HETATM   22  C   UNK N   1       5.550   2.397   0.066  0.00  0.00     0.077 A 
HETATM   23  C   UNK N   1       4.213   4.868   0.049  0.00  0.00    -0.010 A 
HETATM   24  C   UNK N   1       6.044   6.157  -0.257  0.00  0.00     0.253 A 
HETATM   25  C   UNK N   1       3.745   6.299   0.011  0.00  0.00     0.163 A 
HETATM   26  C   UNK N   1       3.471   3.681   0.196  0.00  0.00     0.015 A 
HETATM   27  N   UNK N   1       5.004   7.012  -0.186  0.00  0.00    -0.353 N 
HETATM   28  H   UNK N   1       5.084   7.991  -0.257  0.00  0.00     0.163 HD
HETATM   29  C   UNK N   1       2.125   3.377   0.345  0.00  0.00     0.004 A 
HETATM   30  C   UNK N   1       4.124   2.471   0.176  0.00  0.00     0.077 A 
HETATM   31  C   UNK N   1       1.005   4.196   0.432  0.00  0.00     0.014 A 
HETATM   32  C   UNK N   1       2.020   1.987   0.355  0.00  0.00     0.049 A 
HETATM   33  C   UNK N   1      -0.252   3.572   0.543  0.00  0.00     0.001 A 
HETATM   34  C   UNK N   1      -0.360   2.161   0.546  0.00  0.00     0.002 A 
HETATM   35  C   UNK N   1       0.787   1.351   0.440  0.00  0.00     0.030 A 
HETATM   36  N   UNK N   1       3.245   1.432   0.214  0.00  0.00    -0.308 N 
HETATM   37  O   UNK N   1       7.198   6.518  -0.416  0.00  0.00    -0.268 OA
BRANCH  36  38
ENDBRANCH  36  38
BRANCH  30  38
ENDBRANCH  30  38
BRANCH  22  38
ENDBRANCH  22  38
ENDBRANCH   4  13
TORSDOF 5
