REMARK  11 active torsions:
REMARK  status: ('A' for Active; 'I' for Inactive)
REMARK    1  A    between atoms: C_4  and  C_2 
REMARK    2  A    between atoms: O_13  and  C_2 
REMARK    3  A    between atoms: C_6  and  C_3 
REMARK    4  A    between atoms: O_14  and  C_3 
REMARK    5  A    between atoms: C_5  and  O_15 
REMARK    6  A    between atoms: C_7  and  O_16 
REMARK    7  A    between atoms: C_8  and  O_17 
REMARK    8  A    between atoms: C_9  and  O_18 
REMARK    9  A    between atoms: C_10  and  O_22 
REMARK   10  A    between atoms: C_11  and  O_19 
REMARK   11  A    between atoms: C_12  and  O_22 
ROOT
HETATM    1  C   UNK N   1       1.734  -1.177   0.375  0.00  0.00     0.180 C 
HETATM    2  C   UNK N   1       2.284  -3.603   0.103  0.00  0.00     0.183 C 
HETATM    3  C   UNK N   1       3.787  -3.241  -0.022  0.00  0.00     0.204 C 
HETATM    4  C   UNK N   1       1.442  -2.465  -0.481  0.00  0.00     0.187 C 
HETATM    5  C   UNK N   1       4.020  -1.705  -0.002  0.00  0.00     0.288 C 
HETATM    6  O   UNK N   1       3.088  -1.047   0.830  0.00  0.00    -0.349 OA
ENDROOT
BRANCH   4   7
HETATM    7  O   UNK N   1       0.059  -2.777  -0.670  0.00  0.00    -0.348 OA
BRANCH   7   8
HETATM    8  C   UNK N   1      -0.714  -2.933   0.517  0.00  0.00     0.292 C 
HETATM    9  C   UNK N   1      -1.928  -3.872   0.238  0.00  0.00     0.202 C 
HETATM   10  C   UNK N   1      -3.249  -3.089   0.291  0.00  0.00     0.154 C 
HETATM   11  C   UNK N   1      -3.104  -1.816  -0.527  0.00  0.00     0.068 C 
HETATM   12  C   UNK N   1      -1.913  -0.985  -0.005  0.00  0.00     0.150 C 
HETATM   13  O   UNK N   1      -1.163  -1.671   0.993  0.00  0.00    -0.351 OA
BRANCH   9  14
HETATM   14  O   UNK N   1      -1.981  -4.908   1.176  0.00  0.00    -0.388 OA
HETATM   15  H   UNK N   1      -2.622  -5.235   1.827  0.00  0.00     0.210 HD
ENDBRANCH   9  14
BRANCH  10  16
HETATM   16  O   UNK N   1      -4.302  -3.863  -0.197  0.00  0.00    -0.393 OA
HETATM   17  H   UNK N   1      -5.135  -3.499  -0.537  0.00  0.00     0.210 HD
ENDBRANCH  10  16
BRANCH  12  18
HETATM   18  C   UNK N   1      -2.418   0.314   0.601  0.00  0.00     0.196 C 
BRANCH  18  19
HETATM   19  O   UNK N   1      -3.007   1.116  -0.379  0.00  0.00    -0.398 OA
HETATM   20  H   UNK N   1      -2.730   1.749  -1.060  0.00  0.00     0.209 HD
ENDBRANCH  18  19
ENDBRANCH  12  18
ENDBRANCH   7   8
ENDBRANCH   4   7
BRANCH   1  21
HETATM   21  C   UNK N   1       1.303   0.075  -0.383  0.00  0.00     0.198 C 
BRANCH  21  22
HETATM   22  O   UNK N   1       1.492   1.212   0.403  0.00  0.00    -0.398 OA
HETATM   23  H   UNK N   1       2.243   1.493   0.949  0.00  0.00     0.209 HD
ENDBRANCH  21  22
ENDBRANCH   1  21
BRANCH   2  24
HETATM   24  O   UNK N   1       2.013  -4.828  -0.513  0.00  0.00    -0.390 OA
HETATM   25  H   UNK N   1       1.183  -5.090  -0.941  0.00  0.00     0.210 HD
ENDBRANCH   2  24
BRANCH   3  26
HETATM   26  O   UNK N   1       4.337  -3.760  -1.199  0.00  0.00    -0.388 OA
HETATM   27  H   UNK N   1       4.217  -4.270  -2.015  0.00  0.00     0.210 HD
ENDBRANCH   3  26
BRANCH   5  28
HETATM   28  O   UNK N   1       3.963  -1.154  -1.290  0.00  0.00    -0.369 OA
HETATM   29  H   UNK N   1       4.274  -0.930  -2.181  0.00  0.00     0.212 HD
ENDBRANCH   5  28
TORSDOF 11
