MODEL 1
REMARK VINA RESULT:      -4.3      0.000      0.000
REMARK  15 active torsions:
REMARK  status: ('A' for Active; 'I' for Inactive)
REMARK    1  A    between atoms: O_2  and  C_3 
REMARK    2  A    between atoms: C_3  and  C_4 
REMARK    3  A    between atoms: C_4  and  O_5 
REMARK    4  A    between atoms: O_5  and  C_6 
REMARK    5  A    between atoms: C_6  and  C_7 
REMARK    6  A    between atoms: C_7  and  O_8 
REMARK    7  A    between atoms: O_8  and  C_9 
REMARK    8  A    between atoms: C_9  and  C_10 
REMARK    9  A    between atoms: C_10  and  O_11 
REMARK   10  A    between atoms: O_11  and  C_12 
REMARK   11  A    between atoms: C_12  and  C_13 
REMARK   12  A    between atoms: C_13  and  O_14 
REMARK   13  A    between atoms: O_14  and  C_15 
REMARK   14  A    between atoms: C_15  and  C_16 
REMARK   15  A    between atoms: C_16  and  O_17 
ROOT
HETATM    1  C   UNK N   1      34.492  17.133   9.038  0.00  0.00     0.193 C 
ENDROOT
BRANCH   1   2
HETATM    2  O   UNK N   1      35.397  17.622   9.974  0.00  0.00    -0.387 OA
BRANCH   2   3
HETATM    3  C   UNK N   1      35.643  16.534  10.807  0.00  0.00     0.193 C 
BRANCH   3   4
HETATM    4  C   UNK N   1      34.612  15.468  10.524  0.00  0.00     0.193 C 
BRANCH   4   5
HETATM    5  O   UNK N   1      34.231  14.860  11.717  0.00  0.00    -0.387 OA
BRANCH   5   6
HETATM    6  C   UNK N   1      35.245  13.937  11.954  0.00  0.00     0.193 C 
BRANCH   6   7
HETATM    7  C   UNK N   1      35.900  14.233  13.284  0.00  0.00     0.193 C 
BRANCH   7   8
HETATM    8  O   UNK N   1      35.444  13.315  14.228  0.00  0.00    -0.394 OA
HETATM    9  C   UNK N   1      36.401  13.350  15.239  0.00  0.00     0.201 C 
ENDBRANCH   7   8
ENDBRANCH   6   7
ENDBRANCH   5   6
ENDBRANCH   4   5
ENDBRANCH   3   4
ENDBRANCH   2   3
ENDBRANCH   1   2
BRANCH   1  10
HETATM   10  C   UNK N   1      34.195  18.206   8.018  0.00  0.00     0.193 C 
BRANCH  10  11
HETATM   11  O   UNK N   1      32.909  17.994   7.533  0.00  0.00    -0.387 OA
BRANCH  11  12
HETATM   12  C   UNK N   1      32.220  17.376   8.573  0.00  0.00     0.193 C 
BRANCH  12  13
HETATM   13  C   UNK N   1      30.800  17.884   8.538  0.00  0.00     0.193 C 
BRANCH  13  14
HETATM   14  O   UNK N   1      30.227  17.658   7.289  0.00  0.00    -0.387 OA
BRANCH  14  15
HETATM   15  C   UNK N   1      28.874  17.898   7.516  0.00  0.00     0.193 C 
BRANCH  15  16
HETATM   16  C   UNK N   1      28.496  17.470   8.914  0.00  0.00     0.190 C 
BRANCH  16  17
HETATM   17  O   UNK N   1      27.440  18.265   9.360  0.00  0.00    -0.399 OA
HETATM   18  H   UNK N   1      27.222  19.087   8.895  0.00  0.00     0.209 HD
ENDBRANCH  16  17
ENDBRANCH  15  16
ENDBRANCH  14  15
ENDBRANCH  13  14
ENDBRANCH  12  13
ENDBRANCH  11  12
ENDBRANCH  10  11
ENDBRANCH   1  10
TORSDOF 15
ENDMDL
MODEL 2
REMARK VINA RESULT:      -4.3      3.114      4.351
REMARK  15 active torsions:
REMARK  status: ('A' for Active; 'I' for Inactive)
REMARK    1  A    between atoms: O_2  and  C_3 
REMARK    2  A    between atoms: C_3  and  C_4 
REMARK    3  A    between atoms: C_4  and  O_5 
REMARK    4  A    between atoms: O_5  and  C_6 
REMARK    5  A    between atoms: C_6  and  C_7 
REMARK    6  A    between atoms: C_7  and  O_8 
REMARK    7  A    between atoms: O_8  and  C_9 
REMARK    8  A    between atoms: C_9  and  C_10 
REMARK    9  A    between atoms: C_10  and  O_11 
REMARK   10  A    between atoms: O_11  and  C_12 
REMARK   11  A    between atoms: C_12  and  C_13 
REMARK   12  A    between atoms: C_13  and  O_14 
REMARK   13  A    between atoms: O_14  and  C_15 
REMARK   14  A    between atoms: C_15  and  C_16 
REMARK   15  A    between atoms: C_16  and  O_17 
ROOT
HETATM    1  C   UNK N   1      34.582  15.423  10.519  0.00  0.00     0.193 C 
ENDROOT
BRANCH   1   2
HETATM    2  O   UNK N   1      34.157  14.665  11.604  0.00  0.00    -0.387 OA
BRANCH   2   3
HETATM    3  C   UNK N   1      35.176  13.735  11.787  0.00  0.00     0.193 C 
BRANCH   3   4
HETATM    4  C   UNK N   1      35.616  13.780  13.230  0.00  0.00     0.193 C 
BRANCH   4   5
HETATM    5  O   UNK N   1      34.614  13.253  14.040  0.00  0.00    -0.387 OA
BRANCH   5   6
HETATM    6  C   UNK N   1      35.270  12.978  15.236  0.00  0.00     0.193 C 
BRANCH   6   7
HETATM    7  C   UNK N   1      34.975  11.558  15.663  0.00  0.00     0.193 C 
BRANCH   7   8
HETATM    8  O   UNK N   1      36.099  11.032  16.295  0.00  0.00    -0.394 OA
HETATM    9  C   UNK N   1      37.043  10.904  15.278  0.00  0.00     0.201 C 
ENDBRANCH   7   8
ENDBRANCH   6   7
ENDBRANCH   5   6
ENDBRANCH   4   5
ENDBRANCH   3   4
ENDBRANCH   2   3
ENDBRANCH   1   2
BRANCH   1  10
HETATM   10  C   UNK N   1      35.486  16.531  11.005  0.00  0.00     0.193 C 
BRANCH  10  11
HETATM   11  O   UNK N   1      35.484  17.539  10.046  0.00  0.00    -0.387 OA
BRANCH  11  12
HETATM   12  C   UNK N   1      34.517  17.163   9.118  0.00  0.00     0.193 C 
BRANCH  12  13
HETATM   13  C   UNK N   1      34.349  18.309   8.150  0.00  0.00     0.193 C 
BRANCH  13  14
HETATM   14  O   UNK N   1      34.541  17.878   6.841  0.00  0.00    -0.387 OA
BRANCH  14  15
HETATM   15  C   UNK N   1      34.065  16.569   6.868  0.00  0.00     0.193 C 
BRANCH  15  16
HETATM   16  C   UNK N   1      34.514  15.826   5.632  0.00  0.00     0.190 C 
BRANCH  16  17
HETATM   17  O   UNK N   1      35.823  15.384   5.821  0.00  0.00    -0.399 OA
HETATM   18  H   UNK N   1      36.210  14.739   5.209  0.00  0.00     0.209 HD
ENDBRANCH  16  17
ENDBRANCH  15  16
ENDBRANCH  14  15
ENDBRANCH  13  14
ENDBRANCH  12  13
ENDBRANCH  11  12
ENDBRANCH  10  11
ENDBRANCH   1  10
TORSDOF 15
ENDMDL
MODEL 3
REMARK VINA RESULT:      -4.2      1.903      7.681
REMARK  15 active torsions:
REMARK  status: ('A' for Active; 'I' for Inactive)
REMARK    1  A    between atoms: O_2  and  C_3 
REMARK    2  A    between atoms: C_3  and  C_4 
REMARK    3  A    between atoms: C_4  and  O_5 
REMARK    4  A    between atoms: O_5  and  C_6 
REMARK    5  A    between atoms: C_6  and  C_7 
REMARK    6  A    between atoms: C_7  and  O_8 
REMARK    7  A    between atoms: O_8  and  C_9 
REMARK    8  A    between atoms: C_9  and  C_10 
REMARK    9  A    between atoms: C_10  and  O_11 
REMARK   10  A    between atoms: O_11  and  C_12 
REMARK   11  A    between atoms: C_12  and  C_13 
REMARK   12  A    between atoms: C_13  and  O_14 
REMARK   13  A    between atoms: O_14  and  C_15 
REMARK   14  A    between atoms: C_15  and  C_16 
REMARK   15  A    between atoms: C_16  and  O_17 
ROOT
HETATM    1  C   UNK N   1      34.558  18.394   8.164  0.00  0.00     0.193 C 
ENDROOT
BRANCH   1   2
HETATM    2  O   UNK N   1      34.562  17.909   6.862  0.00  0.00    -0.387 OA
BRANCH   2   3
HETATM    3  C   UNK N   1      33.221  17.650   6.593  0.00  0.00     0.193 C 
BRANCH   3   4
HETATM    4  C   UNK N   1      33.076  17.329   5.125  0.00  0.00     0.193 C 
BRANCH   4   5
HETATM    5  O   UNK N   1      31.736  17.407   4.759  0.00  0.00    -0.387 OA
BRANCH   5   6
HETATM    6  C   UNK N   1      31.057  17.256   5.965  0.00  0.00     0.193 C 
BRANCH   6   7
HETATM    7  C   UNK N   1      29.613  16.903   5.694  0.00  0.00     0.193 C 
BRANCH   7   8
HETATM    8  O   UNK N   1      28.896  18.075   5.461  0.00  0.00    -0.394 OA
HETATM    9  C   UNK N   1      28.241  18.328   6.664  0.00  0.00     0.201 C 
ENDBRANCH   7   8
ENDBRANCH   6   7
ENDBRANCH   5   6
ENDBRANCH   4   5
ENDBRANCH   3   4
ENDBRANCH   2   3
ENDBRANCH   1   2
BRANCH   1  10
HETATM   10  C   UNK N   1      34.693  17.242   9.130  0.00  0.00     0.193 C 
BRANCH  10  11
HETATM   11  O   UNK N   1      35.510  17.653  10.178  0.00  0.00    -0.387 OA
BRANCH  11  12
HETATM   12  C   UNK N   1      35.531  16.585  11.070  0.00  0.00     0.193 C 
BRANCH  12  13
HETATM   13  C   UNK N   1      36.116  15.399  10.343  0.00  0.00     0.193 C 
BRANCH  13  14
HETATM   14  O   UNK N   1      36.498  14.409  11.245  0.00  0.00    -0.387 OA
BRANCH  14  15
HETATM   15  C   UNK N   1      35.971  14.863  12.451  0.00  0.00     0.193 C 
BRANCH  15  16
HETATM   16  C   UNK N   1      35.603  13.693  13.332  0.00  0.00     0.190 C 
BRANCH  16  17
HETATM   17  O   UNK N   1      34.435  13.108  12.843  0.00  0.00    -0.399 OA
HETATM   18  H   UNK N   1      33.681  13.665  12.597  0.00  0.00     0.209 HD
ENDBRANCH  16  17
ENDBRANCH  15  16
ENDBRANCH  14  15
ENDBRANCH  13  14
ENDBRANCH  12  13
ENDBRANCH  11  12
ENDBRANCH  10  11
ENDBRANCH   1  10
TORSDOF 15
ENDMDL
MODEL 4
REMARK VINA RESULT:      -4.1      2.065      8.288
REMARK  15 active torsions:
REMARK  status: ('A' for Active; 'I' for Inactive)
REMARK    1  A    between atoms: O_2  and  C_3 
REMARK    2  A    between atoms: C_3  and  C_4 
REMARK    3  A    between atoms: C_4  and  O_5 
REMARK    4  A    between atoms: O_5  and  C_6 
REMARK    5  A    between atoms: C_6  and  C_7 
REMARK    6  A    between atoms: C_7  and  O_8 
REMARK    7  A    between atoms: O_8  and  C_9 
REMARK    8  A    between atoms: C_9  and  C_10 
REMARK    9  A    between atoms: C_10  and  O_11 
REMARK   10  A    between atoms: O_11  and  C_12 
REMARK   11  A    between atoms: C_12  and  C_13 
REMARK   12  A    between atoms: C_13  and  O_14 
REMARK   13  A    between atoms: O_14  and  C_15 
REMARK   14  A    between atoms: C_15  and  C_16 
REMARK   15  A    between atoms: C_16  and  O_17 
ROOT
HETATM    1  C   UNK N   1      35.334  13.988  11.123  0.00  0.00     0.193 C 
ENDROOT
BRANCH   1   2
HETATM    2  O   UNK N   1      34.571  15.118  11.392  0.00  0.00    -0.387 OA
BRANCH   2   3
HETATM    3  C   UNK N   1      35.350  16.172  10.922  0.00  0.00     0.193 C 
BRANCH   3   4
HETATM    4  C   UNK N   1      34.742  16.688   9.641  0.00  0.00     0.193 C 
BRANCH   4   5
HETATM    5  O   UNK N   1      35.187  17.985   9.402  0.00  0.00    -0.387 OA
BRANCH   5   6
HETATM    6  C   UNK N   1      34.577  18.325   8.199  0.00  0.00     0.193 C 
BRANCH   6   7
HETATM    7  C   UNK N   1      33.118  17.929   8.238  0.00  0.00     0.193 C 
BRANCH   7   8
HETATM    8  O   UNK N   1      32.681  17.680   6.939  0.00  0.00    -0.394 OA
HETATM    9  C   UNK N   1      31.528  16.914   7.100  0.00  0.00     0.201 C 
ENDBRANCH   7   8
ENDBRANCH   6   7
ENDBRANCH   5   6
ENDBRANCH   4   5
ENDBRANCH   3   4
ENDBRANCH   2   3
ENDBRANCH   1   2
BRANCH   1  10
HETATM   10  C   UNK N   1      35.369  13.103  12.346  0.00  0.00     0.193 C 
BRANCH  10  11
HETATM   11  O   UNK N   1      34.996  13.872  13.444  0.00  0.00    -0.387 OA
BRANCH  11  12
HETATM   12  C   UNK N   1      36.119  13.913  14.264  0.00  0.00     0.193 C 
BRANCH  12  13
HETATM   13  C   UNK N   1      35.967  12.822  15.295  0.00  0.00     0.193 C 
BRANCH  13  14
HETATM   14  O   UNK N   1      34.742  12.931  15.948  0.00  0.00    -0.387 OA
BRANCH  14  15
HETATM   15  C   UNK N   1      35.063  12.635  17.271  0.00  0.00     0.193 C 
BRANCH  15  16
HETATM   16  C   UNK N   1      35.281  13.909  18.051  0.00  0.00     0.190 C 
BRANCH  16  17
HETATM   17  O   UNK N   1      35.107  13.643  19.409  0.00  0.00    -0.399 OA
HETATM   18  H   UNK N   1      34.689  12.816  19.691  0.00  0.00     0.209 HD
ENDBRANCH  16  17
ENDBRANCH  15  16
ENDBRANCH  14  15
ENDBRANCH  13  14
ENDBRANCH  12  13
ENDBRANCH  11  12
ENDBRANCH  10  11
ENDBRANCH   1  10
TORSDOF 15
ENDMDL
MODEL 5
REMARK VINA RESULT:      -4.0      7.137     11.047
REMARK  15 active torsions:
REMARK  status: ('A' for Active; 'I' for Inactive)
REMARK    1  A    between atoms: O_2  and  C_3 
REMARK    2  A    between atoms: C_3  and  C_4 
REMARK    3  A    between atoms: C_4  and  O_5 
REMARK    4  A    between atoms: O_5  and  C_6 
REMARK    5  A    between atoms: C_6  and  C_7 
REMARK    6  A    between atoms: C_7  and  O_8 
REMARK    7  A    between atoms: O_8  and  C_9 
REMARK    8  A    between atoms: C_9  and  C_10 
REMARK    9  A    between atoms: C_10  and  O_11 
REMARK   10  A    between atoms: O_11  and  C_12 
REMARK   11  A    between atoms: C_12  and  C_13 
REMARK   12  A    between atoms: C_13  and  O_14 
REMARK   13  A    between atoms: O_14  and  C_15 
REMARK   14  A    between atoms: C_15  and  C_16 
REMARK   15  A    between atoms: C_16  and  O_17 
ROOT
HETATM    1  C   UNK N   1      24.388  19.483   3.837  0.00  0.00     0.193 C 
ENDROOT
BRANCH   1   2
HETATM    2  O   UNK N   1      25.743  19.240   4.025  0.00  0.00    -0.387 OA
BRANCH   2   3
HETATM    3  C   UNK N   1      26.226  20.426   4.571  0.00  0.00     0.193 C 
BRANCH   3   4
HETATM    4  C   UNK N   1      27.634  20.193   5.062  0.00  0.00     0.193 C 
BRANCH   4   5
HETATM    5  O   UNK N   1      27.602  19.440   6.232  0.00  0.00    -0.387 OA
BRANCH   5   6
HETATM    6  C   UNK N   1      28.445  18.368   5.956  0.00  0.00     0.193 C 
BRANCH   6   7
HETATM    7  C   UNK N   1      29.054  17.856   7.241  0.00  0.00     0.193 C 
BRANCH   7   8
HETATM    8  O   UNK N   1      28.063  17.230   7.994  0.00  0.00    -0.394 OA
HETATM    9  C   UNK N   1      28.155  17.820   9.252  0.00  0.00     0.201 C 
ENDBRANCH   7   8
ENDBRANCH   6   7
ENDBRANCH   5   6
ENDBRANCH   4   5
ENDBRANCH   3   4
ENDBRANCH   2   3
ENDBRANCH   1   2
BRANCH   1  10
HETATM   10  C   UNK N   1      24.212  20.635   2.877  0.00  0.00     0.193 C 
BRANCH  10  11
HETATM   11  O   UNK N   1      22.873  21.010   2.895  0.00  0.00    -0.387 OA
BRANCH  11  12
HETATM   12  C   UNK N   1      22.163  19.831   3.106  0.00  0.00     0.193 C 
BRANCH  12  13
HETATM   13  C   UNK N   1      20.695  20.180   3.104  0.00  0.00     0.193 C 
BRANCH  13  14
HETATM   14  O   UNK N   1      20.024  19.475   2.109  0.00  0.00    -0.387 OA
BRANCH  14  15
HETATM   15  C   UNK N   1      20.374  18.152   2.370  0.00  0.00     0.193 C 
BRANCH  15  16
HETATM   16  C   UNK N   1      20.047  17.282   1.180  0.00  0.00     0.190 C 
BRANCH  16  17
HETATM   17  O   UNK N   1      20.355  17.979   0.012  0.00  0.00    -0.399 OA
HETATM   18  H   UNK N   1      19.808  17.863  -0.780  0.00  0.00     0.209 HD
ENDBRANCH  16  17
ENDBRANCH  15  16
ENDBRANCH  14  15
ENDBRANCH  13  14
ENDBRANCH  12  13
ENDBRANCH  11  12
ENDBRANCH  10  11
ENDBRANCH   1  10
TORSDOF 15
ENDMDL
MODEL 6
REMARK VINA RESULT:      -4.0     11.529     13.573
REMARK  15 active torsions:
REMARK  status: ('A' for Active; 'I' for Inactive)
REMARK    1  A    between atoms: O_2  and  C_3 
REMARK    2  A    between atoms: C_3  and  C_4 
REMARK    3  A    between atoms: C_4  and  O_5 
REMARK    4  A    between atoms: O_5  and  C_6 
REMARK    5  A    between atoms: C_6  and  C_7 
REMARK    6  A    between atoms: C_7  and  O_8 
REMARK    7  A    between atoms: O_8  and  C_9 
REMARK    8  A    between atoms: C_9  and  C_10 
REMARK    9  A    between atoms: C_10  and  O_11 
REMARK   10  A    between atoms: O_11  and  C_12 
REMARK   11  A    between atoms: C_12  and  C_13 
REMARK   12  A    between atoms: C_13  and  O_14 
REMARK   13  A    between atoms: O_14  and  C_15 
REMARK   14  A    between atoms: C_15  and  C_16 
REMARK   15  A    between atoms: C_16  and  O_17 
ROOT
HETATM    1  C   UNK N   1      20.309  15.548   6.184  0.00  0.00     0.193 C 
ENDROOT
BRANCH   1   2
HETATM    2  O   UNK N   1      19.968  14.552   7.092  0.00  0.00    -0.387 OA
BRANCH   2   3
HETATM    3  C   UNK N   1      20.795  14.794   8.185  0.00  0.00     0.193 C 
BRANCH   3   4
HETATM    4  C   UNK N   1      19.999  14.574   9.449  0.00  0.00     0.193 C 
BRANCH   4   5
HETATM    5  O   UNK N   1      20.254  13.298   9.944  0.00  0.00    -0.387 OA
BRANCH   5   6
HETATM    6  C   UNK N   1      21.632  13.161   9.805  0.00  0.00     0.193 C 
BRANCH   6   7
HETATM    7  C   UNK N   1      22.173  12.308  10.929  0.00  0.00     0.193 C 
BRANCH   7   8
HETATM    8  O   UNK N   1      22.913  11.259  10.387  0.00  0.00    -0.394 OA
HETATM    9  C   UNK N   1      23.717  11.862   9.422  0.00  0.00     0.201 C 
ENDBRANCH   7   8
ENDBRANCH   6   7
ENDBRANCH   5   6
ENDBRANCH   4   5
ENDBRANCH   3   4
ENDBRANCH   2   3
ENDBRANCH   1   2
BRANCH   1  10
HETATM   10  C   UNK N   1      19.314  15.553   5.047  0.00  0.00     0.193 C 
BRANCH  10  11
HETATM   11  O   UNK N   1      19.998  15.876   3.880  0.00  0.00    -0.387 OA
BRANCH  11  12
HETATM   12  C   UNK N   1      19.830  17.248   3.721  0.00  0.00     0.193 C 
BRANCH  12  13
HETATM   13  C   UNK N   1      20.166  17.583   2.289  0.00  0.00     0.193 C 
BRANCH  13  14
HETATM   14  O   UNK N   1      19.740  18.870   1.972  0.00  0.00    -0.387 OA
BRANCH  14  15
HETATM   15  C   UNK N   1      20.898  19.631   2.125  0.00  0.00     0.193 C 
BRANCH  15  16
HETATM   16  C   UNK N   1      20.858  20.829   1.207  0.00  0.00     0.190 C 
BRANCH  16  17
HETATM   17  O   UNK N   1      20.595  20.396  -0.092  0.00  0.00    -0.399 OA
HETATM   18  H   UNK N   1      20.980  19.567  -0.413  0.00  0.00     0.209 HD
ENDBRANCH  16  17
ENDBRANCH  15  16
ENDBRANCH  14  15
ENDBRANCH  13  14
ENDBRANCH  12  13
ENDBRANCH  11  12
ENDBRANCH  10  11
ENDBRANCH   1  10
TORSDOF 15
ENDMDL
MODEL 7
REMARK VINA RESULT:      -3.9      3.865     10.191
REMARK  15 active torsions:
REMARK  status: ('A' for Active; 'I' for Inactive)
REMARK    1  A    between atoms: O_2  and  C_3 
REMARK    2  A    between atoms: C_3  and  C_4 
REMARK    3  A    between atoms: C_4  and  O_5 
REMARK    4  A    between atoms: O_5  and  C_6 
REMARK    5  A    between atoms: C_6  and  C_7 
REMARK    6  A    between atoms: C_7  and  O_8 
REMARK    7  A    between atoms: O_8  and  C_9 
REMARK    8  A    between atoms: C_9  and  C_10 
REMARK    9  A    between atoms: C_10  and  O_11 
REMARK   10  A    between atoms: O_11  and  C_12 
REMARK   11  A    between atoms: C_12  and  C_13 
REMARK   12  A    between atoms: C_13  and  O_14 
REMARK   13  A    between atoms: O_14  and  C_15 
REMARK   14  A    between atoms: C_15  and  C_16 
REMARK   15  A    between atoms: C_16  and  O_17 
ROOT
HETATM    1  C   UNK N   1      28.706  17.517   7.170  0.00  0.00     0.193 C 
ENDROOT
BRANCH   1   2
HETATM    2  O   UNK N   1      28.715  18.258   5.994  0.00  0.00    -0.387 OA
BRANCH   2   3
HETATM    3  C   UNK N   1      27.762  19.250   6.212  0.00  0.00     0.193 C 
BRANCH   3   4
HETATM    4  C   UNK N   1      26.612  19.030   5.261  0.00  0.00     0.193 C 
BRANCH   4   5
HETATM    5  O   UNK N   1      26.007  20.250   4.970  0.00  0.00    -0.387 OA
BRANCH   5   6
HETATM    6  C   UNK N   1      26.418  20.518   3.667  0.00  0.00     0.193 C 
BRANCH   6   7
HETATM    7  C   UNK N   1      25.404  19.968   2.691  0.00  0.00     0.193 C 
BRANCH   7   8
HETATM    8  O   UNK N   1      24.600  21.012   2.237  0.00  0.00    -0.394 OA
HETATM    9  C   UNK N   1      23.346  20.749   2.783  0.00  0.00     0.201 C 
ENDBRANCH   7   8
ENDBRANCH   6   7
ENDBRANCH   5   6
ENDBRANCH   4   5
ENDBRANCH   3   4
ENDBRANCH   2   3
ENDBRANCH   1   2
BRANCH   1  10
HETATM   10  C   UNK N   1      28.626  18.452   8.352  0.00  0.00     0.193 C 
BRANCH  10  11
HETATM   11  O   UNK N   1      29.924  18.765   8.742  0.00  0.00    -0.387 OA
BRANCH  11  12
HETATM   12  C   UNK N   1      30.593  17.546   8.808  0.00  0.00     0.193 C 
BRANCH  12  13
HETATM   13  C   UNK N   1      32.037  17.802   8.455  0.00  0.00     0.193 C 
BRANCH  13  14
HETATM   14  O   UNK N   1      32.823  16.697   8.770  0.00  0.00    -0.387 OA
BRANCH  14  15
HETATM   15  C   UNK N   1      34.091  17.251   8.936  0.00  0.00     0.193 C 
BRANCH  15  16
HETATM   16  C   UNK N   1      34.232  18.491   8.087  0.00  0.00     0.190 C 
BRANCH  16  17
HETATM   17  O   UNK N   1      35.317  19.235   8.550  0.00  0.00    -0.399 OA
HETATM   18  H   UNK N   1      36.021  18.802   9.056  0.00  0.00     0.209 HD
ENDBRANCH  16  17
ENDBRANCH  15  16
ENDBRANCH  14  15
ENDBRANCH  13  14
ENDBRANCH  12  13
ENDBRANCH  11  12
ENDBRANCH  10  11
ENDBRANCH   1  10
TORSDOF 15
ENDMDL
MODEL 8
REMARK VINA RESULT:      -3.9      1.328      3.364
REMARK  15 active torsions:
REMARK  status: ('A' for Active; 'I' for Inactive)
REMARK    1  A    between atoms: O_2  and  C_3 
REMARK    2  A    between atoms: C_3  and  C_4 
REMARK    3  A    between atoms: C_4  and  O_5 
REMARK    4  A    between atoms: O_5  and  C_6 
REMARK    5  A    between atoms: C_6  and  C_7 
REMARK    6  A    between atoms: C_7  and  O_8 
REMARK    7  A    between atoms: O_8  and  C_9 
REMARK    8  A    between atoms: C_9  and  C_10 
REMARK    9  A    between atoms: C_10  and  O_11 
REMARK   10  A    between atoms: O_11  and  C_12 
REMARK   11  A    between atoms: C_12  and  C_13 
REMARK   12  A    between atoms: C_13  and  O_14 
REMARK   13  A    between atoms: O_14  and  C_15 
REMARK   14  A    between atoms: C_15  and  C_16 
REMARK   15  A    between atoms: C_16  and  O_17 
ROOT
HETATM    1  C   UNK N   1      34.916  15.097  10.621  0.00  0.00     0.193 C 
ENDROOT
BRANCH   1   2
HETATM    2  O   UNK N   1      34.477  14.559  11.826  0.00  0.00    -0.387 OA
BRANCH   2   3
HETATM    3  C   UNK N   1      35.595  14.624  12.652  0.00  0.00     0.193 C 
BRANCH   3   4
HETATM    4  C   UNK N   1      35.669  13.354  13.464  0.00  0.00     0.193 C 
BRANCH   4   5
HETATM    5  O   UNK N   1      36.682  13.464  14.413  0.00  0.00    -0.387 OA
BRANCH   5   6
HETATM    6  C   UNK N   1      36.326  12.532  15.383  0.00  0.00     0.193 C 
BRANCH   6   7
HETATM    7  C   UNK N   1      35.145  13.047  16.174  0.00  0.00     0.193 C 
BRANCH   7   8
HETATM    8  O   UNK N   1      35.609  13.887  17.184  0.00  0.00    -0.394 OA
HETATM    9  C   UNK N   1      35.112  13.327  18.359  0.00  0.00     0.201 C 
ENDBRANCH   7   8
ENDBRANCH   6   7
ENDBRANCH   5   6
ENDBRANCH   4   5
ENDBRANCH   3   4
ENDBRANCH   2   3
ENDBRANCH   1   2
BRANCH   1  10
HETATM   10  C   UNK N   1      35.895  16.213  10.897  0.00  0.00     0.193 C 
BRANCH  10  11
HETATM   11  O   UNK N   1      35.423  17.363  10.274  0.00  0.00    -0.387 OA
BRANCH  11  12
HETATM   12  C   UNK N   1      34.559  16.915   9.279  0.00  0.00     0.193 C 
BRANCH  12  13
HETATM   13  C   UNK N   1      34.494  17.988   8.220  0.00  0.00     0.193 C 
BRANCH  13  14
HETATM   14  O   UNK N   1      33.223  18.554   8.171  0.00  0.00    -0.387 OA
BRANCH  14  15
HETATM   15  C   UNK N   1      32.385  17.441   8.128  0.00  0.00     0.193 C 
BRANCH  15  16
HETATM   16  C   UNK N   1      31.010  17.806   8.634  0.00  0.00     0.190 C 
BRANCH  16  17
HETATM   17  O   UNK N   1      30.070  16.971   8.030  0.00  0.00    -0.399 OA
HETATM   18  H   UNK N   1      29.899  16.090   8.395  0.00  0.00     0.209 HD
ENDBRANCH  16  17
ENDBRANCH  15  16
ENDBRANCH  14  15
ENDBRANCH  13  14
ENDBRANCH  12  13
ENDBRANCH  11  12
ENDBRANCH  10  11
ENDBRANCH   1  10
TORSDOF 15
ENDMDL
MODEL 9
REMARK VINA RESULT:      -3.9      1.595      2.669
REMARK  15 active torsions:
REMARK  status: ('A' for Active; 'I' for Inactive)
REMARK    1  A    between atoms: O_2  and  C_3 
REMARK    2  A    between atoms: C_3  and  C_4 
REMARK    3  A    between atoms: C_4  and  O_5 
REMARK    4  A    between atoms: O_5  and  C_6 
REMARK    5  A    between atoms: C_6  and  C_7 
REMARK    6  A    between atoms: C_7  and  O_8 
REMARK    7  A    between atoms: O_8  and  C_9 
REMARK    8  A    between atoms: C_9  and  C_10 
REMARK    9  A    between atoms: C_10  and  O_11 
REMARK   10  A    between atoms: O_11  and  C_12 
REMARK   11  A    between atoms: C_12  and  C_13 
REMARK   12  A    between atoms: C_13  and  O_14 
REMARK   13  A    between atoms: O_14  and  C_15 
REMARK   14  A    between atoms: C_15  and  C_16 
REMARK   15  A    between atoms: C_16  and  O_17 
ROOT
HETATM    1  C   UNK N   1      32.637  17.240   8.460  0.00  0.00     0.193 C 
ENDROOT
BRANCH   1   2
HETATM    2  O   UNK N   1      33.531  17.928   7.647  0.00  0.00    -0.387 OA
BRANCH   2   3
HETATM    3  C   UNK N   1      34.662  18.083   8.443  0.00  0.00     0.193 C 
BRANCH   3   4
HETATM    4  C   UNK N   1      34.660  17.005   9.498  0.00  0.00     0.193 C 
BRANCH   4   5
HETATM    5  O   UNK N   1      35.674  17.250  10.419  0.00  0.00    -0.387 OA
BRANCH   5   6
HETATM    6  C   UNK N   1      36.216  15.990  10.655  0.00  0.00     0.193 C 
BRANCH   6   7
HETATM    7  C   UNK N   1      35.366  15.252  11.664  0.00  0.00     0.193 C 
BRANCH   7   8
HETATM    8  O   UNK N   1      36.056  15.179  12.872  0.00  0.00    -0.394 OA
HETATM    9  C   UNK N   1      36.278  13.818  13.065  0.00  0.00     0.201 C 
ENDBRANCH   7   8
ENDBRANCH   6   7
ENDBRANCH   5   6
ENDBRANCH   4   5
ENDBRANCH   3   4
ENDBRANCH   2   3
ENDBRANCH   1   2
BRANCH   1  10
HETATM   10  C   UNK N   1      31.224  17.611   8.079  0.00  0.00     0.193 C 
BRANCH  10  11
HETATM   11  O   UNK N   1      30.711  18.434   9.077  0.00  0.00    -0.387 OA
BRANCH  11  12
HETATM   12  C   UNK N   1      29.476  17.885   9.409  0.00  0.00     0.193 C 
BRANCH  12  13
HETATM   13  C   UNK N   1      28.424  18.628   8.623  0.00  0.00     0.193 C 
BRANCH  13  14
HETATM   14  O   UNK N   1      27.909  17.823   7.611  0.00  0.00    -0.387 OA
BRANCH  14  15
HETATM   15  C   UNK N   1      27.994  18.640   6.486  0.00  0.00     0.193 C 
BRANCH  15  16
HETATM   16  C   UNK N   1      27.481  20.024   6.807  0.00  0.00     0.190 C 
BRANCH  16  17
HETATM   17  O   UNK N   1      26.150  20.119   6.402  0.00  0.00    -0.399 OA
HETATM   18  H   UNK N   1      25.438  20.019   7.051  0.00  0.00     0.209 HD
ENDBRANCH  16  17
ENDBRANCH  15  16
ENDBRANCH  14  15
ENDBRANCH  13  14
ENDBRANCH  12  13
ENDBRANCH  11  12
ENDBRANCH  10  11
ENDBRANCH   1  10
TORSDOF 15
ENDMDL
