MODEL 1
REMARK VINA RESULT:      -8.1      0.000      0.000
REMARK  10 active torsions:
REMARK  status: ('A' for Active; 'I' for Inactive)
REMARK    1  A    between atoms: C_4  and  C_32 
REMARK    2  A    between atoms: C_8  and  C_37 
REMARK    3  A    between atoms: C_19  and  C_31 
REMARK    4  A    between atoms: C_22  and  C_27 
REMARK    5  A    between atoms: C_32  and  C_33 
REMARK    6  A    between atoms: C_33  and  C_34 
REMARK    7  A    between atoms: C_34  and  O_36 
REMARK    8  A    between atoms: C_37  and  C_38 
REMARK    9  A    between atoms: C_38  and  C_39 
REMARK   10  A    between atoms: C_39  and  O_40 
ROOT
HETATM    1  C   UNK N   1      30.428  16.381   3.931  0.00  0.00     0.041 A 
HETATM    2  C   UNK N   1      29.614  17.376   4.304  0.00  0.00     0.060 A 
HETATM    3  N   UNK N   1      30.027  15.226   3.355  0.00  0.00    -0.355 N 
HETATM    4  C   UNK N   1      31.808  16.410   4.058  0.00  0.00    -0.023 A 
HETATM    5  C   UNK N   1      28.142  17.387   4.164  0.00  0.00     0.041 A 
HETATM    6  C   UNK N   1      31.159  14.523   3.114  0.00  0.00     0.041 A 
HETATM    7  C   UNK N   1      32.268  15.227   3.536  0.00  0.00    -0.027 A 
HETATM    8  C   UNK N   1      27.293  18.547   4.490  0.00  0.00    -0.023 A 
HETATM    9  N   UNK N   1      27.430  16.410   3.722  0.00  0.00    -0.355 N 
ATOM     10  HN  UNK N   1      27.775  15.500   3.418  1.00  0.00     0.166 HD
HETATM   11  C   UNK N   1      31.213  13.321   2.536  0.00  0.00     0.060 A 
HETATM   12  N   UNK N   1      26.213  14.106   2.412  0.00  0.00    -0.355 N 
HETATM   13  C   UNK N   1      26.032  18.197   4.244  0.00  0.00    -0.027 A 
HETATM   14  C   UNK N   1      26.082  16.833   3.735  0.00  0.00     0.041 A 
HETATM   15  C   UNK N   1      30.066  12.537   2.035  0.00  0.00     0.045 A 
HETATM   16  C   UNK N   1      25.826  12.998   1.741  0.00  0.00     0.045 A 
HETATM   17  C   UNK N   1      25.089  14.828   2.620  0.00  0.00     0.041 A 
HETATM   18  C   UNK N   1      25.033  16.153   3.262  0.00  0.00     0.060 A 
HETATM   19  C   UNK N   1      30.181  11.209   1.388  0.00  0.00    -0.002 A 
HETATM   20  N   UNK N   1      28.839  12.923   2.071  0.00  0.00    -0.355 N 
ATOM     21  HN  UNK N   1      28.492  13.799   2.464  1.00  0.00     0.166 HD
HETATM   22  C   UNK N   1      24.454  13.020   1.518  0.00  0.00    -0.002 A 
HETATM   23  C   UNK N   1      26.735  11.923   1.302  0.00  0.00     0.060 A 
HETATM   24  C   UNK N   1      23.994  14.184   2.085  0.00  0.00    -0.023 A 
HETATM   25  C   UNK N   1      28.951  10.838   1.040  0.00  0.00    -0.023 A 
HETATM   26  C   UNK N   1      28.062  11.911   1.466  0.00  0.00     0.041 A 
HETATM   27  C   UNK N   1      22.585  14.673   2.090  0.00  0.00     0.051 C 
HETATM   28  C   UNK N   1      28.566   9.569   0.351  0.00  0.00     0.051 C 
HETATM   29  C   UNK N   1      24.821  19.063   4.384  0.00  0.00     0.051 C 
HETATM   30  C   UNK N   1      33.697  14.801   3.432  0.00  0.00     0.051 C 
HETATM   31  H   UNK N   1      29.103  14.953   3.151  0.00  0.00     0.166 HD
HETATM   32  H   UNK N   1      27.128  14.339   2.693  0.00  0.00     0.166 HD
ENDROOT
BRANCH   4  33
HETATM   33  C   UNK N   1      32.655  17.508   4.617  0.00  0.00     0.052 C 
BRANCH  33  34
HETATM   34  C   UNK N   1      32.727  17.410   6.130  0.00  0.00     0.115 C 
BRANCH  34  35
HETATM   35  C   UNK N   1      34.151  17.380   6.577  0.00  0.00     0.139 C 
HETATM   36  O   UNK N   1      34.596  18.269   7.284  0.00  0.00    -0.650 OA
BRANCH  35  37
HETATM   37  O   UNK N   1      34.948  16.368   6.191  0.00  0.00    -0.776 OA
HETATM   38  H   UNK N   1      35.881  16.447   6.247  0.00  0.00     0.167 HD
ENDBRANCH  35  37
ENDBRANCH  34  35
ENDBRANCH  33  34
ENDBRANCH   4  33
BRANCH   8  39
HETATM   39  C   UNK N   1      27.782  19.888   4.942  0.00  0.00     0.052 C 
BRANCH  39  40
HETATM   40  C   UNK N   1      27.802  20.011   6.452  0.00  0.00     0.115 C 
BRANCH  40  41
HETATM   41  C   UNK N   1      26.737  20.961   6.878  0.00  0.00     0.139 C 
HETATM   42  O   UNK N   1      26.456  21.918   6.177  0.00  0.00    -0.650 OA
BRANCH  41  43
HETATM   43  O   UNK N   1      26.081  20.761   8.036  0.00  0.00    -0.776 OA
HETATM   44  H   UNK N   1      25.400  21.340   8.317  0.00  0.00     0.167 HD
ENDBRANCH  41  43
ENDBRANCH  40  41
ENDBRANCH  39  40
ENDBRANCH   8  39
BRANCH  19  45
HETATM   45  C   UNK N   1      31.401  10.408   1.148  0.00  0.00     0.004 C 
HETATM   46  C   UNK N   1      32.187  10.609   0.092  0.00  0.00     0.012 C 
ENDBRANCH  19  45
BRANCH  22  47
HETATM   47  C   UNK N   1      23.608  12.038   0.806  0.00  0.00     0.004 C 
HETATM   48  C   UNK N   1      23.471  12.029  -0.518  0.00  0.00     0.012 C 
ENDBRANCH  22  47
TORSDOF 10
ENDMDL
MODEL 2
REMARK VINA RESULT:      -8.0      1.795      6.583
REMARK  10 active torsions:
REMARK  status: ('A' for Active; 'I' for Inactive)
REMARK    1  A    between atoms: C_4  and  C_32 
REMARK    2  A    between atoms: C_8  and  C_37 
REMARK    3  A    between atoms: C_19  and  C_31 
REMARK    4  A    between atoms: C_22  and  C_27 
REMARK    5  A    between atoms: C_32  and  C_33 
REMARK    6  A    between atoms: C_33  and  C_34 
REMARK    7  A    between atoms: C_34  and  O_36 
REMARK    8  A    between atoms: C_37  and  C_38 
REMARK    9  A    between atoms: C_38  and  C_39 
REMARK   10  A    between atoms: C_39  and  O_40 
ROOT
HETATM    1  C   UNK N   1      28.600  17.484   4.800  0.00  0.00     0.041 A 
HETATM    2  C   UNK N   1      29.727  17.456   5.522  0.00  0.00     0.060 A 
HETATM    3  N   UNK N   1      28.087  16.433   4.122  0.00  0.00    -0.355 N 
HETATM    4  C   UNK N   1      27.781  18.595   4.671  0.00  0.00    -0.023 A 
HETATM    5  C   UNK N   1      30.611  16.284   5.699  0.00  0.00     0.041 A 
HETATM    6  C   UNK N   1      26.938  16.881   3.564  0.00  0.00     0.041 A 
HETATM    7  C   UNK N   1      26.725  18.206   3.885  0.00  0.00    -0.027 A 
HETATM    8  C   UNK N   1      31.786  16.266   6.588  0.00  0.00    -0.023 A 
HETATM    9  N   UNK N   1      30.454  15.142   5.127  0.00  0.00    -0.355 N 
ATOM     10  HN  UNK N   1      29.713  14.890   4.473  1.00  0.00     0.166 HD
HETATM   11  C   UNK N   1      26.107  16.151   2.817  0.00  0.00     0.060 A 
HETATM   12  N   UNK N   1      29.601  12.646   3.883  0.00  0.00    -0.355 N 
HETATM   13  C   UNK N   1      32.338  15.058   6.494  0.00  0.00    -0.027 A 
HETATM   14  C   UNK N   1      31.500  14.302   5.573  0.00  0.00     0.041 A 
HETATM   15  C   UNK N   1      26.264  14.724   2.470  0.00  0.00     0.045 A 
HETATM   16  C   UNK N   1      29.032  11.571   3.292  0.00  0.00     0.045 A 
HETATM   17  C   UNK N   1      30.729  12.193   4.473  0.00  0.00     0.041 A 
HETATM   18  C   UNK N   1      31.647  13.002   5.294  0.00  0.00     0.060 A 
HETATM   19  C   UNK N   1      25.304  13.954   1.645  0.00  0.00    -0.002 A 
HETATM   20  N   UNK N   1      27.232  13.974   2.865  0.00  0.00    -0.355 N 
ATOM     21  HN  UNK N   1      28.022  14.260   3.443  1.00  0.00     0.166 HD
HETATM   22  C   UNK N   1      29.798  10.433   3.513  0.00  0.00    -0.002 A 
HETATM   23  C   UNK N   1      27.771  11.603   2.528  0.00  0.00     0.060 A 
HETATM   24  C   UNK N   1      30.878  10.839   4.260  0.00  0.00    -0.023 A 
HETATM   25  C   UNK N   1      25.759  12.706   1.581  0.00  0.00    -0.023 A 
HETATM   26  C   UNK N   1      26.997  12.680   2.348  0.00  0.00     0.041 A 
HETATM   27  C   UNK N   1      31.980   9.974   4.771  0.00  0.00     0.051 C 
HETATM   28  C   UNK N   1      25.121  11.561   0.861  0.00  0.00     0.051 C 
HETATM   29  C   UNK N   1      33.528  14.557   7.248  0.00  0.00     0.051 C 
HETATM   30  C   UNK N   1      25.565  19.055   3.477  0.00  0.00     0.051 C 
HETATM   31  H   UNK N   1      28.470  15.528   4.050  0.00  0.00     0.166 HD
HETATM   32  H   UNK N   1      29.263  13.571   3.882  0.00  0.00     0.166 HD
ENDROOT
BRANCH   4  33
HETATM   33  C   UNK N   1      27.968  19.948   5.279  0.00  0.00     0.052 C 
BRANCH  33  34
HETATM   34  C   UNK N   1      27.584  19.932   6.747  0.00  0.00     0.115 C 
BRANCH  34  35
HETATM   35  C   UNK N   1      26.554  20.977   7.021  0.00  0.00     0.139 C 
HETATM   36  O   UNK N   1      26.327  21.851   6.200  0.00  0.00    -0.650 OA
BRANCH  35  37
HETATM   37  O   UNK N   1      25.879  20.957   8.183  0.00  0.00    -0.776 OA
HETATM   38  H   UNK N   1      24.957  21.131   8.203  0.00  0.00     0.167 HD
ENDBRANCH  35  37
ENDBRANCH  34  35
ENDBRANCH  33  34
ENDBRANCH   4  33
BRANCH   8  39
HETATM   39  C   UNK N   1      32.221  17.385   7.484  0.00  0.00     0.052 C 
BRANCH  39  40
HETATM   40  C   UNK N   1      33.583  17.927   7.101  0.00  0.00     0.115 C 
BRANCH  40  41
HETATM   41  C   UNK N   1      34.368  18.193   8.340  0.00  0.00     0.139 C 
HETATM   42  O   UNK N   1      35.213  19.072   8.351  0.00  0.00    -0.650 OA
BRANCH  41  43
HETATM   43  O   UNK N   1      34.142  17.463   9.448  0.00  0.00    -0.776 OA
HETATM   44  H   UNK N   1      34.843  17.214  10.017  0.00  0.00     0.167 HD
ENDBRANCH  41  43
ENDBRANCH  40  41
ENDBRANCH  39  40
ENDBRANCH   8  39
BRANCH  19  45
HETATM   45  C   UNK N   1      24.063  14.431   0.996  0.00  0.00     0.004 C 
HETATM   46  C   UNK N   1      22.906  14.520   1.652  0.00  0.00     0.012 C 
ENDBRANCH  19  45
BRANCH  22  47
HETATM   47  C   UNK N   1      29.548   9.041   3.083  0.00  0.00     0.004 C 
HETATM   48  C   UNK N   1      28.799   8.192   3.782  0.00  0.00     0.012 C 
ENDBRANCH  22  47
TORSDOF 10
ENDMDL
MODEL 3
REMARK VINA RESULT:      -8.0      0.973      6.497
REMARK  10 active torsions:
REMARK  status: ('A' for Active; 'I' for Inactive)
REMARK    1  A    between atoms: C_4  and  C_32 
REMARK    2  A    between atoms: C_8  and  C_37 
REMARK    3  A    between atoms: C_19  and  C_31 
REMARK    4  A    between atoms: C_22  and  C_27 
REMARK    5  A    between atoms: C_32  and  C_33 
REMARK    6  A    between atoms: C_33  and  C_34 
REMARK    7  A    between atoms: C_34  and  O_36 
REMARK    8  A    between atoms: C_37  and  C_38 
REMARK    9  A    between atoms: C_38  and  C_39 
REMARK   10  A    between atoms: C_39  and  O_40 
ROOT
HETATM    1  C   UNK N   1      28.596  17.546   4.178  0.00  0.00     0.041 A 
HETATM    2  C   UNK N   1      29.883  17.551   4.550  0.00  0.00     0.060 A 
HETATM    3  N   UNK N   1      27.969  16.514   3.571  0.00  0.00    -0.355 N 
HETATM    4  C   UNK N   1      27.716  18.595   4.394  0.00  0.00    -0.023 A 
HETATM    5  C   UNK N   1      30.843  16.443   4.355  0.00  0.00     0.041 A 
HETATM    6  C   UNK N   1      26.685  16.911   3.404  0.00  0.00     0.041 A 
HETATM    7  C   UNK N   1      26.502  18.186   3.900  0.00  0.00    -0.027 A 
HETATM    8  C   UNK N   1      32.222  16.449   4.874  0.00  0.00    -0.023 A 
HETATM    9  N   UNK N   1      30.591  15.341   3.741  0.00  0.00    -0.355 N 
ATOM     10  HN  UNK N   1      29.709  15.083   3.299  1.00  0.00     0.166 HD
HETATM   11  C   UNK N   1      25.716  16.179   2.852  0.00  0.00     0.060 A 
HETATM   12  N   UNK N   1      29.554  12.891   2.546  0.00  0.00    -0.355 N 
HETATM   13  C   UNK N   1      32.788  15.300   4.511  0.00  0.00    -0.027 A 
HETATM   14  C   UNK N   1      31.764  14.555   3.792  0.00  0.00     0.041 A 
HETATM   15  C   UNK N   1      25.844  14.801   2.335  0.00  0.00     0.045 A 
HETATM   16  C   UNK N   1      28.898  11.824   2.036  0.00  0.00     0.045 A 
HETATM   17  C   UNK N   1      30.827  12.484   2.750  0.00  0.00     0.041 A 
HETATM   18  C   UNK N   1      31.895  13.297   3.356  0.00  0.00     0.060 A 
HETATM   19  C   UNK N   1      24.732  14.024   1.742  0.00  0.00    -0.002 A 
HETATM   20  N   UNK N   1      26.924  14.101   2.368  0.00  0.00    -0.355 N 
ATOM     21  HN  UNK N   1      27.830  14.404   2.727  1.00  0.00     0.166 HD
HETATM   22  C   UNK N   1      29.756  10.737   1.921  0.00  0.00    -0.002 A 
HETATM   23  C   UNK N   1      27.472  11.816   1.663  0.00  0.00     0.060 A 
HETATM   24  C   UNK N   1      30.981  11.167   2.372  0.00  0.00    -0.023 A 
HETATM   25  C   UNK N   1      25.217  12.825   1.430  0.00  0.00    -0.023 A 
HETATM   26  C   UNK N   1      26.622  12.838   1.814  0.00  0.00     0.041 A 
HETATM   27  C   UNK N   1      32.229  10.356   2.466  0.00  0.00     0.051 C 
HETATM   28  C   UNK N   1      24.463  11.693   0.808  0.00  0.00     0.051 C 
HETATM   29  C   UNK N   1      34.170  14.838   4.849  0.00  0.00     0.051 C 
HETATM   30  C   UNK N   1      25.229  18.969   3.919  0.00  0.00     0.051 C 
HETATM   31  H   UNK N   1      28.363  15.652   3.306  0.00  0.00     0.166 HD
HETATM   32  H   UNK N   1      29.180  13.783   2.732  0.00  0.00     0.166 HD
ENDROOT
BRANCH   4  33
HETATM   33  C   UNK N   1      27.995  19.906   5.055  0.00  0.00     0.052 C 
BRANCH  33  34
HETATM   34  C   UNK N   1      27.675  19.837   6.536  0.00  0.00     0.115 C 
BRANCH  34  35
HETATM   35  C   UNK N   1      26.701  20.906   6.904  0.00  0.00     0.139 C 
HETATM   36  O   UNK N   1      26.524  21.861   6.164  0.00  0.00    -0.650 OA
BRANCH  35  37
HETATM   37  O   UNK N   1      26.021  20.819   8.060  0.00  0.00    -0.776 OA
HETATM   38  H   UNK N   1      25.245  21.327   8.197  0.00  0.00     0.167 HD
ENDBRANCH  35  37
ENDBRANCH  34  35
ENDBRANCH  33  34
ENDBRANCH   4  33
BRANCH   8  39
HETATM   39  C   UNK N   1      32.834  17.525   5.717  0.00  0.00     0.052 C 
BRANCH  39  40
HETATM   40  C   UNK N   1      32.552  17.326   7.193  0.00  0.00     0.115 C 
BRANCH  40  41
HETATM   41  C   UNK N   1      33.731  17.783   7.980  0.00  0.00     0.139 C 
HETATM   42  O   UNK N   1      34.657  18.349   7.422  0.00  0.00    -0.650 OA
BRANCH  41  43
HETATM   43  O   UNK N   1      33.776  17.574   9.309  0.00  0.00    -0.776 OA
HETATM   44  H   UNK N   1      32.997  17.405   9.801  0.00  0.00     0.167 HD
ENDBRANCH  41  43
ENDBRANCH  40  41
ENDBRANCH  39  40
ENDBRANCH   8  39
BRANCH  19  45
HETATM   45  C   UNK N   1      23.333  14.450   1.516  0.00  0.00     0.004 C 
HETATM   46  C   UNK N   1      22.417  14.423   2.483  0.00  0.00     0.012 C 
ENDBRANCH  19  45
BRANCH  22  47
HETATM   47  C   UNK N   1      29.470   9.367   1.443  0.00  0.00     0.004 C 
HETATM   48  C   UNK N   1      29.520   9.026   0.157  0.00  0.00     0.012 C 
ENDBRANCH  22  47
TORSDOF 10
ENDMDL
MODEL 4
REMARK VINA RESULT:      -7.9      4.040      7.800
REMARK  10 active torsions:
REMARK  status: ('A' for Active; 'I' for Inactive)
REMARK    1  A    between atoms: C_4  and  C_32 
REMARK    2  A    between atoms: C_8  and  C_37 
REMARK    3  A    between atoms: C_19  and  C_31 
REMARK    4  A    between atoms: C_22  and  C_27 
REMARK    5  A    between atoms: C_32  and  C_33 
REMARK    6  A    between atoms: C_33  and  C_34 
REMARK    7  A    between atoms: C_34  and  O_36 
REMARK    8  A    between atoms: C_37  and  C_38 
REMARK    9  A    between atoms: C_38  and  C_39 
REMARK   10  A    between atoms: C_39  and  O_40 
ROOT
HETATM    1  C   UNK N   1      23.673  16.859   3.435  0.00  0.00     0.041 A 
HETATM    2  C   UNK N   1      22.573  16.221   3.014  0.00  0.00     0.060 A 
HETATM    3  N   UNK N   1      24.927  16.356   3.390  0.00  0.00    -0.355 N 
HETATM    4  C   UNK N   1      23.681  18.145   3.952  0.00  0.00    -0.023 A 
HETATM    5  C   UNK N   1      22.532  14.860   2.438  0.00  0.00     0.041 A 
HETATM    6  C   UNK N   1      25.731  17.329   3.878  0.00  0.00     0.041 A 
HETATM    7  C   UNK N   1      24.992  18.440   4.231  0.00  0.00    -0.027 A 
HETATM    8  C   UNK N   1      21.315  14.235   1.889  0.00  0.00    -0.023 A 
HETATM    9  N   UNK N   1      23.542  14.070   2.322  0.00  0.00    -0.355 N 
ATOM     10  HN  UNK N   1      24.499  14.267   2.615  1.00  0.00     0.166 HD
HETATM   11  C   UNK N   1      27.058  17.248   3.994  0.00  0.00     0.060 A 
HETATM   12  N   UNK N   1      26.096  12.708   1.971  0.00  0.00    -0.355 N 
HETATM   13  C   UNK N   1      21.649  13.019   1.465  0.00  0.00    -0.027 A 
HETATM   14  C   UNK N   1      23.078  12.882   1.713  0.00  0.00     0.041 A 
HETATM   15  C   UNK N   1      27.904  16.102   3.602  0.00  0.00     0.045 A 
HETATM   16  C   UNK N   1      27.360  12.250   1.829  0.00  0.00     0.045 A 
HETATM   17  C   UNK N   1      25.293  11.754   1.449  0.00  0.00     0.041 A 
HETATM   18  C   UNK N   1      23.828  11.845   1.326  0.00  0.00     0.060 A 
HETATM   19  C   UNK N   1      29.378  16.066   3.740  0.00  0.00    -0.002 A 
HETATM   20  N   UNK N   1      27.468  15.015   3.068  0.00  0.00    -0.355 N 
ATOM     21  HN  UNK N   1      26.494  14.789   2.865  1.00  0.00     0.166 HD
HETATM   22  C   UNK N   1      27.359  11.005   1.211  0.00  0.00    -0.002 A 
HETATM   23  C   UNK N   1      28.568  12.975   2.263  0.00  0.00     0.060 A 
HETATM   24  C   UNK N   1      26.041  10.695   0.978  0.00  0.00    -0.023 A 
HETATM   25  C   UNK N   1      29.786  14.898   3.252  0.00  0.00    -0.023 A 
HETATM   26  C   UNK N   1      28.589  14.194   2.814  0.00  0.00     0.041 A 
HETATM   27  C   UNK N   1      25.521   9.466   0.313  0.00  0.00     0.051 C 
HETATM   28  C   UNK N   1      31.198  14.410   3.173  0.00  0.00     0.051 C 
HETATM   29  C   UNK N   1      20.752  12.029   0.791  0.00  0.00     0.051 C 
HETATM   30  C   UNK N   1      25.512  19.725   4.791  0.00  0.00     0.051 C 
HETATM   31  H   UNK N   1      25.198  15.466   3.067  0.00  0.00     0.166 HD
HETATM   32  H   UNK N   1      25.817  13.562   2.373  0.00  0.00     0.166 HD
ENDROOT
BRANCH   4  33
HETATM   33  C   UNK N   1      22.517  19.063   4.149  0.00  0.00     0.052 C 
BRANCH  33  34
HETATM   34  C   UNK N   1      22.359  19.989   2.957  0.00  0.00     0.115 C 
BRANCH  34  35
HETATM   35  C   UNK N   1      20.938  20.426   2.830  0.00  0.00     0.139 C 
HETATM   36  O   UNK N   1      20.312  20.791   3.813  0.00  0.00    -0.650 OA
BRANCH  35  37
HETATM   37  O   UNK N   1      20.342  20.411   1.625  0.00  0.00    -0.776 OA
HETATM   38  H   UNK N   1      19.609  19.849   1.461  0.00  0.00     0.167 HD
ENDBRANCH  35  37
ENDBRANCH  34  35
ENDBRANCH  33  34
ENDBRANCH   4  33
BRANCH   8  39
HETATM   39  C   UNK N   1      19.973  14.891   1.771  0.00  0.00     0.052 C 
BRANCH  39  40
HETATM   40  C   UNK N   1      19.815  15.638   0.462  0.00  0.00     0.115 C 
BRANCH  40  41
HETATM   41  C   UNK N   1      19.901  17.103   0.723  0.00  0.00     0.139 C 
HETATM   42  O   UNK N   1      19.601  17.546   1.819  0.00  0.00    -0.650 OA
BRANCH  41  43
HETATM   43  O   UNK N   1      20.312  17.937  -0.249  0.00  0.00    -0.776 OA
HETATM   44  H   UNK N   1      20.413  18.855  -0.092  0.00  0.00     0.167 HD
ENDBRANCH  41  43
ENDBRANCH  40  41
ENDBRANCH  39  40
ENDBRANCH   8  39
BRANCH  19  45
HETATM   45  C   UNK N   1      30.273  17.101   4.303  0.00  0.00     0.004 C 
HETATM   46  C   UNK N   1      30.512  17.200   5.610  0.00  0.00     0.012 C 
ENDBRANCH  19  45
BRANCH  22  47
HETATM   47  C   UNK N   1      28.504  10.149   0.833  0.00  0.00     0.004 C 
HETATM   48  C   UNK N   1      29.223  10.349  -0.269  0.00  0.00     0.012 C 
ENDBRANCH  22  47
TORSDOF 10
ENDMDL
MODEL 5
REMARK VINA RESULT:      -7.6      3.188      6.972
REMARK  10 active torsions:
REMARK  status: ('A' for Active; 'I' for Inactive)
REMARK    1  A    between atoms: C_4  and  C_32 
REMARK    2  A    between atoms: C_8  and  C_37 
REMARK    3  A    between atoms: C_19  and  C_31 
REMARK    4  A    between atoms: C_22  and  C_27 
REMARK    5  A    between atoms: C_32  and  C_33 
REMARK    6  A    between atoms: C_33  and  C_34 
REMARK    7  A    between atoms: C_34  and  O_36 
REMARK    8  A    between atoms: C_37  and  C_38 
REMARK    9  A    between atoms: C_38  and  C_39 
REMARK   10  A    between atoms: C_39  and  O_40 
ROOT
HETATM    1  C   UNK N   1      26.103  17.203   3.730  0.00  0.00     0.041 A 
HETATM    2  C   UNK N   1      24.990  16.555   3.362  0.00  0.00     0.060 A 
HETATM    3  N   UNK N   1      27.357  16.709   3.631  0.00  0.00    -0.355 N 
HETATM    4  C   UNK N   1      26.124  18.492   4.239  0.00  0.00    -0.023 A 
HETATM    5  C   UNK N   1      24.933  15.190   2.795  0.00  0.00     0.041 A 
HETATM    6  C   UNK N   1      28.175  17.691   4.077  0.00  0.00     0.041 A 
HETATM    7  C   UNK N   1      27.444  18.798   4.458  0.00  0.00    -0.027 A 
HETATM    8  C   UNK N   1      23.697  14.554   2.305  0.00  0.00    -0.023 A 
HETATM    9  N   UNK N   1      25.943  14.407   2.638  0.00  0.00    -0.355 N 
ATOM     10  HN  UNK N   1      26.910  14.612   2.886  1.00  0.00     0.166 HD
HETATM   11  C   UNK N   1      29.507  17.619   4.134  0.00  0.00     0.060 A 
HETATM   12  N   UNK N   1      28.489  13.062   2.179  0.00  0.00    -0.355 N 
HETATM   13  C   UNK N   1      24.021  13.337   1.872  0.00  0.00    -0.027 A 
HETATM   14  C   UNK N   1      25.461  13.213   2.057  0.00  0.00     0.041 A 
HETATM   15  C   UNK N   1      30.343  16.478   3.710  0.00  0.00     0.045 A 
HETATM   16  C   UNK N   1      29.749  12.612   1.983  0.00  0.00     0.045 A 
HETATM   17  C   UNK N   1      27.671  12.099   1.699  0.00  0.00     0.041 A 
HETATM   18  C   UNK N   1      26.201  12.179   1.641  0.00  0.00     0.060 A 
HETATM   19  C   UNK N   1      31.822  16.453   3.782  0.00  0.00    -0.002 A 
HETATM   20  N   UNK N   1      29.891  15.385   3.201  0.00  0.00    -0.355 N 
ATOM     21  HN  UNK N   1      28.911  15.151   3.044  1.00  0.00     0.166 HD
HETATM   22  C   UNK N   1      29.730  11.364   1.372  0.00  0.00    -0.002 A 
HETATM   23  C   UNK N   1      30.970  13.349   2.359  0.00  0.00     0.060 A 
HETATM   24  C   UNK N   1      28.404  11.044   1.200  0.00  0.00    -0.023 A 
HETATM   25  C   UNK N   1      32.216  15.286   3.282  0.00  0.00    -0.023 A 
HETATM   26  C   UNK N   1      31.006  14.571   2.902  0.00  0.00     0.041 A 
HETATM   27  C   UNK N   1      27.865   9.807   0.565  0.00  0.00     0.051 C 
HETATM   28  C   UNK N   1      33.627  14.808   3.142  0.00  0.00     0.051 C 
HETATM   29  C   UNK N   1      23.103  12.337   1.244  0.00  0.00     0.051 C 
HETATM   30  C   UNK N   1      27.979  20.089   4.987  0.00  0.00     0.051 C 
HETATM   31  H   UNK N   1      27.621  15.819   3.301  0.00  0.00     0.166 HD
HETATM   32  H   UNK N   1      28.221  13.916   2.589  0.00  0.00     0.166 HD
ENDROOT
BRANCH   4  33
HETATM   33  C   UNK N   1      24.963  19.402   4.483  0.00  0.00     0.052 C 
BRANCH  33  34
HETATM   34  C   UNK N   1      24.610  20.169   3.223  0.00  0.00     0.115 C 
BRANCH  34  35
HETATM   35  C   UNK N   1      23.129  20.247   3.065  0.00  0.00     0.139 C 
HETATM   36  O   UNK N   1      22.598  21.291   2.718  0.00  0.00    -0.650 OA
BRANCH  35  37
HETATM   37  O   UNK N   1      22.374  19.163   3.313  0.00  0.00    -0.776 OA
HETATM   38  H   UNK N   1      21.540  19.056   2.897  0.00  0.00     0.167 HD
ENDBRANCH  35  37
ENDBRANCH  34  35
ENDBRANCH  33  34
ENDBRANCH   4  33
BRANCH   8  39
HETATM   39  C   UNK N   1      22.347  15.199   2.243  0.00  0.00     0.052 C 
BRANCH  39  40
HETATM   40  C   UNK N   1      21.617  15.126   3.569  0.00  0.00     0.115 C 
BRANCH  40  41
HETATM   41  C   UNK N   1      20.325  15.860   3.455  0.00  0.00     0.139 C 
HETATM   42  O   UNK N   1      20.282  17.059   3.670  0.00  0.00    -0.650 OA
BRANCH  41  43
HETATM   43  O   UNK N   1      19.205  15.199   3.111  0.00  0.00    -0.776 OA
HETATM   44  H   UNK N   1      18.422  15.657   2.874  0.00  0.00     0.167 HD
ENDBRANCH  41  43
ENDBRANCH  40  41
ENDBRANCH  39  40
ENDBRANCH   8  39
BRANCH  19  45
HETATM   45  C   UNK N   1      32.733  17.499   4.299  0.00  0.00     0.004 C 
HETATM   46  C   UNK N   1      33.190  17.487   5.550  0.00  0.00     0.012 C 
ENDBRANCH  19  45
BRANCH  22  47
HETATM   47  C   UNK N   1      30.863  10.515   0.948  0.00  0.00     0.004 C 
HETATM   48  C   UNK N   1      31.460  10.645  -0.235  0.00  0.00     0.012 C 
ENDBRANCH  22  47
TORSDOF 10
ENDMDL
MODEL 6
REMARK VINA RESULT:      -7.6      2.924      6.149
REMARK  10 active torsions:
REMARK  status: ('A' for Active; 'I' for Inactive)
REMARK    1  A    between atoms: C_4  and  C_32 
REMARK    2  A    between atoms: C_8  and  C_37 
REMARK    3  A    between atoms: C_19  and  C_31 
REMARK    4  A    between atoms: C_22  and  C_27 
REMARK    5  A    between atoms: C_32  and  C_33 
REMARK    6  A    between atoms: C_33  and  C_34 
REMARK    7  A    between atoms: C_34  and  O_36 
REMARK    8  A    between atoms: C_37  and  C_38 
REMARK    9  A    between atoms: C_38  and  C_39 
REMARK   10  A    between atoms: C_39  and  O_40 
ROOT
HETATM    1  C   UNK N   1      28.741  17.231   6.246  0.00  0.00     0.041 A 
HETATM    2  C   UNK N   1      27.659  17.243   5.457  0.00  0.00     0.060 A 
HETATM    3  N   UNK N   1      29.821  16.437   6.069  0.00  0.00    -0.355 N 
HETATM    4  C   UNK N   1      28.917  18.058   7.345  0.00  0.00    -0.023 A 
HETATM    5  C   UNK N   1      27.448  16.392   4.267  0.00  0.00     0.041 A 
HETATM    6  C   UNK N   1      30.685  16.766   7.058  0.00  0.00     0.041 A 
HETATM    7  C   UNK N   1      30.154  17.759   7.857  0.00  0.00    -0.027 A 
HETATM    8  C   UNK N   1      26.288  16.512   3.364  0.00  0.00    -0.023 A 
HETATM    9  N   UNK N   1      28.250  15.471   3.860  0.00  0.00    -0.355 N 
ATOM     10  HN  UNK N   1      29.127  15.196   4.300  1.00  0.00     0.166 HD
HETATM   11  C   UNK N   1      31.891  16.225   7.240  0.00  0.00     0.060 A 
HETATM   12  N   UNK N   1      30.435  13.694   3.104  0.00  0.00    -0.355 N 
HETATM   13  C   UNK N   1      26.430  15.592   2.412  0.00  0.00    -0.027 A 
HETATM   14  C   UNK N   1      27.688  14.912   2.690  0.00  0.00     0.041 A 
HETATM   15  C   UNK N   1      32.523  15.187   6.401  0.00  0.00     0.045 A 
HETATM   16  C   UNK N   1      31.559  12.979   2.869  0.00  0.00     0.045 A 
HETATM   17  C   UNK N   1      29.586  13.397   2.096  0.00  0.00     0.041 A 
HETATM   18  C   UNK N   1      28.253  13.993   1.900  0.00  0.00     0.060 A 
HETATM   19  C   UNK N   1      33.873  14.627   6.639  0.00  0.00    -0.002 A 
HETATM   20  N   UNK N   1      31.992  14.670   5.349  0.00  0.00    -0.355 N 
ATOM     21  HN  UNK N   1      31.070  14.884   4.968  1.00  0.00     0.166 HD
HETATM   22  C   UNK N   1      31.423  12.232   1.705  0.00  0.00    -0.002 A 
HETATM   23  C   UNK N   1      32.760  12.999   3.724  0.00  0.00     0.060 A 
HETATM   24  C   UNK N   1      30.164  12.499   1.224  0.00  0.00    -0.023 A 
HETATM   25  C   UNK N   1      34.110  13.754   5.664  0.00  0.00    -0.023 A 
HETATM   26  C   UNK N   1      32.924  13.750   4.818  0.00  0.00     0.041 A 
HETATM   27  C   UNK N   1      29.553  11.950  -0.021  0.00  0.00     0.051 C 
HETATM   28  C   UNK N   1      35.350  12.939   5.481  0.00  0.00     0.051 C 
HETATM   29  C   UNK N   1      25.520  15.364   1.247  0.00  0.00     0.051 C 
HETATM   30  C   UNK N   1      30.803  18.402   9.040  0.00  0.00     0.051 C 
HETATM   31  H   UNK N   1      29.952  15.762   5.365  0.00  0.00     0.166 HD
HETATM   32  H   UNK N   1      30.270  14.306   3.858  0.00  0.00     0.166 HD
ENDROOT
BRANCH   4  33
HETATM   33  C   UNK N   1      27.979  19.096   7.871  0.00  0.00     0.052 C 
BRANCH  33  34
HETATM   34  C   UNK N   1      27.911  20.282   6.928  0.00  0.00     0.115 C 
BRANCH  34  35
HETATM   35  C   UNK N   1      26.550  20.895   6.968  0.00  0.00     0.139 C 
HETATM   36  O   UNK N   1      26.054  21.366   5.957  0.00  0.00    -0.650 OA
BRANCH  35  37
HETATM   37  O   UNK N   1      25.872  20.933   8.128  0.00  0.00    -0.776 OA
HETATM   38  H   UNK N   1      25.089  20.428   8.240  0.00  0.00     0.167 HD
ENDBRANCH  35  37
ENDBRANCH  34  35
ENDBRANCH  33  34
ENDBRANCH   4  33
BRANCH   8  39
HETATM   39  C   UNK N   1      25.200  17.535   3.472  0.00  0.00     0.052 C 
BRANCH  39  40
HETATM   40  C   UNK N   1      25.729  18.949   3.342  0.00  0.00     0.115 C 
BRANCH  40  41
HETATM   41  C   UNK N   1      24.593  19.869   3.056  0.00  0.00     0.139 C 
HETATM   42  O   UNK N   1      23.509  19.685   3.584  0.00  0.00    -0.650 OA
BRANCH  41  43
HETATM   43  O   UNK N   1      24.762  20.907   2.216  0.00  0.00    -0.776 OA
HETATM   44  H   UNK N   1      24.231  21.676   2.279  0.00  0.00     0.167 HD
ENDBRANCH  41  43
ENDBRANCH  40  41
ENDBRANCH  39  40
ENDBRANCH   8  39
BRANCH  19  45
HETATM   45  C   UNK N   1      34.818  14.944   7.733  0.00  0.00     0.004 C 
HETATM   46  C   UNK N   1      34.732  14.374   8.934  0.00  0.00     0.012 C 
ENDBRANCH  19  45
BRANCH  22  47
HETATM   47  C   UNK N   1      32.400  11.333   1.054  0.00  0.00     0.004 C 
HETATM   48  C   UNK N   1      33.307  11.765   0.181  0.00  0.00     0.012 C 
ENDBRANCH  22  47
TORSDOF 10
ENDMDL
MODEL 7
REMARK VINA RESULT:      -7.4      2.749      5.792
REMARK  10 active torsions:
REMARK  status: ('A' for Active; 'I' for Inactive)
REMARK    1  A    between atoms: C_4  and  C_32 
REMARK    2  A    between atoms: C_8  and  C_37 
REMARK    3  A    between atoms: C_19  and  C_31 
REMARK    4  A    between atoms: C_22  and  C_27 
REMARK    5  A    between atoms: C_32  and  C_33 
REMARK    6  A    between atoms: C_33  and  C_34 
REMARK    7  A    between atoms: C_34  and  O_36 
REMARK    8  A    between atoms: C_37  and  C_38 
REMARK    9  A    between atoms: C_38  and  C_39 
REMARK   10  A    between atoms: C_39  and  O_40 
ROOT
HETATM    1  C   UNK N   1      30.587  16.604   6.379  0.00  0.00     0.041 A 
HETATM    2  C   UNK N   1      29.319  16.627   5.951  0.00  0.00     0.060 A 
HETATM    3  N   UNK N   1      31.576  15.859   5.835  0.00  0.00    -0.355 N 
HETATM    4  C   UNK N   1      31.073  17.369   7.428  0.00  0.00    -0.023 A 
HETATM    5  C   UNK N   1      28.773  15.842   4.823  0.00  0.00     0.041 A 
HETATM    6  C   UNK N   1      32.692  16.157   6.542  0.00  0.00     0.041 A 
HETATM    7  C   UNK N   1      32.411  17.082   7.527  0.00  0.00    -0.027 A 
HETATM    8  C   UNK N   1      27.395  15.976   4.318  0.00  0.00    -0.023 A 
HETATM    9  N   UNK N   1      29.429  14.974   4.135  0.00  0.00    -0.355 N 
ATOM     10  HN  UNK N   1      30.402  14.704   4.274  1.00  0.00     0.166 HD
HETATM   11  C   UNK N   1      33.905  15.647   6.320  0.00  0.00     0.060 A 
HETATM   12  N   UNK N   1      31.313  13.320   2.646  0.00  0.00    -0.355 N 
HETATM   13  C   UNK N   1      27.257  15.120   3.307  0.00  0.00    -0.027 A 
HETATM   14  C   UNK N   1      28.551  14.468   3.151  0.00  0.00     0.041 A 
HETATM   15  C   UNK N   1      34.270  14.683   5.263  0.00  0.00     0.045 A 
HETATM   16  C   UNK N   1      32.325  12.659   2.038  0.00  0.00     0.045 A 
HETATM   17  C   UNK N   1      30.205  13.055   1.919  0.00  0.00     0.041 A 
HETATM   18  C   UNK N   1      28.866  13.617   2.169  0.00  0.00     0.060 A 
HETATM   19  C   UNK N   1      35.638  14.156   5.050  0.00  0.00    -0.002 A 
HETATM   20  N   UNK N   1      33.457  14.212   4.384  0.00  0.00    -0.355 N 
ATOM     21  HN  UNK N   1      32.460  14.417   4.311  1.00  0.00     0.166 HD
HETATM   22  C   UNK N   1      31.857  11.978   0.921  0.00  0.00    -0.002 A 
HETATM   23  C   UNK N   1      33.726  12.668   2.496  0.00  0.00     0.060 A 
HETATM   24  C   UNK N   1      30.508  12.231   0.856  0.00  0.00    -0.023 A 
HETATM   25  C   UNK N   1      35.584  13.350   3.992  0.00  0.00    -0.023 A 
HETATM   26  C   UNK N   1      34.200  13.357   3.540  0.00  0.00     0.041 A 
HETATM   27  C   UNK N   1      29.560  11.737  -0.185  0.00  0.00     0.051 C 
HETATM   28  C   UNK N   1      36.724  12.590   3.393  0.00  0.00     0.051 C 
HETATM   29  C   UNK N   1      26.044  14.932   2.454  0.00  0.00     0.051 C 
HETATM   30  C   UNK N   1      33.375  17.675   8.504  0.00  0.00     0.051 C 
HETATM   31  H   UNK N   1      31.500  15.232   5.080  0.00  0.00     0.166 HD
HETATM   32  H   UNK N   1      31.372  13.880   3.454  0.00  0.00     0.166 HD
ENDROOT
BRANCH   4  33
HETATM   33  C   UNK N   1      30.321  18.342   8.279  0.00  0.00     0.052 C 
BRANCH  33  34
HETATM   34  C   UNK N   1      29.660  17.633   9.446  0.00  0.00     0.115 C 
BRANCH  34  35
HETATM   35  C   UNK N   1      28.175  17.723   9.330  0.00  0.00     0.139 C 
HETATM   36  O   UNK N   1      27.473  16.772   9.634  0.00  0.00    -0.650 OA
BRANCH  35  37
HETATM   37  O   UNK N   1      27.610  18.856   8.880  0.00  0.00    -0.776 OA
HETATM   38  H   UNK N   1      27.820  19.682   9.271  0.00  0.00     0.167 HD
ENDBRANCH  35  37
ENDBRANCH  34  35
ENDBRANCH  33  34
ENDBRANCH   4  33
BRANCH   8  39
HETATM   39  C   UNK N   1      26.374  16.954   4.813  0.00  0.00     0.052 C 
BRANCH  39  40
HETATM   40  C   UNK N   1      26.442  18.275   4.074  0.00  0.00     0.115 C 
BRANCH  40  41
HETATM   41  C   UNK N   1      26.462  19.387   5.066  0.00  0.00     0.139 C 
HETATM   42  O   UNK N   1      27.175  19.312   6.053  0.00  0.00    -0.650 OA
BRANCH  41  43
HETATM   43  O   UNK N   1      25.696  20.476   4.872  0.00  0.00    -0.776 OA
HETATM   44  H   UNK N   1      25.140  20.807   5.550  0.00  0.00     0.167 HD
ENDBRANCH  41  43
ENDBRANCH  40  41
ENDBRANCH  39  40
ENDBRANCH   8  39
BRANCH  19  45
HETATM   45  C   UNK N   1      36.863  14.438   5.831  0.00  0.00     0.004 C 
HETATM   46  C   UNK N   1      37.152  13.790   6.958  0.00  0.00     0.012 C 
ENDBRANCH  19  45
BRANCH  22  47
HETATM   47  C   UNK N   1      32.606  11.153  -0.051  0.00  0.00     0.004 C 
HETATM   48  C   UNK N   1      32.821   9.851   0.121  0.00  0.00     0.012 C 
ENDBRANCH  22  47
TORSDOF 10
ENDMDL
MODEL 8
REMARK VINA RESULT:      -7.2      4.226      7.477
REMARK  10 active torsions:
REMARK  status: ('A' for Active; 'I' for Inactive)
REMARK    1  A    between atoms: C_4  and  C_32 
REMARK    2  A    between atoms: C_8  and  C_37 
REMARK    3  A    between atoms: C_19  and  C_31 
REMARK    4  A    between atoms: C_22  and  C_27 
REMARK    5  A    between atoms: C_32  and  C_33 
REMARK    6  A    between atoms: C_33  and  C_34 
REMARK    7  A    between atoms: C_34  and  O_36 
REMARK    8  A    between atoms: C_37  and  C_38 
REMARK    9  A    between atoms: C_38  and  C_39 
REMARK   10  A    between atoms: C_39  and  O_40 
ROOT
HETATM    1  C   UNK N   1      33.111  14.796   6.192  0.00  0.00     0.041 A 
HETATM    2  C   UNK N   1      33.875  14.229   7.133  0.00  0.00     0.060 A 
HETATM    3  N   UNK N   1      32.154  14.158   5.482  0.00  0.00    -0.355 N 
HETATM    4  C   UNK N   1      33.175  16.134   5.834  0.00  0.00    -0.023 A 
HETATM    5  C   UNK N   1      33.818  12.812   7.555  0.00  0.00     0.041 A 
HETATM    6  C   UNK N   1      31.609  15.097   4.673  0.00  0.00     0.041 A 
HETATM    7  C   UNK N   1      32.218  16.320   4.868  0.00  0.00    -0.027 A 
HETATM    8  C   UNK N   1      34.605  12.253   8.669  0.00  0.00    -0.023 A 
HETATM    9  N   UNK N   1      33.068  11.910   7.027  0.00  0.00    -0.355 N 
ATOM     10  HN  UNK N   1      32.422  12.040   6.249  1.00  0.00     0.166 HD
HETATM   11  C   UNK N   1      30.611  14.889   3.811  0.00  0.00     0.060 A 
HETATM   12  N   UNK N   1      31.031  10.241   5.775  0.00  0.00    -0.355 N 
HETATM   13  C   UNK N   1      34.302  10.960   8.759  0.00  0.00    -0.027 A 
HETATM   14  C   UNK N   1      33.305  10.705   7.728  0.00  0.00     0.041 A 
HETATM   15  C   UNK N   1      29.900  13.614   3.584  0.00  0.00     0.045 A 
HETATM   16  C   UNK N   1      30.003   9.633   5.139  0.00  0.00     0.045 A 
HETATM   17  C   UNK N   1      31.552   9.316   6.611  0.00  0.00     0.041 A 
HETATM   18  C   UNK N   1      32.656   9.549   7.558  0.00  0.00     0.060 A 
HETATM   19  C   UNK N   1      28.788  13.438   2.623  0.00  0.00    -0.002 A 
HETATM   20  N   UNK N   1      30.139  12.517   4.213  0.00  0.00    -0.355 N 
ATOM     21  HN  UNK N   1      30.855  12.372   4.926  1.00  0.00     0.166 HD
HETATM   22  C   UNK N   1      29.869   8.321   5.578  0.00  0.00    -0.002 A 
HETATM   23  C   UNK N   1      29.143  10.276   4.129  0.00  0.00     0.060 A 
HETATM   24  C   UNK N   1      30.861   8.127   6.510  0.00  0.00    -0.023 A 
HETATM   25  C   UNK N   1      28.382  12.175   2.725  0.00  0.00    -0.023 A 
HETATM   26  C   UNK N   1      29.228  11.551   3.733  0.00  0.00     0.041 A 
HETATM   27  C   UNK N   1      31.119   6.880   7.286  0.00  0.00     0.051 C 
HETATM   28  C   UNK N   1      27.275  11.531   1.952  0.00  0.00     0.051 C 
HETATM   29  C   UNK N   1      34.820   9.989   9.772  0.00  0.00     0.051 C 
HETATM   30  C   UNK N   1      31.891  17.607   4.181  0.00  0.00     0.051 C 
HETATM   31  H   UNK N   1      31.904  13.208   5.542  0.00  0.00     0.166 HD
HETATM   32  H   UNK N   1      31.337  11.169   5.652  0.00  0.00     0.166 HD
ENDROOT
BRANCH   4  33
HETATM   33  C   UNK N   1      34.074  17.191   6.391  0.00  0.00     0.052 C 
BRANCH  33  34
HETATM   34  C   UNK N   1      33.412  17.894   7.561  0.00  0.00     0.115 C 
BRANCH  34  35
HETATM   35  C   UNK N   1      34.422  18.204   8.615  0.00  0.00     0.139 C 
HETATM   36  O   UNK N   1      35.227  19.106   8.453  0.00  0.00    -0.650 OA
BRANCH  35  37
HETATM   37  O   UNK N   1      34.447  17.478   9.746  0.00  0.00    -0.776 OA
HETATM   38  H   UNK N   1      35.202  16.967   9.968  0.00  0.00     0.167 HD
ENDBRANCH  35  37
ENDBRANCH  34  35
ENDBRANCH  33  34
ENDBRANCH   4  33
BRANCH   8  39
HETATM   39  C   UNK N   1      35.515  13.028   9.572  0.00  0.00     0.052 C 
BRANCH  39  40
HETATM   40  C   UNK N   1      34.971  13.131  10.982  0.00  0.00     0.115 C 
BRANCH  40  41
HETATM   41  C   UNK N   1      34.602  14.548  11.259  0.00  0.00     0.139 C 
HETATM   42  O   UNK N   1      35.449  15.335  11.645  0.00  0.00    -0.650 OA
BRANCH  41  43
HETATM   43  O   UNK N   1      33.333  14.960  11.082  0.00  0.00    -0.776 OA
HETATM   44  H   UNK N   1      32.721  14.969  11.791  0.00  0.00     0.167 HD
ENDBRANCH  41  43
ENDBRANCH  40  41
ENDBRANCH  39  40
ENDBRANCH   8  39
BRANCH  19  45
HETATM   45  C   UNK N   1      28.201  14.439   1.704  0.00  0.00     0.004 C 
HETATM   46  C   UNK N   1      27.231  15.269   2.083  0.00  0.00     0.012 C 
ENDBRANCH  19  45
BRANCH  22  47
HETATM   47  C   UNK N   1      28.875   7.301   5.184  0.00  0.00     0.004 C 
HETATM   48  C   UNK N   1      29.047   6.489   4.143  0.00  0.00     0.012 C 
ENDBRANCH  22  47
TORSDOF 10
ENDMDL
MODEL 9
REMARK VINA RESULT:      -7.2      5.016      7.130
REMARK  10 active torsions:
REMARK  status: ('A' for Active; 'I' for Inactive)
REMARK    1  A    between atoms: C_4  and  C_32 
REMARK    2  A    between atoms: C_8  and  C_37 
REMARK    3  A    between atoms: C_19  and  C_31 
REMARK    4  A    between atoms: C_22  and  C_27 
REMARK    5  A    between atoms: C_32  and  C_33 
REMARK    6  A    between atoms: C_33  and  C_34 
REMARK    7  A    between atoms: C_34  and  O_36 
REMARK    8  A    between atoms: C_37  and  C_38 
REMARK    9  A    between atoms: C_38  and  C_39 
REMARK   10  A    between atoms: C_39  and  O_40 
ROOT
HETATM    1  C   UNK N   1      33.711  12.935   8.754  0.00  0.00     0.041 A 
HETATM    2  C   UNK N   1      33.755  14.110   8.113  0.00  0.00     0.060 A 
HETATM    3  N   UNK N   1      33.028  11.848   8.332  0.00  0.00    -0.355 N 
HETATM    4  C   UNK N   1      34.388  12.661   9.932  0.00  0.00    -0.023 A 
HETATM    5  C   UNK N   1      33.063  14.430   6.845  0.00  0.00     0.041 A 
HETATM    6  C   UNK N   1      33.277  10.880   9.246  0.00  0.00     0.041 A 
HETATM    7  C   UNK N   1      34.110  11.353  10.240  0.00  0.00    -0.027 A 
HETATM    8  C   UNK N   1      33.224  15.702   6.119  0.00  0.00    -0.023 A 
HETATM    9  N   UNK N   1      32.267  13.641   6.214  0.00  0.00    -0.355 N 
ATOM     10  HN  UNK N   1      31.997  12.700   6.499  1.00  0.00     0.166 HD
HETATM   11  C   UNK N   1      32.803   9.634   9.200  0.00  0.00     0.060 A 
HETATM   12  N   UNK N   1      30.770  11.482   4.947  0.00  0.00    -0.355 N 
HETATM   13  C   UNK N   1      32.457  15.638   5.032  0.00  0.00    -0.027 A 
HETATM   14  C   UNK N   1      31.836  14.320   5.052  0.00  0.00     0.041 A 
HETATM   15  C   UNK N   1      31.938   9.063   8.147  0.00  0.00     0.045 A 
HETATM   16  C   UNK N   1      30.176  10.363   4.474  0.00  0.00     0.045 A 
HETATM   17  C   UNK N   1      30.556  12.439   4.017  0.00  0.00     0.041 A 
HETATM   18  C   UNK N   1      31.077  13.816   4.074  0.00  0.00     0.060 A 
HETATM   19  C   UNK N   1      31.448   7.666   8.135  0.00  0.00    -0.002 A 
HETATM   20  N   UNK N   1      31.535   9.699   7.103  0.00  0.00    -0.355 N 
ATOM     21  HN  UNK N   1      31.733  10.673   6.873  1.00  0.00     0.166 HD
HETATM   22  C   UNK N   1      29.589  10.610   3.240  0.00  0.00    -0.002 A 
HETATM   23  C   UNK N   1      30.163   9.063   5.170  0.00  0.00     0.060 A 
HETATM   24  C   UNK N   1      29.830  11.933   2.960  0.00  0.00    -0.023 A 
HETATM   25  C   UNK N   1      30.736   7.513   7.021  0.00  0.00    -0.023 A 
HETATM   26  C   UNK N   1      30.765   8.797   6.335  0.00  0.00     0.041 A 
HETATM   27  C   UNK N   1      29.416  12.672   1.731  0.00  0.00     0.051 C 
HETATM   28  C   UNK N   1      30.044   6.266   6.571  0.00  0.00     0.051 C 
HETATM   29  C   UNK N   1      32.329  16.679   3.966  0.00  0.00     0.051 C 
HETATM   30  C   UNK N   1      34.628  10.591  11.416  0.00  0.00     0.051 C 
HETATM   31  H   UNK N   1      32.467  11.774   7.527  0.00  0.00     0.166 HD
HETATM   32  H   UNK N   1      31.259  11.580   5.796  0.00  0.00     0.166 HD
ENDROOT
BRANCH   4  33
HETATM   33  C   UNK N   1      35.275  13.575  10.714  0.00  0.00     0.052 C 
BRANCH  33  34
HETATM   34  C   UNK N   1      36.730  13.354  10.346  0.00  0.00     0.115 C 
BRANCH  34  35
HETATM   35  C   UNK N   1      37.423  14.665  10.176  0.00  0.00     0.139 C 
HETATM   36  O   UNK N   1      38.472  14.733   9.554  0.00  0.00    -0.650 OA
BRANCH  35  37
HETATM   37  O   UNK N   1      36.892  15.774  10.717  0.00  0.00    -0.776 OA
HETATM   38  H   UNK N   1      37.348  16.243  11.390  0.00  0.00     0.167 HD
ENDBRANCH  35  37
ENDBRANCH  34  35
ENDBRANCH  33  34
ENDBRANCH   4  33
BRANCH   8  39
HETATM   39  C   UNK N   1      34.143  16.819   6.506  0.00  0.00     0.052 C 
BRANCH  39  40
HETATM   40  C   UNK N   1      33.495  17.781   7.482  0.00  0.00     0.115 C 
BRANCH  40  41
HETATM   41  C   UNK N   1      34.464  18.096   8.570  0.00  0.00     0.139 C 
HETATM   42  O   UNK N   1      35.222  19.044   8.457  0.00  0.00    -0.650 OA
BRANCH  41  43
HETATM   43  O   UNK N   1      34.500  17.335   9.679  0.00  0.00    -0.776 OA
HETATM   44  H   UNK N   1      34.675  16.416   9.634  0.00  0.00     0.167 HD
ENDBRANCH  41  43
ENDBRANCH  40  41
ENDBRANCH  39  40
ENDBRANCH   8  39
BRANCH  19  45
HETATM   45  C   UNK N   1      31.677   6.604   9.140  0.00  0.00     0.004 C 
HETATM   46  C   UNK N   1      31.075   6.609  10.328  0.00  0.00     0.012 C 
ENDBRANCH  19  45
BRANCH  22  47
HETATM   47  C   UNK N   1      28.860   9.681   2.350  0.00  0.00     0.004 C 
HETATM   48  C   UNK N   1      27.551   9.463   2.450  0.00  0.00     0.012 C 
ENDBRANCH  22  47
TORSDOF 10
ENDMDL
