MODEL 1
REMARK VINA RESULT:      -6.4      0.000      0.000
REMARK  20 active torsions:
REMARK  status: ('A' for Active; 'I' for Inactive)
REMARK    1  A    between atoms: C_3  and  C_2 
REMARK    2  A    between atoms: C_4  and  C_3 
REMARK    3  A    between atoms: C_5  and  C_4 
REMARK    4  A    between atoms: C_6  and  C_5 
REMARK    5  A    between atoms: C_7  and  C_6 
REMARK    6  A    between atoms: C_13  and  C_7 
REMARK    7  A    between atoms: C_11  and  C_8 
REMARK    8  A    between atoms: O_21  and  C_8 
REMARK    9  A    between atoms: C_12  and  C_9 
REMARK   10  A    between atoms: O_22  and  C_9 
REMARK   11  A    between atoms: C_20  and  C_10 
REMARK   12  A    between atoms: O_23  and  C_10 
REMARK   13  A    between atoms: O_30  and  C_13 
REMARK   14  A    between atoms: C_14  and  O_25 
REMARK   15  A    between atoms: C_15  and  O_26 
REMARK   16  A    between atoms: C_16  and  O_27 
REMARK   17  A    between atoms: C_17  and  O_30 
REMARK   18  A    between atoms: C_18  and  O_28 
REMARK   19  A    between atoms: C_19  and  O_32 
REMARK   20  A    between atoms: C_20  and  O_32 
ROOT
HETATM    1  C   UNK N   1      20.822  19.176   2.011  0.00  0.00     0.179 C 
HETATM    2  C   UNK N   1      20.368  19.101   3.487  0.00  0.00     0.181 C 
HETATM    3  C   UNK N   1      21.541  16.878   3.151  0.00  0.00     0.205 C 
HETATM    4  C   UNK N   1      20.762  17.750   4.152  0.00  0.00     0.196 C 
HETATM    5  C   UNK N   1      20.771  16.790   1.798  0.00  0.00     0.295 C 
HETATM    6  O   UNK N   1      20.340  18.055   1.280  0.00  0.00    -0.348 OA
ENDROOT
BRANCH   5   7
HETATM    7  O   UNK N   1      19.622  15.954   1.946  0.00  0.00    -0.318 OA
BRANCH   7   8
HETATM    8  C   UNK N   1      19.746  14.664   1.334  0.00  0.00     0.217 C 
HETATM    9  C   UNK N   1      19.631  13.512   2.355  0.00  0.00     0.214 C 
HETATM   10  C   UNK N   1      20.561  12.430   1.808  0.00  0.00     0.183 C 
HETATM   11  C   UNK N   1      21.185  13.127   0.598  0.00  0.00     0.180 C 
HETATM   12  O   UNK N   1      21.067  14.517   0.835  0.00  0.00    -0.341 OA
BRANCH   8  13
HETATM   13  C   UNK N   1      18.761  14.523   0.145  0.00  0.00     0.235 C 
BRANCH  13  14
HETATM   14  O   UNK N   1      18.103  15.732  -0.089  0.00  0.00    -0.395 OA
HETATM   15  H   UNK N   1      17.141  15.803   0.014  0.00  0.00     0.209 HD
ENDBRANCH  13  14
ENDBRANCH   8  13
BRANCH   9  16
HETATM   16  O   UNK N   1      18.326  13.050   2.548  0.00  0.00    -0.387 OA
HETATM   17  H   UNK N   1      17.678  12.345   2.705  0.00  0.00     0.210 HD
ENDBRANCH   9  16
BRANCH  10  18
HETATM   18  O   UNK N   1      21.534  12.137   2.774  0.00  0.00    -0.390 OA
HETATM   19  H   UNK N   1      21.694  12.051   3.726  0.00  0.00     0.210 HD
ENDBRANCH  10  18
BRANCH  11  20
HETATM   20  C   UNK N   1      22.618  12.711   0.283  0.00  0.00     0.198 C 
BRANCH  20  21
HETATM   21  O   UNK N   1      23.410  13.842   0.071  0.00  0.00    -0.398 OA
HETATM   22  H   UNK N   1      23.567  14.261  -0.789  0.00  0.00     0.209 HD
ENDBRANCH  20  21
ENDBRANCH  11  20
ENDBRANCH   7   8
ENDBRANCH   5   7
BRANCH   3  23
HETATM   23  O   UNK N   1      21.794  15.613   3.674  0.00  0.00    -0.388 OA
HETATM   24  H   UNK N   1      22.678  15.292   3.915  0.00  0.00     0.210 HD
ENDBRANCH   3  23
BRANCH   4  25
HETATM   25  O   UNK N   1      21.535  17.987   5.281  0.00  0.00    -0.310 OA
BRANCH  25  26
HETATM   26  C   UNK N   1      21.133  17.845   6.569  0.00  0.00     0.259 C 
HETATM   27  O   UNK N   1      20.817  18.841   7.201  0.00  0.00    -0.265 OA
BRANCH  26  28
HETATM   28  C   UNK N   1      21.053  16.499   7.230  0.00  0.00     0.111 C 
BRANCH  28  29
HETATM   29  C   UNK N   1      20.315  16.577   8.559  0.00  0.00     0.010 C 
BRANCH  29  30
HETATM   30  C   UNK N   1      20.125  15.199   9.171  0.00  0.00     0.000 C 
BRANCH  30  31
HETATM   31  C   UNK N   1      21.269  14.284   8.784  0.00  0.00     0.000 C 
BRANCH  31  32
HETATM   32  C   UNK N   1      21.296  13.082   9.709  0.00  0.00    -0.000 C 
BRANCH  32  33
HETATM   33  C   UNK N   1      22.671  12.926  10.335  0.00  0.00    -0.005 C 
HETATM   34  C   UNK N   1      22.592  12.064  11.580  0.00  0.00     0.005 C 
ENDBRANCH  32  33
ENDBRANCH  31  32
ENDBRANCH  30  31
ENDBRANCH  29  30
ENDBRANCH  28  29
ENDBRANCH  26  28
ENDBRANCH  25  26
ENDBRANCH   4  25
BRANCH   1  35
HETATM   35  C   UNK N   1      20.300  20.459   1.377  0.00  0.00     0.198 C 
BRANCH  35  36
HETATM   36  O   UNK N   1      20.646  20.508   0.026  0.00  0.00    -0.398 OA
HETATM   37  H   UNK N   1      21.195  21.161  -0.437  0.00  0.00     0.209 HD
ENDBRANCH  35  36
ENDBRANCH   1  35
BRANCH   2  38
HETATM   38  O   UNK N   1      20.894  20.188   4.197  0.00  0.00    -0.390 OA
HETATM   39  H   UNK N   1      21.100  21.016   3.734  0.00  0.00     0.210 HD
ENDBRANCH   2  38
TORSDOF 20
ENDMDL
MODEL 2
REMARK VINA RESULT:      -6.3      3.772      6.304
REMARK  20 active torsions:
REMARK  status: ('A' for Active; 'I' for Inactive)
REMARK    1  A    between atoms: C_3  and  C_2 
REMARK    2  A    between atoms: C_4  and  C_3 
REMARK    3  A    between atoms: C_5  and  C_4 
REMARK    4  A    between atoms: C_6  and  C_5 
REMARK    5  A    between atoms: C_7  and  C_6 
REMARK    6  A    between atoms: C_13  and  C_7 
REMARK    7  A    between atoms: C_11  and  C_8 
REMARK    8  A    between atoms: O_21  and  C_8 
REMARK    9  A    between atoms: C_12  and  C_9 
REMARK   10  A    between atoms: O_22  and  C_9 
REMARK   11  A    between atoms: C_20  and  C_10 
REMARK   12  A    between atoms: O_23  and  C_10 
REMARK   13  A    between atoms: O_30  and  C_13 
REMARK   14  A    between atoms: C_14  and  O_25 
REMARK   15  A    between atoms: C_15  and  O_26 
REMARK   16  A    between atoms: C_16  and  O_27 
REMARK   17  A    between atoms: C_17  and  O_30 
REMARK   18  A    between atoms: C_18  and  O_28 
REMARK   19  A    between atoms: C_19  and  O_32 
REMARK   20  A    between atoms: C_20  and  O_32 
ROOT
HETATM    1  C   UNK N   1      21.263  19.213   3.951  0.00  0.00     0.179 C 
HETATM    2  C   UNK N   1      21.223  17.756   3.436  0.00  0.00     0.181 C 
HETATM    3  C   UNK N   1      22.931  17.641   5.307  0.00  0.00     0.205 C 
HETATM    4  C   UNK N   1      22.215  16.837   4.208  0.00  0.00     0.196 C 
HETATM    5  C   UNK N   1      23.519  18.958   4.717  0.00  0.00     0.295 C 
HETATM    6  O   UNK N   1      22.593  19.717   3.928  0.00  0.00    -0.348 OA
ENDROOT
BRANCH   5   7
HETATM    7  O   UNK N   1      24.657  18.662   3.906  0.00  0.00    -0.318 OA
BRANCH   7   8
HETATM    8  C   UNK N   1      25.788  19.510   4.141  0.00  0.00     0.217 C 
HETATM    9  C   UNK N   1      27.032  18.720   4.602  0.00  0.00     0.214 C 
HETATM   10  C   UNK N   1      27.751  19.674   5.556  0.00  0.00     0.183 C 
HETATM   11  C   UNK N   1      26.782  20.855   5.617  0.00  0.00     0.180 C 
HETATM   12  O   UNK N   1      25.512  20.347   5.254  0.00  0.00    -0.341 OA
BRANCH   8  13
HETATM   13  C   UNK N   1      26.063  20.414   2.912  0.00  0.00     0.235 C 
BRANCH  13  14
HETATM   14  O   UNK N   1      24.862  20.823   2.329  0.00  0.00    -0.395 OA
HETATM   15  H   UNK N   1      24.858  21.385   1.539  0.00  0.00     0.209 HD
ENDBRANCH  13  14
ENDBRANCH   8  13
BRANCH   9  16
HETATM   16  O   UNK N   1      27.853  18.288   3.556  0.00  0.00    -0.387 OA
HETATM   17  H   UNK N   1      28.077  17.680   2.834  0.00  0.00     0.210 HD
ENDBRANCH   9  16
BRANCH  10  18
HETATM   18  O   UNK N   1      27.870  19.058   6.809  0.00  0.00    -0.390 OA
HETATM   19  H   UNK N   1      27.750  18.223   7.289  0.00  0.00     0.210 HD
ENDBRANCH  10  18
BRANCH  11  20
HETATM   20  C   UNK N   1      26.751  21.595   6.950  0.00  0.00     0.198 C 
BRANCH  20  21
HETATM   21  O   UNK N   1      25.993  20.879   7.879  0.00  0.00    -0.398 OA
HETATM   22  H   UNK N   1      26.296  20.613   8.761  0.00  0.00     0.209 HD
ENDBRANCH  20  21
ENDBRANCH  11  20
ENDBRANCH   7   8
ENDBRANCH   5   7
BRANCH   3  23
HETATM   23  O   UNK N   1      23.918  16.878   5.929  0.00  0.00    -0.388 OA
HETATM   24  H   UNK N   1      23.798  15.955   6.204  0.00  0.00     0.210 HD
ENDBRANCH   3  23
BRANCH   4  25
HETATM   25  O   UNK N   1      21.528  15.767   4.769  0.00  0.00    -0.310 OA
BRANCH  25  26
HETATM   26  C   UNK N   1      20.940  15.747   5.991  0.00  0.00     0.259 C 
HETATM   27  O   UNK N   1      19.933  16.414   6.171  0.00  0.00    -0.265 OA
BRANCH  26  28
HETATM   28  C   UNK N   1      21.486  14.919   7.119  0.00  0.00     0.111 C 
BRANCH  28  29
HETATM   29  C   UNK N   1      21.004  15.434   8.468  0.00  0.00     0.010 C 
BRANCH  29  30
HETATM   30  C   UNK N   1      20.520  14.300   9.356  0.00  0.00     0.000 C 
BRANCH  30  31
HETATM   31  C   UNK N   1      21.415  13.087   9.201  0.00  0.00     0.000 C 
BRANCH  31  32
HETATM   32  C   UNK N   1      22.018  12.723  10.546  0.00  0.00    -0.000 C 
BRANCH  32  33
HETATM   33  C   UNK N   1      23.083  11.654  10.376  0.00  0.00    -0.005 C 
HETATM   34  C   UNK N   1      24.465  12.250  10.564  0.00  0.00     0.005 C 
ENDBRANCH  32  33
ENDBRANCH  31  32
ENDBRANCH  30  31
ENDBRANCH  29  30
ENDBRANCH  28  29
ENDBRANCH  26  28
ENDBRANCH  25  26
ENDBRANCH   4  25
BRANCH   1  35
HETATM   35  C   UNK N   1      20.373  20.090   3.080  0.00  0.00     0.198 C 
BRANCH  35  36
HETATM   36  O   UNK N   1      20.917  21.370   2.963  0.00  0.00    -0.398 OA
HETATM   37  H   UNK N   1      21.644  21.768   3.466  0.00  0.00     0.209 HD
ENDBRANCH  35  36
ENDBRANCH   1  35
BRANCH   2  38
HETATM   38  O   UNK N   1      19.913  17.266   3.513  0.00  0.00    -0.390 OA
HETATM   39  H   UNK N   1      19.170  17.880   3.621  0.00  0.00     0.210 HD
ENDBRANCH   2  38
TORSDOF 20
ENDMDL
MODEL 3
REMARK VINA RESULT:      -6.3      3.867      7.515
REMARK  20 active torsions:
REMARK  status: ('A' for Active; 'I' for Inactive)
REMARK    1  A    between atoms: C_3  and  C_2 
REMARK    2  A    between atoms: C_4  and  C_3 
REMARK    3  A    between atoms: C_5  and  C_4 
REMARK    4  A    between atoms: C_6  and  C_5 
REMARK    5  A    between atoms: C_7  and  C_6 
REMARK    6  A    between atoms: C_13  and  C_7 
REMARK    7  A    between atoms: C_11  and  C_8 
REMARK    8  A    between atoms: O_21  and  C_8 
REMARK    9  A    between atoms: C_12  and  C_9 
REMARK   10  A    between atoms: O_22  and  C_9 
REMARK   11  A    between atoms: C_20  and  C_10 
REMARK   12  A    between atoms: O_23  and  C_10 
REMARK   13  A    between atoms: O_30  and  C_13 
REMARK   14  A    between atoms: C_14  and  O_25 
REMARK   15  A    between atoms: C_15  and  O_26 
REMARK   16  A    between atoms: C_16  and  O_27 
REMARK   17  A    between atoms: C_17  and  O_30 
REMARK   18  A    between atoms: C_18  and  O_28 
REMARK   19  A    between atoms: C_19  and  O_32 
REMARK   20  A    between atoms: C_20  and  O_32 
ROOT
HETATM    1  C   UNK N   1      21.381  19.378   3.729  0.00  0.00     0.179 C 
HETATM    2  C   UNK N   1      21.328  17.971   3.089  0.00  0.00     0.181 C 
HETATM    3  C   UNK N   1      22.928  17.644   5.029  0.00  0.00     0.205 C 
HETATM    4  C   UNK N   1      22.251  16.958   3.830  0.00  0.00     0.196 C 
HETATM    5  C   UNK N   1      23.584  18.987   4.585  0.00  0.00     0.295 C 
HETATM    6  O   UNK N   1      22.723  19.838   3.818  0.00  0.00    -0.348 OA
ENDROOT
BRANCH   5   7
HETATM    7  O   UNK N   1      24.756  18.723   3.811  0.00  0.00    -0.318 OA
BRANCH   7   8
HETATM    8  C   UNK N   1      25.864  19.581   4.106  0.00  0.00     0.217 C 
HETATM    9  C   UNK N   1      27.106  18.798   4.584  0.00  0.00     0.214 C 
HETATM   10  C   UNK N   1      27.779  19.737   5.586  0.00  0.00     0.183 C 
HETATM   11  C   UNK N   1      26.789  20.900   5.649  0.00  0.00     0.180 C 
HETATM   12  O   UNK N   1      25.540  20.382   5.232  0.00  0.00    -0.341 OA
BRANCH   8  13
HETATM   13  C   UNK N   1      26.163  20.523   2.911  0.00  0.00     0.235 C 
BRANCH  13  14
HETATM   14  O   UNK N   1      24.985  20.831   2.227  0.00  0.00    -0.395 OA
HETATM   15  H   UNK N   1      24.940  21.596   1.633  0.00  0.00     0.209 HD
ENDBRANCH  13  14
ENDBRANCH   8  13
BRANCH   9  16
HETATM   16  O   UNK N   1      27.966  18.409   3.554  0.00  0.00    -0.387 OA
HETATM   17  H   UNK N   1      28.807  18.456   3.071  0.00  0.00     0.210 HD
ENDBRANCH   9  16
BRANCH  10  18
HETATM   18  O   UNK N   1      27.868  19.088   6.826  0.00  0.00    -0.390 OA
HETATM   19  H   UNK N   1      27.477  18.394   7.379  0.00  0.00     0.210 HD
ENDBRANCH  10  18
BRANCH  11  20
HETATM   20  C   UNK N   1      26.704  21.602   7.000  0.00  0.00     0.198 C 
BRANCH  20  21
HETATM   21  O   UNK N   1      25.989  20.815   7.906  0.00  0.00    -0.398 OA
HETATM   22  H   UNK N   1      26.283  19.959   8.255  0.00  0.00     0.209 HD
ENDBRANCH  20  21
ENDBRANCH  11  20
ENDBRANCH   7   8
ENDBRANCH   5   7
BRANCH   3  23
HETATM   23  O   UNK N   1      23.858  16.800   5.633  0.00  0.00    -0.388 OA
HETATM   24  H   UNK N   1      23.689  15.868   5.844  0.00  0.00     0.210 HD
ENDBRANCH   3  23
BRANCH   4  25
HETATM   25  O   UNK N   1      21.505  15.868   4.260  0.00  0.00    -0.310 OA
BRANCH  25  26
HETATM   26  C   UNK N   1      21.768  14.564   3.994  0.00  0.00     0.259 C 
HETATM   27  O   UNK N   1      22.840  14.096   4.345  0.00  0.00    -0.265 OA
BRANCH  26  28
HETATM   28  C   UNK N   1      20.774  13.683   3.293  0.00  0.00     0.111 C 
BRANCH  28  29
HETATM   29  C   UNK N   1      20.306  14.307   1.986  0.00  0.00     0.010 C 
BRANCH  29  30
HETATM   30  C   UNK N   1      21.457  14.479   1.009  0.00  0.00     0.000 C 
BRANCH  30  31
HETATM   31  C   UNK N   1      21.903  13.134   0.472  0.00  0.00     0.000 C 
BRANCH  31  32
HETATM   32  C   UNK N   1      23.402  12.985   0.651  0.00  0.00    -0.000 C 
BRANCH  32  33
HETATM   33  C   UNK N   1      24.054  14.346   0.813  0.00  0.00    -0.005 C 
HETATM   34  C   UNK N   1      25.226  14.262   1.772  0.00  0.00     0.005 C 
ENDBRANCH  32  33
ENDBRANCH  31  32
ENDBRANCH  30  31
ENDBRANCH  29  30
ENDBRANCH  28  29
ENDBRANCH  26  28
ENDBRANCH  25  26
ENDBRANCH   4  25
BRANCH   1  35
HETATM   35  C   UNK N   1      20.563  20.353   2.891  0.00  0.00     0.198 C 
BRANCH  35  36
HETATM   36  O   UNK N   1      21.293  21.518   2.652  0.00  0.00    -0.398 OA
HETATM   37  H   UNK N   1      22.227  21.699   2.845  0.00  0.00     0.209 HD
ENDBRANCH  35  36
ENDBRANCH   1  35
BRANCH   2  38
HETATM   38  O   UNK N   1      20.002  17.519   3.056  0.00  0.00    -0.390 OA
HETATM   39  H   UNK N   1      19.277  18.149   2.916  0.00  0.00     0.210 HD
ENDBRANCH   2  38
TORSDOF 20
ENDMDL
MODEL 4
REMARK VINA RESULT:      -6.3     13.593     16.927
REMARK  20 active torsions:
REMARK  status: ('A' for Active; 'I' for Inactive)
REMARK    1  A    between atoms: C_3  and  C_2 
REMARK    2  A    between atoms: C_4  and  C_3 
REMARK    3  A    between atoms: C_5  and  C_4 
REMARK    4  A    between atoms: C_6  and  C_5 
REMARK    5  A    between atoms: C_7  and  C_6 
REMARK    6  A    between atoms: C_13  and  C_7 
REMARK    7  A    between atoms: C_11  and  C_8 
REMARK    8  A    between atoms: O_21  and  C_8 
REMARK    9  A    between atoms: C_12  and  C_9 
REMARK   10  A    between atoms: O_22  and  C_9 
REMARK   11  A    between atoms: C_20  and  C_10 
REMARK   12  A    between atoms: O_23  and  C_10 
REMARK   13  A    between atoms: O_30  and  C_13 
REMARK   14  A    between atoms: C_14  and  O_25 
REMARK   15  A    between atoms: C_15  and  O_26 
REMARK   16  A    between atoms: C_16  and  O_27 
REMARK   17  A    between atoms: C_17  and  O_30 
REMARK   18  A    between atoms: C_18  and  O_28 
REMARK   19  A    between atoms: C_19  and  O_32 
REMARK   20  A    between atoms: C_20  and  O_32 
ROOT
HETATM    1  C   UNK N   1      34.142  12.533   9.203  0.00  0.00     0.179 C 
HETATM    2  C   UNK N   1      33.589  13.971   9.076  0.00  0.00     0.181 C 
HETATM    3  C   UNK N   1      35.818  14.329  10.230  0.00  0.00     0.205 C 
HETATM    4  C   UNK N   1      34.553  15.024   9.698  0.00  0.00     0.196 C 
HETATM    5  C   UNK N   1      35.432  13.120  11.135  0.00  0.00     0.295 C 
HETATM    6  O   UNK N   1      34.463  12.236  10.557  0.00  0.00    -0.348 OA
ENDROOT
BRANCH   5   7
HETATM    7  O   UNK N   1      34.918  13.591  12.382  0.00  0.00    -0.318 OA
BRANCH   7   8
HETATM    8  C   UNK N   1      35.501  12.970  13.534  0.00  0.00     0.217 C 
HETATM    9  C   UNK N   1      36.531  11.883  13.161  0.00  0.00     0.214 C 
HETATM   10  C   UNK N   1      36.395  10.839  14.269  0.00  0.00     0.183 C 
HETATM   11  C   UNK N   1      35.229  11.393  15.088  0.00  0.00     0.180 C 
HETATM   12  O   UNK N   1      34.497  12.235  14.218  0.00  0.00    -0.341 OA
BRANCH   8  13
HETATM   13  C   UNK N   1      36.068  14.036  14.506  0.00  0.00     0.235 C 
BRANCH  13  14
HETATM   14  O   UNK N   1      36.777  15.011  13.801  0.00  0.00    -0.395 OA
HETATM   15  H   UNK N   1      36.679  15.952  14.016  0.00  0.00     0.209 HD
ENDBRANCH  13  14
ENDBRANCH   8  13
BRANCH   9  16
HETATM   16  O   UNK N   1      37.839  12.358  13.029  0.00  0.00    -0.387 OA
HETATM   17  H   UNK N   1      38.802  12.248  13.072  0.00  0.00     0.210 HD
ENDBRANCH   9  16
BRANCH  10  18
HETATM   18  O   UNK N   1      36.061   9.606  13.692  0.00  0.00    -0.390 OA
HETATM   19  H   UNK N   1      36.181   9.047  12.909  0.00  0.00     0.210 HD
ENDBRANCH  10  18
BRANCH  11  20
HETATM   20  C   UNK N   1      34.349  10.339  15.751  0.00  0.00     0.198 C 
BRANCH  20  21
HETATM   21  O   UNK N   1      35.135   9.454  16.493  0.00  0.00    -0.398 OA
HETATM   22  H   UNK N   1      35.408   9.587  17.414  0.00  0.00     0.209 HD
ENDBRANCH  20  21
ENDBRANCH  11  20
ENDBRANCH   7   8
ENDBRANCH   5   7
BRANCH   3  23
HETATM   23  O   UNK N   1      36.641  15.228  10.907  0.00  0.00    -0.388 OA
HETATM   24  H   UNK N   1      37.519  15.500  10.596  0.00  0.00     0.210 HD
ENDBRANCH   3  23
BRANCH   4  25
HETATM   25  O   UNK N   1      34.894  15.973   8.743  0.00  0.00    -0.310 OA
BRANCH  25  26
HETATM   26  C   UNK N   1      34.854  17.320   8.905  0.00  0.00     0.259 C 
HETATM   27  O   UNK N   1      35.324  17.805   9.922  0.00  0.00    -0.265 OA
BRANCH  26  28
HETATM   28  C   UNK N   1      34.262  18.225   7.862  0.00  0.00     0.111 C 
BRANCH  28  29
HETATM   29  C   UNK N   1      32.875  17.756   7.446  0.00  0.00     0.010 C 
BRANCH  29  30
HETATM   30  C   UNK N   1      31.866  17.937   8.568  0.00  0.00     0.000 C 
BRANCH  30  31
HETATM   31  C   UNK N   1      30.825  16.837   8.526  0.00  0.00     0.000 C 
BRANCH  31  32
HETATM   32  C   UNK N   1      29.467  17.405   8.895  0.00  0.00    -0.000 C 
BRANCH  32  33
HETATM   33  C   UNK N   1      28.641  17.654   7.646  0.00  0.00    -0.005 C 
HETATM   34  C   UNK N   1      28.222  19.110   7.569  0.00  0.00     0.005 C 
ENDBRANCH  32  33
ENDBRANCH  31  32
ENDBRANCH  30  31
ENDBRANCH  29  30
ENDBRANCH  28  29
ENDBRANCH  26  28
ENDBRANCH  25  26
ENDBRANCH   4  25
BRANCH   1  35
HETATM   35  C   UNK N   1      33.105  11.537   8.697  0.00  0.00     0.198 C 
BRANCH  35  36
HETATM   36  O   UNK N   1      32.095  11.365   9.644  0.00  0.00    -0.398 OA
HETATM   37  H   UNK N   1      31.308  11.911   9.798  0.00  0.00     0.209 HD
ENDBRANCH  35  36
ENDBRANCH   1  35
BRANCH   2  38
HETATM   38  O   UNK N   1      33.325  14.257   7.731  0.00  0.00    -0.390 OA
HETATM   39  H   UNK N   1      32.602  14.859   7.494  0.00  0.00     0.210 HD
ENDBRANCH   2  38
TORSDOF 20
ENDMDL
MODEL 5
REMARK VINA RESULT:      -6.3     13.948     16.596
REMARK  20 active torsions:
REMARK  status: ('A' for Active; 'I' for Inactive)
REMARK    1  A    between atoms: C_3  and  C_2 
REMARK    2  A    between atoms: C_4  and  C_3 
REMARK    3  A    between atoms: C_5  and  C_4 
REMARK    4  A    between atoms: C_6  and  C_5 
REMARK    5  A    between atoms: C_7  and  C_6 
REMARK    6  A    between atoms: C_13  and  C_7 
REMARK    7  A    between atoms: C_11  and  C_8 
REMARK    8  A    between atoms: O_21  and  C_8 
REMARK    9  A    between atoms: C_12  and  C_9 
REMARK   10  A    between atoms: O_22  and  C_9 
REMARK   11  A    between atoms: C_20  and  C_10 
REMARK   12  A    between atoms: O_23  and  C_10 
REMARK   13  A    between atoms: O_30  and  C_13 
REMARK   14  A    between atoms: C_14  and  O_25 
REMARK   15  A    between atoms: C_15  and  O_26 
REMARK   16  A    between atoms: C_16  and  O_27 
REMARK   17  A    between atoms: C_17  and  O_30 
REMARK   18  A    between atoms: C_18  and  O_28 
REMARK   19  A    between atoms: C_19  and  O_32 
REMARK   20  A    between atoms: C_20  and  O_32 
ROOT
HETATM    1  C   UNK N   1      36.914  13.679   9.370  0.00  0.00     0.179 C 
HETATM    2  C   UNK N   1      37.223  14.182  10.799  0.00  0.00     0.181 C 
HETATM    3  C   UNK N   1      34.707  14.457  10.641  0.00  0.00     0.205 C 
HETATM    4  C   UNK N   1      35.939  14.663  11.538  0.00  0.00     0.196 C 
HETATM    5  C   UNK N   1      34.961  15.060   9.226  0.00  0.00     0.295 C 
HETATM    6  O   UNK N   1      36.205  14.667   8.632  0.00  0.00    -0.348 OA
ENDROOT
BRANCH   5   7
HETATM    7  O   UNK N   1      34.929  16.486   9.292  0.00  0.00    -0.318 OA
BRANCH   7   8
HETATM    8  C   UNK N   1      34.157  17.110   8.259  0.00  0.00     0.217 C 
HETATM    9  C   UNK N   1      32.673  16.687   8.295  0.00  0.00     0.214 C 
HETATM   10  C   UNK N   1      32.246  16.687   6.827  0.00  0.00     0.183 C 
HETATM   11  C   UNK N   1      33.560  17.000   6.112  0.00  0.00     0.180 C 
HETATM   12  O   UNK N   1      34.596  16.623   6.999  0.00  0.00    -0.341 OA
BRANCH   8  13
HETATM   13  C   UNK N   1      34.352  18.648   8.278  0.00  0.00     0.235 C 
BRANCH  13  14
HETATM   14  O   UNK N   1      35.524  18.982   8.959  0.00  0.00    -0.395 OA
HETATM   15  H   UNK N   1      35.654  19.873   9.320  0.00  0.00     0.209 HD
ENDBRANCH  13  14
ENDBRANCH   8  13
BRANCH   9  16
HETATM   16  O   UNK N   1      31.865  17.509   9.087  0.00  0.00    -0.387 OA
HETATM   17  H   UNK N   1      31.671  17.989   9.907  0.00  0.00     0.210 HD
ENDBRANCH   9  16
BRANCH  10  18
HETATM   18  O   UNK N   1      31.786  15.406   6.490  0.00  0.00    -0.390 OA
HETATM   19  H   UNK N   1      31.914  14.659   5.884  0.00  0.00     0.210 HD
ENDBRANCH  10  18
BRANCH  11  20
HETATM   20  C   UNK N   1      33.714  16.362   4.736  0.00  0.00     0.198 C 
BRANCH  20  21
HETATM   21  O   UNK N   1      32.594  16.642   3.949  0.00  0.00    -0.398 OA
HETATM   22  H   UNK N   1      31.734  16.936   4.287  0.00  0.00     0.209 HD
ENDBRANCH  20  21
ENDBRANCH  11  20
ENDBRANCH   7   8
ENDBRANCH   5   7
BRANCH   3  23
HETATM   23  O   UNK N   1      33.562  14.996  11.224  0.00  0.00    -0.388 OA
HETATM   24  H   UNK N   1      32.676  14.941  10.833  0.00  0.00     0.210 HD
ENDBRANCH   3  23
BRANCH   4  25
HETATM   25  O   UNK N   1      35.789  13.960  12.727  0.00  0.00    -0.310 OA
BRANCH  25  26
HETATM   26  C   UNK N   1      36.274  14.327  13.940  0.00  0.00     0.259 C 
HETATM   27  O   UNK N   1      36.660  15.475  14.097  0.00  0.00    -0.265 OA
BRANCH  26  28
HETATM   28  C   UNK N   1      36.336  13.365  15.092  0.00  0.00     0.111 C 
BRANCH  28  29
HETATM   29  C   UNK N   1      34.948  13.078  15.647  0.00  0.00     0.010 C 
BRANCH  29  30
HETATM   30  C   UNK N   1      35.021  12.336  16.972  0.00  0.00     0.000 C 
BRANCH  30  31
HETATM   31  C   UNK N   1      35.258  13.308  18.110  0.00  0.00     0.000 C 
BRANCH  31  32
HETATM   32  C   UNK N   1      35.209  12.566  19.433  0.00  0.00    -0.000 C 
BRANCH  32  33
HETATM   33  C   UNK N   1      35.740  11.154  19.268  0.00  0.00    -0.005 C 
HETATM   34  C   UNK N   1      36.543  10.743  20.488  0.00  0.00     0.005 C 
ENDBRANCH  32  33
ENDBRANCH  31  32
ENDBRANCH  30  31
ENDBRANCH  29  30
ENDBRANCH  28  29
ENDBRANCH  26  28
ENDBRANCH  25  26
ENDBRANCH   4  25
BRANCH   1  35
HETATM   35  C   UNK N   1      38.215  13.344   8.651  0.00  0.00     0.198 C 
BRANCH  35  36
HETATM   36  O   UNK N   1      38.124  13.683   7.300  0.00  0.00    -0.398 OA
HETATM   37  H   UNK N   1      37.347  13.975   6.799  0.00  0.00     0.209 HD
ENDBRANCH  35  36
ENDBRANCH   1  35
BRANCH   2  38
HETATM   38  O   UNK N   1      37.877  13.176  11.520  0.00  0.00    -0.390 OA
HETATM   39  H   UNK N   1      37.375  12.422  11.868  0.00  0.00     0.210 HD
ENDBRANCH   2  38
TORSDOF 20
ENDMDL
MODEL 6
REMARK VINA RESULT:      -6.2      3.921      6.731
REMARK  20 active torsions:
REMARK  status: ('A' for Active; 'I' for Inactive)
REMARK    1  A    between atoms: C_3  and  C_2 
REMARK    2  A    between atoms: C_4  and  C_3 
REMARK    3  A    between atoms: C_5  and  C_4 
REMARK    4  A    between atoms: C_6  and  C_5 
REMARK    5  A    between atoms: C_7  and  C_6 
REMARK    6  A    between atoms: C_13  and  C_7 
REMARK    7  A    between atoms: C_11  and  C_8 
REMARK    8  A    between atoms: O_21  and  C_8 
REMARK    9  A    between atoms: C_12  and  C_9 
REMARK   10  A    between atoms: O_22  and  C_9 
REMARK   11  A    between atoms: C_20  and  C_10 
REMARK   12  A    between atoms: O_23  and  C_10 
REMARK   13  A    between atoms: O_30  and  C_13 
REMARK   14  A    between atoms: C_14  and  O_25 
REMARK   15  A    between atoms: C_15  and  O_26 
REMARK   16  A    between atoms: C_16  and  O_27 
REMARK   17  A    between atoms: C_17  and  O_30 
REMARK   18  A    between atoms: C_18  and  O_28 
REMARK   19  A    between atoms: C_19  and  O_32 
REMARK   20  A    between atoms: C_20  and  O_32 
ROOT
HETATM    1  C   UNK N   1      21.276  19.087   3.674  0.00  0.00     0.179 C 
HETATM    2  C   UNK N   1      21.352  17.602   3.251  0.00  0.00     0.181 C 
HETATM    3  C   UNK N   1      23.009  17.723   5.167  0.00  0.00     0.205 C 
HETATM    4  C   UNK N   1      22.383  16.805   4.103  0.00  0.00     0.196 C 
HETATM    5  C   UNK N   1      23.520  19.041   4.510  0.00  0.00     0.295 C 
HETATM    6  O   UNK N   1      22.567  19.683   3.653  0.00  0.00    -0.348 OA
ENDROOT
BRANCH   5   7
HETATM    7  O   UNK N   1      24.700  18.778   3.748  0.00  0.00    -0.318 OA
BRANCH   7   8
HETATM    8  C   UNK N   1      25.823  19.596   4.095  0.00  0.00     0.217 C 
HETATM    9  C   UNK N   1      27.008  18.771   4.642  0.00  0.00     0.214 C 
HETATM   10  C   UNK N   1      27.663  19.690   5.673  0.00  0.00     0.183 C 
HETATM   11  C   UNK N   1      26.716  20.890   5.678  0.00  0.00     0.180 C 
HETATM   12  O   UNK N   1      25.471  20.417   5.199  0.00  0.00    -0.341 OA
BRANCH   8  13
HETATM   13  C   UNK N   1      26.219  20.518   2.913  0.00  0.00     0.235 C 
BRANCH  13  14
HETATM   14  O   UNK N   1      25.085  20.904   2.195  0.00  0.00    -0.395 OA
HETATM   15  H   UNK N   1      24.325  21.307   2.643  0.00  0.00     0.209 HD
ENDBRANCH  13  14
ENDBRANCH   8  13
BRANCH   9  16
HETATM   16  O   UNK N   1      27.905  18.342   3.659  0.00  0.00    -0.387 OA
HETATM   17  H   UNK N   1      28.121  17.873   2.838  0.00  0.00     0.210 HD
ENDBRANCH   9  16
BRANCH  10  18
HETATM   18  O   UNK N   1      27.663  19.047   6.918  0.00  0.00    -0.390 OA
HETATM   19  H   UNK N   1      27.201  18.393   7.465  0.00  0.00     0.210 HD
ENDBRANCH  10  18
BRANCH  11  20
HETATM   20  C   UNK N   1      26.588  21.604   7.020  0.00  0.00     0.198 C 
BRANCH  20  21
HETATM   21  O   UNK N   1      25.816  20.840   7.898  0.00  0.00    -0.398 OA
HETATM   22  H   UNK N   1      26.131  20.063   8.386  0.00  0.00     0.209 HD
ENDBRANCH  20  21
ENDBRANCH  11  20
ENDBRANCH   7   8
ENDBRANCH   5   7
BRANCH   3  23
HETATM   23  O   UNK N   1      24.027  17.073   5.860  0.00  0.00    -0.388 OA
HETATM   24  H   UNK N   1      24.972  17.191   5.673  0.00  0.00     0.210 HD
ENDBRANCH   3  23
BRANCH   4  25
HETATM   25  O   UNK N   1      21.756  15.725   4.713  0.00  0.00    -0.310 OA
BRANCH  25  26
HETATM   26  C   UNK N   1      21.463  15.612   6.033  0.00  0.00     0.259 C 
HETATM   27  O   UNK N   1      22.253  15.038   6.765  0.00  0.00    -0.265 OA
BRANCH  26  28
HETATM   28  C   UNK N   1      20.202  16.184   6.615  0.00  0.00     0.111 C 
BRANCH  28  29
HETATM   29  C   UNK N   1      20.357  16.463   8.103  0.00  0.00     0.010 C 
BRANCH  29  30
HETATM   30  C   UNK N   1      19.091  16.118   8.869  0.00  0.00     0.000 C 
BRANCH  30  31
HETATM   31  C   UNK N   1      18.413  17.379   9.368  0.00  0.00     0.000 C 
BRANCH  31  32
HETATM   32  C   UNK N   1      19.422  18.512   9.424  0.00  0.00    -0.000 C 
BRANCH  32  33
HETATM   33  C   UNK N   1      19.105  19.445  10.579  0.00  0.00    -0.005 C 
HETATM   34  C   UNK N   1      17.786  19.063  11.223  0.00  0.00     0.005 C 
ENDBRANCH  32  33
ENDBRANCH  31  32
ENDBRANCH  30  31
ENDBRANCH  29  30
ENDBRANCH  28  29
ENDBRANCH  26  28
ENDBRANCH  25  26
ENDBRANCH   4  25
BRANCH   1  35
HETATM   35  C   UNK N   1      20.352  19.844   2.728  0.00  0.00     0.198 C 
BRANCH  35  36
HETATM   36  O   UNK N   1      20.382  19.269   1.457  0.00  0.00    -0.398 OA
HETATM   37  H   UNK N   1      20.810  19.599   0.651  0.00  0.00     0.209 HD
ENDBRANCH  35  36
ENDBRANCH   1  35
BRANCH   2  38
HETATM   38  O   UNK N   1      20.078  17.026   3.326  0.00  0.00    -0.390 OA
HETATM   39  H   UNK N   1      19.927  16.253   3.893  0.00  0.00     0.210 HD
ENDBRANCH   2  38
TORSDOF 20
ENDMDL
MODEL 7
REMARK VINA RESULT:      -6.2     13.849     16.828
REMARK  20 active torsions:
REMARK  status: ('A' for Active; 'I' for Inactive)
REMARK    1  A    between atoms: C_3  and  C_2 
REMARK    2  A    between atoms: C_4  and  C_3 
REMARK    3  A    between atoms: C_5  and  C_4 
REMARK    4  A    between atoms: C_6  and  C_5 
REMARK    5  A    between atoms: C_7  and  C_6 
REMARK    6  A    between atoms: C_13  and  C_7 
REMARK    7  A    between atoms: C_11  and  C_8 
REMARK    8  A    between atoms: O_21  and  C_8 
REMARK    9  A    between atoms: C_12  and  C_9 
REMARK   10  A    between atoms: O_22  and  C_9 
REMARK   11  A    between atoms: C_20  and  C_10 
REMARK   12  A    between atoms: O_23  and  C_10 
REMARK   13  A    between atoms: O_30  and  C_13 
REMARK   14  A    between atoms: C_14  and  O_25 
REMARK   15  A    between atoms: C_15  and  O_26 
REMARK   16  A    between atoms: C_16  and  O_27 
REMARK   17  A    between atoms: C_17  and  O_30 
REMARK   18  A    between atoms: C_18  and  O_28 
REMARK   19  A    between atoms: C_19  and  O_32 
REMARK   20  A    between atoms: C_20  and  O_32 
ROOT
HETATM    1  C   UNK N   1      36.599  11.524   9.960  0.00  0.00     0.179 C 
HETATM    2  C   UNK N   1      37.410  12.172  11.106  0.00  0.00     0.181 C 
HETATM    3  C   UNK N   1      35.108  13.193  11.402  0.00  0.00     0.205 C 
HETATM    4  C   UNK N   1      36.550  13.168  11.938  0.00  0.00     0.196 C 
HETATM    5  C   UNK N   1      35.108  13.396   9.857  0.00  0.00     0.295 C 
HETATM    6  O   UNK N   1      35.994  12.521   9.146  0.00  0.00    -0.348 OA
ENDROOT
BRANCH   5   7
HETATM    7  O   UNK N   1      35.465  14.743   9.544  0.00  0.00    -0.318 OA
BRANCH   7   8
HETATM    8  C   UNK N   1      34.431  15.494   8.897  0.00  0.00     0.217 C 
HETATM    9  C   UNK N   1      33.051  14.810   9.002  0.00  0.00     0.214 C 
HETATM   10  C   UNK N   1      32.349  15.175   7.694  0.00  0.00     0.183 C 
HETATM   11  C   UNK N   1      33.445  15.933   6.945  0.00  0.00     0.180 C 
HETATM   12  O   UNK N   1      34.675  15.505   7.499  0.00  0.00    -0.341 OA
BRANCH   8  13
HETATM   13  C   UNK N   1      34.420  16.962   9.398  0.00  0.00     0.235 C 
BRANCH  13  14
HETATM   14  O   UNK N   1      34.782  17.018  10.746  0.00  0.00    -0.395 OA
HETATM   15  H   UNK N   1      34.258  16.561  11.422  0.00  0.00     0.209 HD
ENDBRANCH  13  14
ENDBRANCH   8  13
BRANCH   9  16
HETATM   16  O   UNK N   1      32.313  15.184  10.129  0.00  0.00    -0.387 OA
HETATM   17  H   UNK N   1      32.126  15.160  11.080  0.00  0.00     0.210 HD
ENDBRANCH   9  16
BRANCH  10  18
HETATM   18  O   UNK N   1      32.005  13.995   7.019  0.00  0.00    -0.390 OA
HETATM   19  H   UNK N   1      32.337  13.304   6.426  0.00  0.00     0.210 HD
ENDBRANCH  10  18
BRANCH  11  20
HETATM   20  C   UNK N   1      33.410  15.784   5.427  0.00  0.00     0.198 C 
BRANCH  20  21
HETATM   21  O   UNK N   1      34.134  14.655   5.038  0.00  0.00    -0.398 OA
HETATM   22  H   UNK N   1      35.090  14.633   4.878  0.00  0.00     0.209 HD
ENDBRANCH  20  21
ENDBRANCH  11  20
ENDBRANCH   7   8
ENDBRANCH   5   7
BRANCH   3  23
HETATM   23  O   UNK N   1      34.349  14.170  12.043  0.00  0.00    -0.388 OA
HETATM   24  H   UNK N   1      33.912  14.906  11.584  0.00  0.00     0.210 HD
ENDBRANCH   3  23
BRANCH   4  25
HETATM   25  O   UNK N   1      36.558  12.795  13.275  0.00  0.00    -0.310 OA
BRANCH  25  26
HETATM   26  C   UNK N   1      36.444  13.630  14.339  0.00  0.00     0.259 C 
HETATM   27  O   UNK N   1      36.592  14.830  14.165  0.00  0.00    -0.265 OA
BRANCH  26  28
HETATM   28  C   UNK N   1      36.127  13.120  15.716  0.00  0.00     0.111 C 
BRANCH  28  29
HETATM   29  C   UNK N   1      36.498  11.651  15.860  0.00  0.00     0.010 C 
BRANCH  29  30
HETATM   30  C   UNK N   1      35.451  10.888  16.656  0.00  0.00     0.000 C 
BRANCH  30  31
HETATM   31  C   UNK N   1      34.270  10.535  15.775  0.00  0.00     0.000 C 
BRANCH  31  32
HETATM   32  C   UNK N   1      34.768   9.974  14.455  0.00  0.00    -0.000 C 
BRANCH  32  33
HETATM   33  C   UNK N   1      33.863  10.414  13.318  0.00  0.00    -0.005 C 
HETATM   34  C   UNK N   1      34.175   9.630  12.058  0.00  0.00     0.005 C 
ENDBRANCH  32  33
ENDBRANCH  31  32
ENDBRANCH  30  31
ENDBRANCH  29  30
ENDBRANCH  28  29
ENDBRANCH  26  28
ENDBRANCH  25  26
ENDBRANCH   4  25
BRANCH   1  35
HETATM   35  C   UNK N   1      37.519  10.660   9.105  0.00  0.00     0.198 C 
BRANCH  35  36
HETATM   36  O   UNK N   1      38.822  11.159   9.136  0.00  0.00    -0.398 OA
HETATM   37  H   UNK N   1      39.207  11.883   8.617  0.00  0.00     0.209 HD
ENDBRANCH  35  36
ENDBRANCH   1  35
BRANCH   2  38
HETATM   38  O   UNK N   1      37.956  11.171  11.920  0.00  0.00    -0.390 OA
HETATM   39  H   UNK N   1      37.468  10.858  12.699  0.00  0.00     0.210 HD
ENDBRANCH   2  38
TORSDOF 20
ENDMDL
MODEL 8
REMARK VINA RESULT:      -6.2     13.992     16.933
REMARK  20 active torsions:
REMARK  status: ('A' for Active; 'I' for Inactive)
REMARK    1  A    between atoms: C_3  and  C_2 
REMARK    2  A    between atoms: C_4  and  C_3 
REMARK    3  A    between atoms: C_5  and  C_4 
REMARK    4  A    between atoms: C_6  and  C_5 
REMARK    5  A    between atoms: C_7  and  C_6 
REMARK    6  A    between atoms: C_13  and  C_7 
REMARK    7  A    between atoms: C_11  and  C_8 
REMARK    8  A    between atoms: O_21  and  C_8 
REMARK    9  A    between atoms: C_12  and  C_9 
REMARK   10  A    between atoms: O_22  and  C_9 
REMARK   11  A    between atoms: C_20  and  C_10 
REMARK   12  A    between atoms: O_23  and  C_10 
REMARK   13  A    between atoms: O_30  and  C_13 
REMARK   14  A    between atoms: C_14  and  O_25 
REMARK   15  A    between atoms: C_15  and  O_26 
REMARK   16  A    between atoms: C_16  and  O_27 
REMARK   17  A    between atoms: C_17  and  O_30 
REMARK   18  A    between atoms: C_18  and  O_28 
REMARK   19  A    between atoms: C_19  and  O_32 
REMARK   20  A    between atoms: C_20  and  O_32 
ROOT
HETATM    1  C   UNK N   1      36.493  11.500  10.181  0.00  0.00     0.179 C 
HETATM    2  C   UNK N   1      37.307  12.245  11.264  0.00  0.00     0.181 C 
HETATM    3  C   UNK N   1      35.018  13.319  11.447  0.00  0.00     0.205 C 
HETATM    4  C   UNK N   1      36.457  13.328  11.990  0.00  0.00     0.196 C 
HETATM    5  C   UNK N   1      35.027  13.372   9.889  0.00  0.00     0.295 C 
HETATM    6  O   UNK N   1      35.905  12.421   9.272  0.00  0.00    -0.348 OA
ENDROOT
BRANCH   5   7
HETATM    7  O   UNK N   1      35.404  14.678   9.449  0.00  0.00    -0.318 OA
BRANCH   7   8
HETATM    8  C   UNK N   1      34.367  15.393   8.766  0.00  0.00     0.217 C 
HETATM    9  C   UNK N   1      32.990  14.708   8.899  0.00  0.00     0.214 C 
HETATM   10  C   UNK N   1      32.290  15.009   7.574  0.00  0.00     0.183 C 
HETATM   11  C   UNK N   1      33.385  15.736   6.793  0.00  0.00     0.180 C 
HETATM   12  O   UNK N   1      34.615  15.341   7.369  0.00  0.00    -0.341 OA
BRANCH   8  13
HETATM   13  C   UNK N   1      34.349  16.882   9.199  0.00  0.00     0.235 C 
BRANCH  13  14
HETATM   14  O   UNK N   1      34.651  16.998  10.558  0.00  0.00    -0.395 OA
HETATM   15  H   UNK N   1      34.870  17.859  10.947  0.00  0.00     0.209 HD
ENDBRANCH  13  14
ENDBRANCH   8  13
BRANCH   9  16
HETATM   16  O   UNK N   1      32.248  15.130  10.006  0.00  0.00    -0.387 OA
HETATM   17  H   UNK N   1      31.907  15.816  10.601  0.00  0.00     0.210 HD
ENDBRANCH   9  16
BRANCH  10  18
HETATM   18  O   UNK N   1      31.954  13.798   6.954  0.00  0.00    -0.390 OA
HETATM   19  H   UNK N   1      32.035  12.833   7.017  0.00  0.00     0.210 HD
ENDBRANCH  10  18
BRANCH  11  20
HETATM   20  C   UNK N   1      33.354  15.518   5.284  0.00  0.00     0.198 C 
BRANCH  20  21
HETATM   21  O   UNK N   1      34.057  14.357   4.953  0.00  0.00    -0.398 OA
HETATM   22  H   UNK N   1      34.740  14.295   4.267  0.00  0.00     0.209 HD
ENDBRANCH  20  21
ENDBRANCH  11  20
ENDBRANCH   7   8
ENDBRANCH   5   7
BRANCH   3  23
HETATM   23  O   UNK N   1      34.268  14.363  11.986  0.00  0.00    -0.388 OA
HETATM   24  H   UNK N   1      34.246  14.585  12.930  0.00  0.00     0.210 HD
ENDBRANCH   3  23
BRANCH   4  25
HETATM   25  O   UNK N   1      36.453  13.086  13.358  0.00  0.00    -0.310 OA
BRANCH  25  26
HETATM   26  C   UNK N   1      36.522  14.024  14.337  0.00  0.00     0.259 C 
HETATM   27  O   UNK N   1      36.570  15.203  14.020  0.00  0.00    -0.265 OA
BRANCH  26  28
HETATM   28  C   UNK N   1      36.525  13.652  15.792  0.00  0.00     0.111 C 
BRANCH  28  29
HETATM   29  C   UNK N   1      35.190  13.055  16.213  0.00  0.00     0.010 C 
BRANCH  29  30
HETATM   30  C   UNK N   1      35.069  12.975  17.726  0.00  0.00     0.000 C 
BRANCH  30  31
HETATM   31  C   UNK N   1      35.299  11.554  18.201  0.00  0.00     0.000 C 
BRANCH  31  32
HETATM   32  C   UNK N   1      35.062  10.588  17.055  0.00  0.00    -0.000 C 
BRANCH  32  33
HETATM   33  C   UNK N   1      34.906   9.172  17.580  0.00  0.00    -0.005 C 
HETATM   34  C   UNK N   1      34.160   9.176  18.901  0.00  0.00     0.005 C 
ENDBRANCH  32  33
ENDBRANCH  31  32
ENDBRANCH  30  31
ENDBRANCH  29  30
ENDBRANCH  28  29
ENDBRANCH  26  28
ENDBRANCH  25  26
ENDBRANCH   4  25
BRANCH   1  35
HETATM   35  C   UNK N   1      37.405  10.546   9.419  0.00  0.00     0.198 C 
BRANCH  35  36
HETATM   36  O   UNK N   1      38.714  11.031   9.406  0.00  0.00    -0.398 OA
HETATM   37  H   UNK N   1      39.535  10.557   9.200  0.00  0.00     0.209 HD
ENDBRANCH  35  36
ENDBRANCH   1  35
BRANCH   2  38
HETATM   38  O   UNK N   1      37.836  11.321  12.174  0.00  0.00    -0.390 OA
HETATM   39  H   UNK N   1      38.003  10.406  11.896  0.00  0.00     0.210 HD
ENDBRANCH   2  38
TORSDOF 20
ENDMDL
MODEL 9
REMARK VINA RESULT:      -6.2      9.778     12.579
REMARK  20 active torsions:
REMARK  status: ('A' for Active; 'I' for Inactive)
REMARK    1  A    between atoms: C_3  and  C_2 
REMARK    2  A    between atoms: C_4  and  C_3 
REMARK    3  A    between atoms: C_5  and  C_4 
REMARK    4  A    between atoms: C_6  and  C_5 
REMARK    5  A    between atoms: C_7  and  C_6 
REMARK    6  A    between atoms: C_13  and  C_7 
REMARK    7  A    between atoms: C_11  and  C_8 
REMARK    8  A    between atoms: O_21  and  C_8 
REMARK    9  A    between atoms: C_12  and  C_9 
REMARK   10  A    between atoms: O_22  and  C_9 
REMARK   11  A    between atoms: C_20  and  C_10 
REMARK   12  A    between atoms: O_23  and  C_10 
REMARK   13  A    between atoms: O_30  and  C_13 
REMARK   14  A    between atoms: C_14  and  O_25 
REMARK   15  A    between atoms: C_15  and  O_26 
REMARK   16  A    between atoms: C_16  and  O_27 
REMARK   17  A    between atoms: C_17  and  O_30 
REMARK   18  A    between atoms: C_18  and  O_28 
REMARK   19  A    between atoms: C_19  and  O_32 
REMARK   20  A    between atoms: C_20  and  O_32 
ROOT
HETATM    1  C   UNK N   1      29.291  17.339   8.376  0.00  0.00     0.179 C 
HETATM    2  C   UNK N   1      28.961  17.717   6.913  0.00  0.00     0.181 C 
HETATM    3  C   UNK N   1      30.434  15.671   6.643  0.00  0.00     0.205 C 
HETATM    4  C   UNK N   1      29.648  16.761   5.894  0.00  0.00     0.196 C 
HETATM    5  C   UNK N   1      31.356  16.314   7.723  0.00  0.00     0.295 C 
HETATM    6  O   UNK N   1      30.698  17.265   8.570  0.00  0.00    -0.348 OA
ENDROOT
BRANCH   5   7
HETATM    7  O   UNK N   1      32.460  16.967   7.093  0.00  0.00    -0.318 OA
BRANCH   7   8
HETATM    8  C   UNK N   1      33.718  16.768   7.750  0.00  0.00     0.217 C 
HETATM    9  C   UNK N   1      34.481  15.541   7.206  0.00  0.00     0.214 C 
HETATM   10  C   UNK N   1      35.226  14.992   8.422  0.00  0.00     0.183 C 
HETATM   11  C   UNK N   1      34.719  15.899   9.544  0.00  0.00     0.180 C 
HETATM   12  O   UNK N   1      33.479  16.418   9.106  0.00  0.00    -0.341 OA
BRANCH   8  13
HETATM   13  C   UNK N   1      34.562  18.068   7.727  0.00  0.00     0.235 C 
BRANCH  13  14
HETATM   14  O   UNK N   1      33.898  19.092   8.406  0.00  0.00    -0.395 OA
HETATM   15  H   UNK N   1      33.007  18.956   8.764  0.00  0.00     0.209 HD
ENDBRANCH  13  14
ENDBRANCH   8  13
BRANCH   9  16
HETATM   16  O   UNK N   1      35.336  15.829   6.138  0.00  0.00    -0.387 OA
HETATM   17  H   UNK N   1      35.516  15.972   5.196  0.00  0.00     0.210 HD
ENDBRANCH   9  16
BRANCH  10  18
HETATM   18  O   UNK N   1      34.831  13.664   8.635  0.00  0.00    -0.390 OA
HETATM   19  H   UNK N   1      34.096  13.038   8.540  0.00  0.00     0.210 HD
ENDBRANCH  10  18
BRANCH  11  20
HETATM   20  C   UNK N   1      34.619  15.236  10.914  0.00  0.00     0.198 C 
BRANCH  20  21
HETATM   21  O   UNK N   1      33.301  14.852  11.166  0.00  0.00    -0.398 OA
HETATM   22  H   UNK N   1      32.773  14.265  10.603  0.00  0.00     0.209 HD
ENDBRANCH  20  21
ENDBRANCH  11  20
ENDBRANCH   7   8
ENDBRANCH   5   7
BRANCH   3  23
HETATM   23  O   UNK N   1      31.164  14.878   5.759  0.00  0.00    -0.388 OA
HETATM   24  H   UNK N   1      32.049  14.526   5.949  0.00  0.00     0.210 HD
ENDBRANCH   3  23
BRANCH   4  25
HETATM   25  O   UNK N   1      28.690  16.181   5.073  0.00  0.00    -0.310 OA
BRANCH  25  26
HETATM   26  C   UNK N   1      28.718  16.140   3.716  0.00  0.00     0.259 C 
HETATM   27  O   UNK N   1      29.794  16.236   3.146  0.00  0.00    -0.265 OA
BRANCH  26  28
HETATM   28  C   UNK N   1      27.467  15.967   2.903  0.00  0.00     0.111 C 
BRANCH  28  29
HETATM   29  C   UNK N   1      26.310  16.762   3.493  0.00  0.00     0.010 C 
BRANCH  29  30
HETATM   30  C   UNK N   1      26.602  18.254   3.491  0.00  0.00     0.000 C 
BRANCH  30  31
HETATM   31  C   UNK N   1      25.315  19.045   3.606  0.00  0.00     0.000 C 
BRANCH  31  32
HETATM   32  C   UNK N   1      25.581  20.348   4.338  0.00  0.00    -0.000 C 
BRANCH  32  33
HETATM   33  C   UNK N   1      27.064  20.499   4.627  0.00  0.00    -0.005 C 
HETATM   34  C   UNK N   1      27.276  21.208   5.951  0.00  0.00     0.005 C 
ENDBRANCH  32  33
ENDBRANCH  31  32
ENDBRANCH  30  31
ENDBRANCH  29  30
ENDBRANCH  28  29
ENDBRANCH  26  28
ENDBRANCH  25  26
ENDBRANCH   4  25
BRANCH   1  35
HETATM   35  C   UNK N   1      28.701  18.378   9.321  0.00  0.00     0.198 C 
BRANCH  35  36
HETATM   36  O   UNK N   1      27.321  18.206   9.432  0.00  0.00    -0.398 OA
HETATM   37  H   UNK N   1      26.614  18.621   8.914  0.00  0.00     0.209 HD
ENDBRANCH  35  36
ENDBRANCH   1  35
BRANCH   2  38
HETATM   38  O   UNK N   1      27.572  17.736   6.734  0.00  0.00    -0.390 OA
HETATM   39  H   UNK N   1      27.078  16.903   6.676  0.00  0.00     0.210 HD
ENDBRANCH   2  38
TORSDOF 20
ENDMDL
