MODEL 1
REMARK VINA RESULT:      -7.6      0.000      0.000
REMARK  3 active torsions:
REMARK  status: ('A' for Active; 'I' for Inactive)
REMARK    1  A    between atoms: C_6  and  N_2 
REMARK       I    between atoms: C_11  and  N_16 
REMARK    2  A    between atoms: C_12  and  O_18 
REMARK    3  A    between atoms: P_22  and  O_24 
ROOT
HETATM    1  C   UNK N   1      30.051  17.492   6.324  0.00  0.00     0.159 A 
HETATM    2  N   UNK N   1      31.237  17.005   5.938  0.00  0.00    -0.297 N 
HETATM    3  C   UNK N   1      29.370  17.922   5.245  0.00  0.00     0.147 A 
HETATM    4  N   UNK N   1      29.551  17.571   7.580  0.00  0.00    -0.174 N 
ATOM      5  HN  UNK N   1      30.093  17.243   8.380  1.00  0.00     0.186 HD
HETATM    6  C   UNK N   1      31.253  17.150   4.586  0.00  0.00     0.188 A 
HETATM    7  N   UNK N   1      30.100  17.720   4.132  0.00  0.00    -0.345 N 
ATOM      8  HN  UNK N   1      29.849  17.943   3.169  1.00  0.00     0.167 HD
HETATM    9  C   UNK N   1      28.110  18.481   5.396  0.00  0.00     0.290 A 
HETATM   10  C   UNK N   1      28.302  18.101   7.751  0.00  0.00     0.680 A 
HETATM   11  N   UNK N   1      27.587  18.557   6.669  0.00  0.00    -0.154 N 
HETATM   12  O   UNK N   1      27.479  18.891   4.438  0.00  0.00    -0.265 OA
HETATM   13  N   UNK N   1      27.742  18.173   9.041  0.00  0.00    -0.234 N 
HETATM   14  H   UNK N   1      26.692  18.943   6.804  0.00  0.00     0.187 HD
HETATM   15  H   UNK N   1      28.202  17.761   9.807  0.00  0.00     0.174 HD
HETATM   16  H   UNK N   1      26.885  18.638   9.177  0.00  0.00     0.174 HD
ENDROOT
BRANCH   2  17
HETATM   17  C   UNK N   1      32.316  16.492   6.784  0.00  0.00     0.262 C 
HETATM   18  C   UNK N   1      33.051  17.575   7.575  0.00  0.00     0.199 C 
HETATM   19  C   UNK N   1      33.666  16.640   8.529  0.00  0.00     0.197 C 
HETATM   20  O   UNK N   1      34.286  17.147   9.671  0.00  0.00    -0.286 OA
HETATM   21  C   UNK N   1      32.456  15.883   8.919  0.00  0.00     0.180 C 
HETATM   22  P   UNK N   1      35.300  15.798  10.173  0.00  0.00     0.393 P 
HETATM   23  O   UNK N   1      35.526  15.850  11.707  0.00  0.00    -0.631 OA
HETATM   24  O   UNK N   1      33.722  15.359  10.834  0.00  0.00    -0.294 OA
HETATM   25  C   UNK N   1      32.985  14.757   9.786  0.00  0.00     0.215 C 
HETATM   26  O   UNK N   1      31.855  15.506   7.705  0.00  0.00    -0.353 OA
BRANCH  18  27
HETATM   27  O   UNK N   1      34.039  18.188   6.807  0.00  0.00    -0.388 OA
HETATM   28  H   UNK N   1      34.892  17.779   6.589  0.00  0.00     0.210 HD
ENDBRANCH  18  27
BRANCH  22  29
HETATM   29  O   UNK N   1      36.082  17.320  10.462  0.00  0.00    -0.307 OA
HETATM   30  H   UNK N   1      36.104  17.833  11.286  0.00  0.00     0.222 HD
ENDBRANCH  22  29
ENDBRANCH   2  17
TORSDOF 3
ENDMDL
MODEL 2
REMARK VINA RESULT:      -7.3      5.309      8.428
REMARK  3 active torsions:
REMARK  status: ('A' for Active; 'I' for Inactive)
REMARK    1  A    between atoms: C_6  and  N_2 
REMARK       I    between atoms: C_11  and  N_16 
REMARK    2  A    between atoms: C_12  and  O_18 
REMARK    3  A    between atoms: P_22  and  O_24 
ROOT
HETATM    1  C   UNK N   1      35.268  13.035  12.579  0.00  0.00     0.159 A 
HETATM    2  N   UNK N   1      35.438  14.360  12.485  0.00  0.00    -0.297 N 
HETATM    3  C   UNK N   1      36.124  12.536  13.491  0.00  0.00     0.147 A 
HETATM    4  N   UNK N   1      34.393  12.257  11.899  0.00  0.00    -0.174 N 
ATOM      5  HN  UNK N   1      33.759  12.662  11.209  1.00  0.00     0.186 HD
HETATM    6  C   UNK N   1      36.426  14.651  13.373  0.00  0.00     0.188 A 
HETATM    7  N   UNK N   1      36.870  13.529  14.010  0.00  0.00    -0.345 N 
ATOM      8  HN  UNK N   1      37.599  13.459  14.719  1.00  0.00     0.167 HD
HETATM    9  C   UNK N   1      36.141  11.175  13.756  0.00  0.00     0.290 A 
HETATM   10  C   UNK N   1      34.379  10.914  12.158  0.00  0.00     0.680 A 
HETATM   11  N   UNK N   1      35.248  10.375  13.076  0.00  0.00    -0.154 N 
HETATM   12  O   UNK N   1      36.916  10.696  14.564  0.00  0.00    -0.265 OA
HETATM   13  N   UNK N   1      33.462  10.081  11.487  0.00  0.00    -0.234 N 
HETATM   14  H   UNK N   1      35.234   9.407  13.250  0.00  0.00     0.187 HD
HETATM   15  H   UNK N   1      32.772  10.468  10.904  0.00  0.00     0.174 HD
HETATM   16  H   UNK N   1      33.514   9.105  11.603  0.00  0.00     0.174 HD
ENDROOT
BRANCH   2  17
HETATM   17  C   UNK N   1      34.764  15.290  11.577  0.00  0.00     0.262 C 
HETATM   18  C   UNK N   1      35.589  15.660  10.344  0.00  0.00     0.199 C 
HETATM   19  C   UNK N   1      34.448  16.182   9.579  0.00  0.00     0.197 C 
HETATM   20  O   UNK N   1      34.608  16.450   8.220  0.00  0.00    -0.286 OA
HETATM   21  C   UNK N   1      33.517  15.045   9.751  0.00  0.00     0.180 C 
HETATM   22  P   UNK N   1      33.250  17.521   7.889  0.00  0.00     0.393 P 
HETATM   23  O   UNK N   1      32.824  17.391   6.403  0.00  0.00    -0.631 OA
HETATM   24  O   UNK N   1      32.505  15.920   7.815  0.00  0.00    -0.294 OA
HETATM   25  C   UNK N   1      32.216  15.534   9.145  0.00  0.00     0.215 C 
HETATM   26  O   UNK N   1      33.504  14.792  11.135  0.00  0.00    -0.353 OA
BRANCH  18  27
HETATM   27  O   UNK N   1      36.489  16.688  10.619  0.00  0.00    -0.388 OA
HETATM   28  H   UNK N   1      37.442  16.559  10.741  0.00  0.00     0.210 HD
ENDBRANCH  18  27
BRANCH  22  29
HETATM   29  O   UNK N   1      34.653  17.980   6.978  0.00  0.00    -0.307 OA
HETATM   30  H   UNK N   1      34.846  18.840   6.572  0.00  0.00     0.222 HD
ENDBRANCH  22  29
ENDBRANCH   2  17
TORSDOF 3
ENDMDL
MODEL 3
REMARK VINA RESULT:      -7.2      5.738      8.755
REMARK  3 active torsions:
REMARK  status: ('A' for Active; 'I' for Inactive)
REMARK    1  A    between atoms: C_6  and  N_2 
REMARK       I    between atoms: C_11  and  N_16 
REMARK    2  A    between atoms: C_12  and  O_18 
REMARK    3  A    between atoms: P_22  and  O_24 
ROOT
HETATM    1  C   UNK N   1      35.998  13.845  13.222  0.00  0.00     0.159 A 
HETATM    2  N   UNK N   1      35.303  13.790  12.078  0.00  0.00    -0.297 N 
HETATM    3  C   UNK N   1      36.320  12.597  13.611  0.00  0.00     0.147 A 
HETATM    4  N   UNK N   1      36.357  14.944  13.927  0.00  0.00    -0.174 N 
ATOM      5  HN  UNK N   1      36.093  15.877  13.610  1.00  0.00     0.186 HD
HETATM    6  C   UNK N   1      35.215  12.466  11.784  0.00  0.00     0.188 A 
HETATM    7  N   UNK N   1      35.841  11.703  12.726  0.00  0.00    -0.345 N 
ATOM      8  HN  UNK N   1      35.927  10.687  12.753  1.00  0.00     0.167 HD
HETATM    9  C   UNK N   1      37.037  12.398  14.781  0.00  0.00     0.290 A 
HETATM   10  C   UNK N   1      37.081  14.772  15.075  0.00  0.00     0.680 A 
HETATM   11  N   UNK N   1      37.416  13.509  15.502  0.00  0.00    -0.154 N 
HETATM   12  O   UNK N   1      37.328  11.279  15.164  0.00  0.00    -0.265 OA
HETATM   13  N   UNK N   1      37.493  15.896  15.817  0.00  0.00    -0.234 N 
HETATM   14  H   UNK N   1      37.932  13.397  16.332  0.00  0.00     0.187 HD
HETATM   15  H   UNK N   1      37.345  16.804  15.470  0.00  0.00     0.174 HD
HETATM   16  H   UNK N   1      37.932  15.771  16.689  0.00  0.00     0.174 HD
ENDROOT
BRANCH   2  17
HETATM   17  C   UNK N   1      34.701  14.901  11.338  0.00  0.00     0.262 C 
HETATM   18  C   UNK N   1      35.578  15.439  10.207  0.00  0.00     0.199 C 
HETATM   19  C   UNK N   1      34.486  16.149   9.526  0.00  0.00     0.197 C 
HETATM   20  O   UNK N   1      34.698  16.645   8.240  0.00  0.00    -0.286 OA
HETATM   21  C   UNK N   1      33.497  15.050   9.474  0.00  0.00     0.180 C 
HETATM   22  P   UNK N   1      33.403  17.828   8.079  0.00  0.00     0.393 P 
HETATM   23  O   UNK N   1      33.015  17.986   6.585  0.00  0.00    -0.631 OA
HETATM   24  O   UNK N   1      32.584  16.307   7.705  0.00  0.00    -0.294 OA
HETATM   25  C   UNK N   1      32.239  15.707   8.940  0.00  0.00     0.215 C 
HETATM   26  O   UNK N   1      33.432  14.556  10.790  0.00  0.00    -0.353 OA
BRANCH  18  27
HETATM   27  O   UNK N   1      36.518  16.354  10.679  0.00  0.00    -0.388 OA
HETATM   28  H   UNK N   1      36.569  17.279  10.391  0.00  0.00     0.210 HD
ENDBRANCH  18  27
BRANCH  22  29
HETATM   29  O   UNK N   1      34.853  18.366   7.293  0.00  0.00    -0.307 OA
HETATM   30  H   UNK N   1      35.766  18.089   7.471  0.00  0.00     0.222 HD
ENDBRANCH  22  29
ENDBRANCH   2  17
TORSDOF 3
ENDMDL
MODEL 4
REMARK VINA RESULT:      -7.0      1.872      2.911
REMARK  3 active torsions:
REMARK  status: ('A' for Active; 'I' for Inactive)
REMARK    1  A    between atoms: C_6  and  N_2 
REMARK       I    between atoms: C_11  and  N_16 
REMARK    2  A    between atoms: C_12  and  O_18 
REMARK    3  A    between atoms: P_22  and  O_24 
ROOT
HETATM    1  C   UNK N   1      31.272  16.961   7.727  0.00  0.00     0.159 A 
HETATM    2  N   UNK N   1      32.505  16.446   7.819  0.00  0.00    -0.297 N 
HETATM    3  C   UNK N   1      30.918  17.047   6.430  0.00  0.00     0.147 A 
HETATM    4  N   UNK N   1      30.455  17.352   8.733  0.00  0.00    -0.174 N 
ATOM      5  HN  UNK N   1      30.753  17.281   9.706  1.00  0.00     0.186 HD
HETATM    6  C   UNK N   1      32.888  16.220   6.535  0.00  0.00     0.188 A 
HETATM    7  N   UNK N   1      31.915  16.588   5.652  0.00  0.00    -0.345 N 
ATOM      8  HN  UNK N   1      31.938  16.528   4.634  1.00  0.00     0.167 HD
HETATM    9  C   UNK N   1      29.679  17.562   6.082  0.00  0.00     0.290 A 
HETATM   10  C   UNK N   1      29.220  17.846   8.413  0.00  0.00     0.680 A 
HETATM   11  N   UNK N   1      28.835  17.954   7.098  0.00  0.00    -0.154 N 
HETATM   12  O   UNK N   1      29.340  17.665   4.917  0.00  0.00    -0.265 OA
HETATM   13  N   UNK N   1      28.336  18.236   9.437  0.00  0.00    -0.234 N 
HETATM   14  H   UNK N   1      27.947  18.317   6.879  0.00  0.00     0.187 HD
HETATM   15  H   UNK N   1      28.561  18.072  10.381  0.00  0.00     0.174 HD
HETATM   16  H   UNK N   1      27.486  18.677   9.208  0.00  0.00     0.174 HD
ENDROOT
BRANCH   2  17
HETATM   17  C   UNK N   1      33.303  16.237   9.029  0.00  0.00     0.262 C 
HETATM   18  C   UNK N   1      32.947  14.962   9.794  0.00  0.00     0.199 C 
HETATM   19  C   UNK N   1      34.187  14.937  10.583  0.00  0.00     0.197 C 
HETATM   20  O   UNK N   1      34.502  13.793  11.315  0.00  0.00    -0.286 OA
HETATM   21  C   UNK N   1      35.162  15.102   9.483  0.00  0.00     0.180 C 
HETATM   22  P   UNK N   1      35.687  14.402  12.466  0.00  0.00     0.393 P 
HETATM   23  O   UNK N   1      36.650  13.260  12.887  0.00  0.00    -0.631 OA
HETATM   24  O   UNK N   1      36.661  14.132  11.017  0.00  0.00    -0.294 OA
HETATM   25  C   UNK N   1      36.494  15.267  10.188  0.00  0.00     0.215 C 
HETATM   26  O   UNK N   1      34.702  16.213   8.752  0.00  0.00    -0.353 OA
BRANCH  18  27
HETATM   27  O   UNK N   1      31.853  15.159  10.635  0.00  0.00    -0.388 OA
HETATM   28  H   UNK N   1      31.272  15.936  10.599  0.00  0.00     0.210 HD
ENDBRANCH  18  27
BRANCH  22  29
HETATM   29  O   UNK N   1      34.668  13.196  13.186  0.00  0.00    -0.307 OA
HETATM   30  H   UNK N   1      33.901  13.333  13.765  0.00  0.00     0.222 HD
ENDBRANCH  22  29
ENDBRANCH   2  17
TORSDOF 3
ENDMDL
MODEL 5
REMARK VINA RESULT:      -7.0      3.525      5.158
REMARK  3 active torsions:
REMARK  status: ('A' for Active; 'I' for Inactive)
REMARK    1  A    between atoms: C_6  and  N_2 
REMARK       I    between atoms: C_11  and  N_16 
REMARK    2  A    between atoms: C_12  and  O_18 
REMARK    3  A    between atoms: P_22  and  O_24 
ROOT
HETATM    1  C   UNK N   1      34.585  15.298   8.011  0.00  0.00     0.159 A 
HETATM    2  N   UNK N   1      35.623  14.515   8.334  0.00  0.00    -0.297 N 
HETATM    3  C   UNK N   1      34.615  15.561   6.691  0.00  0.00     0.147 A 
HETATM    4  N   UNK N   1      33.621  15.782   8.829  0.00  0.00    -0.174 N 
ATOM      5  HN  UNK N   1      33.627  15.571   9.828  1.00  0.00     0.186 HD
HETATM    6  C   UNK N   1      36.284  14.309   7.164  0.00  0.00     0.188 A 
HETATM    7  N   UNK N   1      35.675  14.952   6.127  0.00  0.00    -0.345 N 
ATOM      8  HN  UNK N   1      35.957  14.968   5.147  1.00  0.00     0.167 HD
HETATM    9  C   UNK N   1      33.640  16.365   6.121  0.00  0.00     0.290 A 
HETATM   10  C   UNK N   1      32.638  16.563   8.285  0.00  0.00     0.680 A 
HETATM   11  N   UNK N   1      32.648  16.856   6.943  0.00  0.00    -0.154 N 
HETATM   12  O   UNK N   1      33.652  16.632   4.933  0.00  0.00    -0.265 OA
HETATM   13  N   UNK N   1      31.606  17.060   9.104  0.00  0.00    -0.234 N 
HETATM   14  H   UNK N   1      31.940  17.424   6.563  0.00  0.00     0.187 HD
HETATM   15  H   UNK N   1      31.534  16.777  10.043  0.00  0.00     0.174 HD
HETATM   16  H   UNK N   1      30.952  17.697   8.734  0.00  0.00     0.174 HD
ENDROOT
BRANCH   2  17
HETATM   17  C   UNK N   1      36.011  14.040   9.663  0.00  0.00     0.262 C 
HETATM   18  C   UNK N   1      36.271  15.160  10.671  0.00  0.00     0.199 C 
HETATM   19  C   UNK N   1      36.180  14.291  11.853  0.00  0.00     0.197 C 
HETATM   20  O   UNK N   1      36.105  14.874  13.118  0.00  0.00    -0.286 OA
HETATM   21  C   UNK N   1      34.900  13.617  11.544  0.00  0.00     0.180 C 
HETATM   22  P   UNK N   1      36.562  13.538  14.170  0.00  0.00     0.393 P 
HETATM   23  O   UNK N   1      35.906  13.716  15.565  0.00  0.00    -0.631 OA
HETATM   24  O   UNK N   1      34.852  13.217  13.863  0.00  0.00    -0.294 OA
HETATM   25  C   UNK N   1      34.771  12.553  12.616  0.00  0.00     0.215 C 
HETATM   26  O   UNK N   1      35.041  13.157  10.222  0.00  0.00    -0.353 OA
BRANCH  18  27
HETATM   27  O   UNK N   1      37.564  15.667  10.551  0.00  0.00    -0.388 OA
HETATM   28  H   UNK N   1      38.050  15.724   9.713  0.00  0.00     0.210 HD
ENDBRANCH  18  27
BRANCH  22  29
HETATM   29  O   UNK N   1      37.173  15.049  14.765  0.00  0.00    -0.307 OA
HETATM   30  H   UNK N   1      37.904  15.194  15.387  0.00  0.00     0.222 HD
ENDBRANCH  22  29
ENDBRANCH   2  17
TORSDOF 3
ENDMDL
MODEL 6
REMARK VINA RESULT:      -6.7      9.066     11.881
REMARK  3 active torsions:
REMARK  status: ('A' for Active; 'I' for Inactive)
REMARK    1  A    between atoms: C_6  and  N_2 
REMARK       I    between atoms: C_11  and  N_16 
REMARK    2  A    between atoms: C_12  and  O_18 
REMARK    3  A    between atoms: P_22  and  O_24 
ROOT
HETATM    1  C   UNK N   1      35.290  11.778  17.537  0.00  0.00     0.159 A 
HETATM    2  N   UNK N   1      35.303  13.000  16.988  0.00  0.00    -0.297 N 
HETATM    3  C   UNK N   1      35.220  11.890  18.878  0.00  0.00     0.147 A 
HETATM    4  N   UNK N   1      35.336  10.581  16.907  0.00  0.00    -0.174 N 
ATOM      5  HN  UNK N   1      35.396  10.527  15.890  1.00  0.00     0.186 HD
HETATM    6  C   UNK N   1      35.236  13.859  18.040  0.00  0.00     0.188 A 
HETATM    7  N   UNK N   1      35.184  13.189  19.227  0.00  0.00    -0.345 N 
ATOM      8  HN  UNK N   1      35.130  13.584  20.167  1.00  0.00     0.167 HD
HETATM    9  C   UNK N   1      35.203  10.752  19.669  0.00  0.00     0.290 A 
HETATM   10  C   UNK N   1      35.302   9.444  17.668  0.00  0.00     0.680 A 
HETATM   11  N   UNK N   1      35.240   9.528  19.038  0.00  0.00    -0.154 N 
HETATM   12  O   UNK N   1      35.156  10.825  20.884  0.00  0.00    -0.265 OA
HETATM   13  N   UNK N   1      35.322   8.183  17.042  0.00  0.00    -0.234 N 
HETATM   14  H   UNK N   1      35.223   8.704  19.576  0.00  0.00     0.187 HD
HETATM   15  H   UNK N   1      35.266   8.111  16.062  0.00  0.00     0.174 HD
HETATM   16  H   UNK N   1      35.391   7.367  17.589  0.00  0.00     0.174 HD
ENDROOT
BRANCH   2  17
HETATM   17  C   UNK N   1      35.434  13.347  15.572  0.00  0.00     0.262 C 
HETATM   18  C   UNK N   1      36.839  13.130  15.008  0.00  0.00     0.199 C 
HETATM   19  C   UNK N   1      36.417  13.161  13.600  0.00  0.00     0.197 C 
HETATM   20  O   UNK N   1      37.317  12.759  12.614  0.00  0.00    -0.286 OA
HETATM   21  C   UNK N   1      35.302  12.193  13.674  0.00  0.00     0.180 C 
HETATM   22  P   UNK N   1      36.617  13.465  11.161  0.00  0.00     0.393 P 
HETATM   23  O   UNK N   1      37.010  12.620   9.920  0.00  0.00    -0.631 OA
HETATM   24  O   UNK N   1      35.676  11.983  11.360  0.00  0.00    -0.294 OA
HETATM   25  C   UNK N   1      34.658  12.261  12.303  0.00  0.00     0.215 C 
HETATM   26  O   UNK N   1      34.513  12.628  14.755  0.00  0.00    -0.353 OA
BRANCH  18  27
HETATM   27  O   UNK N   1      37.672  14.215  15.279  0.00  0.00    -0.388 OA
HETATM   28  H   UNK N   1      38.361  14.214  15.961  0.00  0.00     0.210 HD
ENDBRANCH  18  27
BRANCH  22  29
HETATM   29  O   UNK N   1      38.351  13.514  11.115  0.00  0.00    -0.307 OA
HETATM   30  H   UNK N   1      38.917  14.079  10.566  0.00  0.00     0.222 HD
ENDBRANCH  22  29
ENDBRANCH   2  17
TORSDOF 3
ENDMDL
MODEL 7
REMARK VINA RESULT:      -6.7      4.548      6.738
REMARK  3 active torsions:
REMARK  status: ('A' for Active; 'I' for Inactive)
REMARK    1  A    between atoms: C_6  and  N_2 
REMARK       I    between atoms: C_11  and  N_16 
REMARK    2  A    between atoms: C_12  and  O_18 
REMARK    3  A    between atoms: P_22  and  O_24 
ROOT
HETATM    1  C   UNK N   1      34.334  15.233   9.848  0.00  0.00     0.159 A 
HETATM    2  N   UNK N   1      35.138  15.020  10.898  0.00  0.00    -0.297 N 
HETATM    3  C   UNK N   1      34.280  16.553   9.586  0.00  0.00     0.147 A 
HETATM    4  N   UNK N   1      33.654  14.317   9.119  0.00  0.00    -0.174 N 
ATOM      5  HN  UNK N   1      33.710  13.323   9.345  1.00  0.00     0.186 HD
HETATM    6  C   UNK N   1      35.573  16.255  11.264  0.00  0.00     0.188 A 
HETATM    7  N   UNK N   1      35.050  17.226  10.461  0.00  0.00    -0.345 N 
ATOM      8  HN  UNK N   1      35.207  18.232  10.512  1.00  0.00     0.167 HD
HETATM    9  C   UNK N   1      33.497  17.022   8.542  0.00  0.00     0.290 A 
HETATM   10  C   UNK N   1      32.891  14.755   8.072  0.00  0.00     0.680 A 
HETATM   11  N   UNK N   1      32.808  16.097   7.788  0.00  0.00    -0.154 N 
HETATM   12  O   UNK N   1      33.418  18.211   8.293  0.00  0.00    -0.265 OA
HETATM   13  N   UNK N   1      32.193  13.825   7.278  0.00  0.00    -0.234 N 
HETATM   14  H   UNK N   1      32.251  16.402   7.036  0.00  0.00     0.187 HD
HETATM   15  H   UNK N   1      32.322  12.859   7.411  0.00  0.00     0.174 HD
HETATM   16  H   UNK N   1      31.570  14.144   6.585  0.00  0.00     0.174 HD
ENDROOT
BRANCH   2  17
HETATM   17  C   UNK N   1      35.433  13.747  11.560  0.00  0.00     0.262 C 
HETATM   18  C   UNK N   1      36.794  13.711  12.255  0.00  0.00     0.199 C 
HETATM   19  C   UNK N   1      36.483  12.538  13.084  0.00  0.00     0.197 C 
HETATM   20  O   UNK N   1      37.340  12.200  14.130  0.00  0.00    -0.286 OA
HETATM   21  C   UNK N   1      35.185  12.984  13.634  0.00  0.00     0.180 C 
HETATM   22  P   UNK N   1      36.903  10.522  14.442  0.00  0.00     0.393 P 
HETATM   23  O   UNK N   1      37.189  10.169  15.926  0.00  0.00    -0.631 OA
HETATM   24  O   UNK N   1      35.658  11.415  15.324  0.00  0.00    -0.294 OA
HETATM   25  C   UNK N   1      34.662  11.775  14.385  0.00  0.00     0.215 C 
HETATM   26  O   UNK N   1      34.437  13.395  12.516  0.00  0.00    -0.353 OA
BRANCH  18  27
HETATM   27  O   UNK N   1      37.818  13.404  11.361  0.00  0.00    -0.388 OA
HETATM   28  H   UNK N   1      38.200  12.518  11.255  0.00  0.00     0.210 HD
ENDBRANCH  18  27
BRANCH  22  29
HETATM   29  O   UNK N   1      38.607  10.780  14.645  0.00  0.00    -0.307 OA
HETATM   30  H   UNK N   1      39.218  10.298  15.224  0.00  0.00     0.222 HD
ENDBRANCH  22  29
ENDBRANCH   2  17
TORSDOF 3
ENDMDL
MODEL 8
REMARK VINA RESULT:      -6.6      1.379      2.700
REMARK  3 active torsions:
REMARK  status: ('A' for Active; 'I' for Inactive)
REMARK    1  A    between atoms: C_6  and  N_2 
REMARK       I    between atoms: C_11  and  N_16 
REMARK    2  A    between atoms: C_12  and  O_18 
REMARK    3  A    between atoms: P_22  and  O_24 
ROOT
HETATM    1  C   UNK N   1      30.910  17.052   6.397  0.00  0.00     0.159 A 
HETATM    2  N   UNK N   1      31.398  16.764   7.610  0.00  0.00    -0.297 N 
HETATM    3  C   UNK N   1      29.674  17.571   6.523  0.00  0.00     0.147 A 
HETATM    4  N   UNK N   1      31.509  16.878   5.195  0.00  0.00    -0.174 N 
ATOM      5  HN  UNK N   1      32.445  16.477   5.130  1.00  0.00     0.186 HD
HETATM    6  C   UNK N   1      30.418  17.127   8.479  0.00  0.00     0.188 A 
HETATM    7  N   UNK N   1      29.333  17.632   7.824  0.00  0.00    -0.345 N 
ATOM      8  HN  UNK N   1      28.462  17.977   8.227  1.00  0.00     0.167 HD
HETATM    9  C   UNK N   1      28.958  17.940   5.394  0.00  0.00     0.290 A 
HETATM   10  C   UNK N   1      30.828  17.253   4.069  0.00  0.00     0.680 A 
HETATM   11  N   UNK N   1      29.561  17.776   4.166  0.00  0.00    -0.154 N 
HETATM   12  O   UNK N   1      27.832  18.397   5.479  0.00  0.00    -0.265 OA
HETATM   13  N   UNK N   1      31.433  17.110   2.806  0.00  0.00    -0.234 N 
HETATM   14  H   UNK N   1      29.078  18.036   3.350  0.00  0.00     0.187 HD
HETATM   15  H   UNK N   1      32.373  16.830   2.732  0.00  0.00     0.174 HD
HETATM   16  H   UNK N   1      30.911  17.291   1.991  0.00  0.00     0.174 HD
ENDROOT
BRANCH   2  17
HETATM   17  C   UNK N   1      32.677  16.129   7.937  0.00  0.00     0.262 C 
HETATM   18  C   UNK N   1      33.506  16.898   8.966  0.00  0.00     0.199 C 
HETATM   19  C   UNK N   1      34.386  15.767   9.292  0.00  0.00     0.197 C 
HETATM   20  O   UNK N   1      35.223  15.857  10.403  0.00  0.00    -0.286 OA
HETATM   21  C   UNK N   1      33.353  14.736   9.534  0.00  0.00     0.180 C 
HETATM   22  P   UNK N   1      36.411  14.599  10.078  0.00  0.00     0.393 P 
HETATM   23  O   UNK N   1      36.987  14.057  11.413  0.00  0.00    -0.631 OA
HETATM   24  O   UNK N   1      35.063  13.686  10.765  0.00  0.00    -0.294 OA
HETATM   25  C   UNK N   1      34.141  13.454   9.716  0.00  0.00     0.215 C 
HETATM   26  O   UNK N   1      32.509  14.795   8.410  0.00  0.00    -0.353 OA
BRANCH  18  27
HETATM   27  O   UNK N   1      34.245  17.918   8.368  0.00  0.00    -0.388 OA
HETATM   28  H   UNK N   1      35.158  18.142   8.610  0.00  0.00     0.210 HD
ENDBRANCH  18  27
BRANCH  22  29
HETATM   29  O   UNK N   1      37.140  15.974  10.844  0.00  0.00    -0.307 OA
HETATM   30  H   UNK N   1      38.032  16.044  11.220  0.00  0.00     0.222 HD
ENDBRANCH  22  29
ENDBRANCH   2  17
TORSDOF 3
ENDMDL
MODEL 9
REMARK VINA RESULT:      -6.6      3.458      7.353
REMARK  3 active torsions:
REMARK  status: ('A' for Active; 'I' for Inactive)
REMARK    1  A    between atoms: C_6  and  N_2 
REMARK       I    between atoms: C_11  and  N_16 
REMARK    2  A    between atoms: C_12  and  O_18 
REMARK    3  A    between atoms: P_22  and  O_24 
ROOT
HETATM    1  C   UNK N   1      31.376  17.191   6.634  0.00  0.00     0.159 A 
HETATM    2  N   UNK N   1      30.302  17.075   7.425  0.00  0.00    -0.297 N 
HETATM    3  C   UNK N   1      32.445  17.533   7.377  0.00  0.00     0.147 A 
HETATM    4  N   UNK N   1      31.447  17.008   5.294  0.00  0.00    -0.174 N 
ATOM      5  HN  UNK N   1      30.618  16.756   4.756  1.00  0.00     0.186 HD
HETATM    6  C   UNK N   1      30.755  17.354   8.676  0.00  0.00     0.188 A 
HETATM    7  N   UNK N   1      32.088  17.644   8.670  0.00  0.00    -0.345 N 
ATOM      8  HN  UNK N   1      32.680  17.888   9.464  1.00  0.00     0.167 HD
HETATM    9  C   UNK N   1      33.679  17.721   6.772  0.00  0.00     0.290 A 
HETATM   10  C   UNK N   1      32.659  17.171   4.679  0.00  0.00     0.680 A 
HETATM   11  N   UNK N   1      33.766  17.529   5.411  0.00  0.00    -0.154 N 
HETATM   12  O   UNK N   1      34.659  18.045   7.419  0.00  0.00    -0.265 OA
HETATM   13  N   UNK N   1      32.772  16.962   3.291  0.00  0.00    -0.234 N 
HETATM   14  H   UNK N   1      34.631  17.649   4.957  0.00  0.00     0.187 HD
HETATM   15  H   UNK N   1      32.012  16.611   2.776  0.00  0.00     0.174 HD
HETATM   16  H   UNK N   1      33.619  17.169   2.834  0.00  0.00     0.174 HD
ENDROOT
BRANCH   2  17
HETATM   17  C   UNK N   1      28.922  16.782   7.031  0.00  0.00     0.262 C 
HETATM   18  C   UNK N   1      28.098  18.025   6.691  0.00  0.00     0.199 C 
HETATM   19  C   UNK N   1      27.045  17.287   5.978  0.00  0.00     0.197 C 
HETATM   20  O   UNK N   1      26.113  17.998   5.222  0.00  0.00    -0.286 OA
HETATM   21  C   UNK N   1      27.899  16.482   5.079  0.00  0.00     0.180 C 
HETATM   22  P   UNK N   1      24.809  16.828   5.043  0.00  0.00     0.393 P 
HETATM   23  O   UNK N   1      24.026  17.106   3.733  0.00  0.00    -0.631 OA
HETATM   24  O   UNK N   1      25.941  16.338   3.779  0.00  0.00    -0.294 OA
HETATM   25  C   UNK N   1      26.931  15.536   4.395  0.00  0.00     0.215 C 
HETATM   26  O   UNK N   1      28.859  15.891   5.920  0.00  0.00    -0.353 OA
BRANCH  18  27
HETATM   27  O   UNK N   1      27.570  18.617   7.837  0.00  0.00    -0.388 OA
HETATM   28  H   UNK N   1      27.390  19.567   7.925  0.00  0.00     0.210 HD
ENDBRANCH  18  27
BRANCH  22  29
HETATM   29  O   UNK N   1      24.193  18.440   5.221  0.00  0.00    -0.307 OA
HETATM   30  H   UNK N   1      24.696  19.267   5.288  0.00  0.00     0.222 HD
ENDBRANCH  22  29
ENDBRANCH   2  17
TORSDOF 3
ENDMDL
