REMARK  9 active torsions:
REMARK  status: ('A' for Active; 'I' for Inactive)
REMARK    1  A    between atoms: C_18  and  C_14 
REMARK    2  A    between atoms: C_24  and  C_14 
REMARK    3  A    between atoms: C_21  and  C_17 
REMARK    4  A    between atoms: N_32  and  C_17 
REMARK    5  A    between atoms: C_28  and  C_22 
REMARK    6  A    between atoms: C_29  and  C_24 
REMARK    7  A    between atoms: C_24  and  N_32 
REMARK    8  A    between atoms: C_27  and  C_26 
REMARK       I    between atoms: N_32  and  C_28 
REMARK    9  A    between atoms: O_35  and  C_29 
ROOT
HETATM    1  C   UNK N   1      -3.578   1.155  -0.530  0.00  0.00     0.256 C 
HETATM    2  N   UNK N   1      -3.390   2.401   0.073  0.00  0.00    -0.328 N 
HETATM    3  O   UNK N   1      -2.633   0.637  -1.101  0.00  0.00    -0.267 OA
ENDROOT
BRANCH   2   4
HETATM    4  C   UNK N   1      -2.074   2.963  -0.005  0.00  0.00     0.173 C 
BRANCH   4   5
HETATM    5  C   UNK N   1      -1.057   2.195   0.717  0.00  0.00     0.001 A 
HETATM    6  C   UNK N   1      -1.064   0.857   1.159  0.00  0.00     0.018 A 
HETATM    7  C   UNK N   1       0.254   0.318   1.257  0.00  0.00     0.023 A 
HETATM    8  C   UNK N   1       1.209   1.266   0.880  0.00  0.00     0.039 A 
HETATM    9  S   UNK N   1       0.454   2.655   0.524  0.00  0.00    -0.090 SA
BRANCH   8  10
HETATM   10  C   UNK N   1       2.590   1.163   0.514  0.00  0.00     0.094 A 
HETATM   11  C   UNK N   1       3.435   0.058   0.484  0.00  0.00     0.053 A 
HETATM   12  C   UNK N   1       4.592   0.572  -0.080  0.00  0.00     0.000 A 
HETATM   13  C   UNK N   1       5.816  -0.017  -0.363  0.00  0.00     0.014 A 
HETATM   14  C   UNK N   1       4.369   1.891  -0.357  0.00  0.00     0.086 A 
HETATM   15  C   UNK N   1       6.814   0.797  -0.940  0.00  0.00     0.001 A 
HETATM   16  C   UNK N   1       6.562   2.160  -1.225  0.00  0.00     0.003 A 
HETATM   17  C   UNK N   1       5.314   2.721  -0.931  0.00  0.00     0.038 A 
HETATM   18  O   UNK N   1       3.179   2.218  -0.002  0.00  0.00    -0.309 OA
ENDBRANCH   8  10
ENDBRANCH   4   5
ENDBRANCH   2   4
BRANCH   2  19
HETATM   19  C   UNK N   1      -4.285   3.264   0.841  0.00  0.00     0.190 C 
BRANCH  19  20
HETATM   20  C   UNK N   1      -5.663   2.714   1.226  0.00  0.00     0.074 C 
BRANCH  20  21
HETATM   21  C   UNK N   1      -6.950   3.329   0.741  0.00  0.00    -0.056 A 
HETATM   22  C   UNK N   1      -8.141   2.718   1.137  0.00  0.00     0.007 A 
HETATM   23  C   UNK N   1      -9.370   3.225   0.709  0.00  0.00     0.001 A 
HETATM   24  C   UNK N   1      -9.415   4.351  -0.117  0.00  0.00     0.000 A 
HETATM   25  C   UNK N   1      -8.231   4.970  -0.513  0.00  0.00     0.001 A 
HETATM   26  C   UNK N   1      -7.008   4.458  -0.086  0.00  0.00     0.007 A 
ENDBRANCH  20  21
ENDBRANCH  19  20
BRANCH  19  27
HETATM   27  C   UNK N   1      -4.209   4.675   0.261  0.00  0.00     0.164 C 
HETATM   28  O   UNK N   1      -4.472   4.873  -0.916  0.00  0.00    -0.648 OA
BRANCH  27  29
HETATM   29  O   UNK N   1      -3.663   5.669   0.991  0.00  0.00    -0.775 OA
HETATM   30  H   UNK N   1      -2.875   5.686   1.497  0.00  0.00     0.167 HD
ENDBRANCH  27  29
ENDBRANCH  19  27
ENDBRANCH   2  19
BRANCH   1  31
HETATM   31  C   UNK N   1      -4.833   0.355  -0.535  0.00  0.00     0.054 A 
HETATM   32  C   UNK N   1      -6.060   0.931  -0.863  0.00  0.00     0.020 A 
HETATM   33  C   UNK N   1      -7.218   0.155  -0.928  0.00  0.00     0.025 A 
HETATM   34  C   UNK N   1      -7.155  -1.217  -0.682  0.00  0.00     0.035 A 
HETATM   35  C   UNK N   1      -5.935  -1.816  -0.386  0.00  0.00     0.048 A 
HETATM   36 Cl   UNK N   1      -8.607  -2.188  -0.747  0.00  0.00    -0.084 Cl
HETATM   37  C   UNK N   1      -4.770  -1.052  -0.323  0.00  0.00     0.051 A 
HETATM   38 Cl   UNK N   1      -3.271  -1.890   0.076  0.00  0.00    -0.083 Cl
ENDBRANCH   1  31
TORSDOF 9
