REMARK  17 active torsions:
REMARK  status: ('A' for Active; 'I' for Inactive)
REMARK    1  A    between atoms: C_12  and  C_11 
REMARK    2  A    between atoms: C_15  and  C_11 
REMARK    3  A    between atoms: C_17  and  C_12 
REMARK    4  A    between atoms: C_16  and  C_13 
REMARK    5  A    between atoms: C_19  and  C_13 
REMARK    6  A    between atoms: C_18  and  C_14 
REMARK    7  A    between atoms: C_20  and  C_14 
REMARK    8  A    between atoms: C_23  and  C_17 
REMARK    9  A    between atoms: C_17  and  N_26 
REMARK   10  A    between atoms: C_21  and  C_18 
REMARK   11  A    between atoms: C_18  and  N_27 
REMARK   12  A    between atoms: C_22  and  C_19 
REMARK   13  A    between atoms: C_19  and  N_26 
REMARK   14  A    between atoms: O_30  and  C_20 
REMARK   15  A    between atoms: O_31  and  C_21 
REMARK   16  A    between atoms: C_22  and  O_32 
REMARK   17  A    between atoms: O_34  and  C_23 
ROOT
HETATM    1  C   UNK N   1       6.838   3.140  -0.778  0.00  0.00     0.156 C 
ENDROOT
BRANCH   1   2
HETATM    2  C   UNK N   1       7.873   2.106  -1.270  0.00  0.00     0.071 C 
BRANCH   2   3
HETATM    3  C   UNK N   1       9.091   1.825  -0.421  0.00  0.00    -0.056 A 
HETATM    4  C   UNK N   1       9.316   2.455   0.815  0.00  0.00     0.007 A 
HETATM    5  C   UNK N   1      10.480   2.186   1.543  0.00  0.00     0.001 A 
HETATM    6  C   UNK N   1      11.423   1.282   1.046  0.00  0.00     0.000 A 
HETATM    7  C   UNK N   1      11.202   0.646  -0.177  0.00  0.00     0.001 A 
HETATM    8  C   UNK N   1      10.041   0.919  -0.908  0.00  0.00     0.007 A 
ENDBRANCH   2   3
ENDBRANCH   1   2
BRANCH   1   9
HETATM    9  C   UNK N   1       7.440   4.543  -0.649  0.00  0.00     0.135 C 
HETATM   10  N   UNK N   1       6.746   5.586  -0.322  0.00  0.00    -0.360 N 
ATOM     11  HN  UNK N   1       7.256   6.468  -0.258  1.00  0.00     0.162 HD
BRANCH  10  12
HETATM   12  C   UNK N   1       5.321   5.640  -0.034  0.00  0.00     0.167 C 
BRANCH  12  13
HETATM   13  C   UNK N   1       4.531   5.261  -1.298  0.00  0.00     0.143 C 
BRANCH  13  14
HETATM   14  C   UNK N   1       3.076   4.936  -1.094  0.00  0.00     0.141 C 
HETATM   15  O   UNK N   1       2.578   4.933   0.020  0.00  0.00    -0.650 OA
BRANCH  14  16
HETATM   16  O   UNK N   1       2.320   4.617  -2.160  0.00  0.00    -0.776 OA
HETATM   17  H   UNK N   1       1.864   4.962  -2.902  0.00  0.00     0.167 HD
ENDBRANCH  14  16
ENDBRANCH  13  14
ENDBRANCH  12  13
BRANCH  12  18
HETATM   18  C   UNK N   1       4.974   7.050   0.397  0.00  0.00     0.133 C 
HETATM   19  N   UNK N   1       3.776   7.346   0.751  0.00  0.00    -0.382 N 
HETATM   20  H   UNK N   1       3.513   8.255   1.023  0.00  0.00     0.158 HD
ATOM     21  HN  UNK N   1       3.069   6.610   0.751  1.00  0.00     0.158 HD
BRANCH  18  22
HETATM   22  O   UNK N   1       5.922   8.007   0.429  0.00  0.00    -0.348 OA
HETATM   23  H   UNK N   1       6.828   7.769   0.451  0.00  0.00     0.219 HD
ENDBRANCH  18  22
ENDBRANCH  12  18
ENDBRANCH  10  12
BRANCH   9  24
HETATM   24  O   UNK N   1       8.753   4.719  -0.909  0.00  0.00    -0.348 OA
HETATM   25  H   UNK N   1       9.315   3.991  -1.090  0.00  0.00     0.219 HD
ENDBRANCH   9  24
ENDBRANCH   1   9
BRANCH   1  26
HETATM   26  N   UNK N   1       6.239   2.713   0.499  0.00  0.00    -0.397 N 
HETATM   27  H   UNK N   1       6.582   3.043   1.401  0.00  0.00     0.154 HD
BRANCH  26  28
HETATM   28  C   UNK N   1       5.106   1.772   0.379  0.00  0.00     0.176 C 
BRANCH  28  29
HETATM   29  C   UNK N   1       4.084   2.177   1.453  0.00  0.00     0.040 C 
BRANCH  29  30
HETATM   30  C   UNK N   1       2.890   1.241   1.694  0.00  0.00     0.041 C 
BRANCH  30  31
HETATM   31  C   UNK N   1       1.947   1.050   0.549  0.00  0.00    -0.058 A 
HETATM   32  C   UNK N   1       1.623  -0.250   0.142  0.00  0.00     0.007 A 
HETATM   33  C   UNK N   1       0.682  -0.457  -0.872  0.00  0.00     0.001 A 
HETATM   34  C   UNK N   1       0.060   0.637  -1.482  0.00  0.00     0.000 A 
HETATM   35  C   UNK N   1       0.377   1.936  -1.075  0.00  0.00     0.001 A 
HETATM   36  C   UNK N   1       1.312   2.142  -0.054  0.00  0.00     0.007 A 
ENDBRANCH  30  31
ENDBRANCH  29  30
ENDBRANCH  28  29
BRANCH  28  37
HETATM   37  C   UNK N   1       5.601   0.348   0.540  0.00  0.00     0.163 C 
HETATM   38  O   UNK N   1       6.369  -0.125  -0.282  0.00  0.00    -0.648 OA
BRANCH  37  39
HETATM   39  O   UNK N   1       5.193  -0.418   1.571  0.00  0.00    -0.775 OA
HETATM   40  H   UNK N   1       4.590  -0.439   2.287  0.00  0.00     0.167 HD
ENDBRANCH  37  39
ENDBRANCH  28  37
ENDBRANCH  26  28
ENDBRANCH   1  26
TORSDOF 17
