MODEL 1
REMARK VINA RESULT:      -7.2      0.000      0.000
REMARK  14 active torsions:
REMARK  status: ('A' for Active; 'I' for Inactive)
REMARK    1  A    between atoms: C_9  and  C_2 
REMARK    2  A    between atoms: C_26  and  C_9 
REMARK    3  A    between atoms: C_26  and  C_16 
REMARK    4  A    between atoms: C_23  and  S_43 
REMARK    5  A    between atoms: C_25  and  C_24 
REMARK    6  A    between atoms: C_29  and  C_24 
REMARK    7  A    between atoms: C_26  and  N_32 
REMARK    8  A    between atoms: N_36  and  C_27 
REMARK    9  A    between atoms: S_43  and  C_28 
REMARK   10  A    between atoms: C_30  and  C_29 
REMARK   11  A    between atoms: C_29  and  N_34 
REMARK   12  A    between atoms: C_30  and  O_38 
REMARK   13  A    between atoms: N_37  and  C_31 
REMARK   14  A    between atoms: C_31  and  O_39 
ROOT
HETATM    1  C   UNK N   1      35.607  13.147  14.790  0.00  0.00     0.163 C 
ENDROOT
BRANCH   1   2
HETATM    2  C   UNK N   1      34.665  12.150  15.487  0.00  0.00     0.072 C 
BRANCH   2   3
HETATM    3  C   UNK N   1      35.070  12.080  16.941  0.00  0.00    -0.056 A 
HETATM    4  C   UNK N   1      34.972  13.220  17.754  0.00  0.00     0.007 A 
HETATM    5  C   UNK N   1      35.191  13.124  19.132  0.00  0.00     0.001 A 
HETATM    6  C   UNK N   1      35.486  11.885  19.709  0.00  0.00     0.000 A 
HETATM    7  C   UNK N   1      35.578  10.745  18.905  0.00  0.00     0.001 A 
HETATM    8  C   UNK N   1      35.367  10.841  17.526  0.00  0.00     0.007 A 
ENDBRANCH   2   3
ENDBRANCH   1   2
BRANCH   1   9
HETATM    9  C   UNK N   1      37.138  13.050  14.862  0.00  0.00     0.135 C 
HETATM   10  N   UNK N   1      37.911  12.045  14.570  0.00  0.00    -0.365 N 
ATOM     11  HN  UNK N   1      38.898  12.281  14.673  1.00  0.00     0.162 HD
BRANCH  10  12
HETATM   12  C   UNK N   1      37.726  10.670  14.136  0.00  0.00     0.107 C 
BRANCH  12  13
HETATM   13  C   UNK N   1      38.279  10.384  12.738  0.00  0.00     0.029 C 
BRANCH  13  14
HETATM   14  C   UNK N   1      37.633  11.113  11.585  0.00  0.00    -0.002 C 
HETATM   15  C   UNK N   1      37.452  10.134  10.443  0.00  0.00     0.005 C 
ENDBRANCH  13  14
ENDBRANCH  12  13
BRANCH  12  16
HETATM   16  C   UNK N   1      38.012   9.617  15.170  0.00  0.00     0.010 C 
HETATM   17  C   UNK N   1      37.449   8.393  15.184  0.00  0.00     0.112 C 
BRANCH  17  18
HETATM   18  S   UNK N   1      36.227   7.786  13.992  0.00  0.00     0.196 S 
HETATM   19  O   UNK N   1      35.278   8.553  14.921  0.00  0.00    -0.218 OA
HETATM   20  O   UNK N   1      35.662   6.467  14.536  0.00  0.00    -0.218 OA
BRANCH  18  21
HETATM   21  C   UNK N   1      35.085   8.360  12.712  0.00  0.00     0.063 A 
HETATM   22  C   UNK N   1      34.517   9.640  12.768  0.00  0.00     0.024 A 
HETATM   23  C   UNK N   1      33.603  10.047  11.785  0.00  0.00     0.002 A 
HETATM   24  C   UNK N   1      33.253   9.176  10.747  0.00  0.00     0.000 A 
HETATM   25  C   UNK N   1      33.821   7.902  10.684  0.00  0.00     0.002 A 
HETATM   26  C   UNK N   1      34.732   7.497  11.662  0.00  0.00     0.024 A 
ENDBRANCH  18  21
ENDBRANCH  17  18
ENDBRANCH  12  16
ENDBRANCH  10  12
BRANCH   9  27
HETATM   27  O   UNK N   1      37.752  14.177  15.272  0.00  0.00    -0.348 OA
HETATM   28  H   UNK N   1      38.281  14.950  15.275  0.00  0.00     0.219 HD
ENDBRANCH   9  27
ENDBRANCH   1   9
BRANCH   1  29
HETATM   29  N   UNK N   1      35.215  13.259  13.387  0.00  0.00    -0.344 N 
HETATM   30  C   UNK N   1      35.527  14.275  12.645  0.00  0.00     0.215 C 
ATOM     31  HN  UNK N   1      34.672  12.502  12.971  1.00  0.00     0.164 HD
BRANCH  30  32
HETATM   32  N   UNK N   1      35.113  14.348  11.292  0.00  0.00    -0.348 N 
HETATM   33  C   UNK N   1      35.294  13.241  10.385  0.00  0.00     0.128 C 
HETATM   34  C   UNK N   1      36.132  13.722   9.197  0.00  0.00     0.055 C 
HETATM   35  C   UNK N   1      35.489  14.965   8.550  0.00  0.00     0.226 C 
HETATM   36  C   UNK N   1      35.387  16.073   9.609  0.00  0.00     0.055 C 
HETATM   37  C   UNK N   1      34.557  15.586  10.789  0.00  0.00     0.128 C 
BRANCH  35  38
HETATM   38  N   UNK N   1      34.170  14.635   7.973  0.00  0.00     0.097 N 
HETATM   39  C   UNK N   1      33.426  15.849   7.581  0.00  0.00     0.299 C 
HETATM   40  C   UNK N   1      33.796  16.342   6.174  0.00  0.00     0.198 C 
HETATM   41  O   UNK N   1      35.032  15.805   5.790  0.00  0.00    -0.388 OA
HETATM   42  C   UNK N   1      34.798  14.440   5.551  0.00  0.00     0.198 C 
HETATM   43  C   UNK N   1      34.332  13.716   6.831  0.00  0.00     0.299 C 
ENDBRANCH  35  38
ENDBRANCH  30  32
BRANCH  30  44
HETATM   44  O   UNK N   1      36.247  15.281  13.149  0.00  0.00    -0.333 OA
HETATM   45  H   UNK N   1      36.362  15.654  14.001  0.00  0.00     0.220 HD
ENDBRANCH  30  44
ENDBRANCH   1  29
TORSDOF 14
ENDMDL
MODEL 2
REMARK VINA RESULT:      -7.2      2.721      4.694
REMARK  14 active torsions:
REMARK  status: ('A' for Active; 'I' for Inactive)
REMARK    1  A    between atoms: C_9  and  C_2 
REMARK    2  A    between atoms: C_26  and  C_9 
REMARK    3  A    between atoms: C_26  and  C_16 
REMARK    4  A    between atoms: C_23  and  S_43 
REMARK    5  A    between atoms: C_25  and  C_24 
REMARK    6  A    between atoms: C_29  and  C_24 
REMARK    7  A    between atoms: C_26  and  N_32 
REMARK    8  A    between atoms: N_36  and  C_27 
REMARK    9  A    between atoms: S_43  and  C_28 
REMARK   10  A    between atoms: C_30  and  C_29 
REMARK   11  A    between atoms: C_29  and  N_34 
REMARK   12  A    between atoms: C_30  and  O_38 
REMARK   13  A    between atoms: N_37  and  C_31 
REMARK   14  A    between atoms: C_31  and  O_39 
ROOT
HETATM    1  C   UNK N   1      35.297  14.437  11.197  0.00  0.00     0.163 C 
ENDROOT
BRANCH   1   2
HETATM    2  C   UNK N   1      35.110  13.102  11.939  0.00  0.00     0.072 C 
BRANCH   2   3
HETATM    3  C   UNK N   1      35.352  13.360  13.409  0.00  0.00    -0.056 A 
HETATM    4  C   UNK N   1      34.570  12.710  14.375  0.00  0.00     0.007 A 
HETATM    5  C   UNK N   1      34.891  12.818  15.732  0.00  0.00     0.001 A 
HETATM    6  C   UNK N   1      36.009  13.557  16.129  0.00  0.00     0.000 A 
HETATM    7  C   UNK N   1      36.795  14.203  15.171  0.00  0.00     0.001 A 
HETATM    8  C   UNK N   1      36.471  14.101  13.814  0.00  0.00     0.007 A 
ENDBRANCH   2   3
ENDBRANCH   1   2
BRANCH   1   9
HETATM    9  C   UNK N   1      36.621  14.856  10.540  0.00  0.00     0.135 C 
HETATM   10  N   UNK N   1      37.334  14.224   9.653  0.00  0.00    -0.365 N 
ATOM     11  HN  UNK N   1      38.149  14.764   9.364  1.00  0.00     0.162 HD
BRANCH  10  12
HETATM   12  C   UNK N   1      37.264  12.942   8.971  0.00  0.00     0.107 C 
BRANCH  12  13
HETATM   13  C   UNK N   1      36.588  13.009   7.600  0.00  0.00     0.029 C 
BRANCH  13  14
HETATM   14  C   UNK N   1      36.122  14.365   7.132  0.00  0.00    -0.002 C 
HETATM   15  C   UNK N   1      36.075  14.358   5.617  0.00  0.00     0.005 C 
ENDBRANCH  13  14
ENDBRANCH  12  13
BRANCH  12  16
HETATM   16  C   UNK N   1      38.509  12.102   9.037  0.00  0.00     0.010 C 
HETATM   17  C   UNK N   1      38.643  11.001   9.802  0.00  0.00     0.112 C 
BRANCH  17  18
HETATM   18  S   UNK N   1      37.379  10.337  10.917  0.00  0.00     0.196 S 
HETATM   19  O   UNK N   1      38.484   9.309  11.187  0.00  0.00    -0.218 OA
HETATM   20  O   UNK N   1      36.597   9.264  10.146  0.00  0.00    -0.218 OA
BRANCH  18  21
HETATM   21  C   UNK N   1      37.022  10.089  12.673  0.00  0.00     0.063 A 
HETATM   22  C   UNK N   1      37.885  10.576  13.664  0.00  0.00     0.024 A 
HETATM   23  C   UNK N   1      37.607  10.335  15.018  0.00  0.00     0.002 A 
HETATM   24  C   UNK N   1      36.469   9.607  15.383  0.00  0.00     0.000 A 
HETATM   25  C   UNK N   1      35.604   9.125  14.398  0.00  0.00     0.002 A 
HETATM   26  C   UNK N   1      35.879   9.366  13.051  0.00  0.00     0.024 A 
ENDBRANCH  18  21
ENDBRANCH  17  18
ENDBRANCH  12  16
ENDBRANCH  10  12
BRANCH   9  27
HETATM   27  O   UNK N   1      37.088  16.056  10.936  0.00  0.00    -0.348 OA
HETATM   28  H   UNK N   1      37.673  16.755  11.152  0.00  0.00     0.219 HD
ENDBRANCH   9  27
ENDBRANCH   1   9
BRANCH   1  29
HETATM   29  N   UNK N   1      34.226  14.580  10.213  0.00  0.00    -0.344 N 
HETATM   30  C   UNK N   1      33.820  15.729   9.774  0.00  0.00     0.215 C 
ATOM     31  HN  UNK N   1      33.778  13.737   9.856  1.00  0.00     0.164 HD
BRANCH  30  32
HETATM   32  N   UNK N   1      32.767  15.821   8.830  0.00  0.00    -0.348 N 
HETATM   33  C   UNK N   1      32.325  14.674   8.076  0.00  0.00     0.128 C 
HETATM   34  C   UNK N   1      32.459  14.994   6.584  0.00  0.00     0.055 C 
HETATM   35  C   UNK N   1      31.709  16.297   6.242  0.00  0.00     0.226 C 
HETATM   36  C   UNK N   1      32.299  17.439   7.084  0.00  0.00     0.055 C 
HETATM   37  C   UNK N   1      32.167  17.111   8.565  0.00  0.00     0.128 C 
BRANCH  35  38
HETATM   38  N   UNK N   1      30.258  16.144   6.466  0.00  0.00     0.097 N 
HETATM   39  C   UNK N   1      29.543  17.427   6.313  0.00  0.00     0.299 C 
HETATM   40  C   UNK N   1      29.175  17.729   4.853  0.00  0.00     0.198 C 
HETATM   41  O   UNK N   1      29.971  16.963   3.991  0.00  0.00    -0.388 OA
HETATM   42  C   UNK N   1      29.513  15.640   4.124  0.00  0.00     0.198 C 
HETATM   43  C   UNK N   1      29.711  15.116   5.561  0.00  0.00     0.299 C 
ENDBRANCH  35  38
ENDBRANCH  30  32
BRANCH  30  44
HETATM   44  O   UNK N   1      34.390  16.857  10.208  0.00  0.00    -0.333 OA
HETATM   45  H   UNK N   1      34.802  17.127  11.005  0.00  0.00     0.220 HD
ENDBRANCH  30  44
ENDBRANCH   1  29
TORSDOF 14
ENDMDL
MODEL 3
REMARK VINA RESULT:      -7.1      1.957      3.424
REMARK  14 active torsions:
REMARK  status: ('A' for Active; 'I' for Inactive)
REMARK    1  A    between atoms: C_9  and  C_2 
REMARK    2  A    between atoms: C_26  and  C_9 
REMARK    3  A    between atoms: C_26  and  C_16 
REMARK    4  A    between atoms: C_23  and  S_43 
REMARK    5  A    between atoms: C_25  and  C_24 
REMARK    6  A    between atoms: C_29  and  C_24 
REMARK    7  A    between atoms: C_26  and  N_32 
REMARK    8  A    between atoms: N_36  and  C_27 
REMARK    9  A    between atoms: S_43  and  C_28 
REMARK   10  A    between atoms: C_30  and  C_29 
REMARK   11  A    between atoms: C_29  and  N_34 
REMARK   12  A    between atoms: C_30  and  O_38 
REMARK   13  A    between atoms: N_37  and  C_31 
REMARK   14  A    between atoms: C_31  and  O_39 
ROOT
HETATM    1  C   UNK N   1      35.785  12.298  14.541  0.00  0.00     0.163 C 
ENDROOT
BRANCH   1   2
HETATM    2  C   UNK N   1      34.637  11.789  15.430  0.00  0.00     0.072 C 
BRANCH   2   3
HETATM    3  C   UNK N   1      34.994  12.107  16.863  0.00  0.00    -0.056 A 
HETATM    4  C   UNK N   1      34.977  13.435  17.314  0.00  0.00     0.007 A 
HETATM    5  C   UNK N   1      35.148  13.721  18.673  0.00  0.00     0.001 A 
HETATM    6  C   UNK N   1      35.313  12.680  19.591  0.00  0.00     0.000 A 
HETATM    7  C   UNK N   1      35.324  11.354  19.149  0.00  0.00     0.001 A 
HETATM    8  C   UNK N   1      35.161  11.067  17.790  0.00  0.00     0.007 A 
ENDBRANCH   2   3
ENDBRANCH   1   2
BRANCH   1   9
HETATM    9  C   UNK N   1      36.992  11.433  14.149  0.00  0.00     0.135 C 
HETATM   10  N   UNK N   1      37.029  10.175  13.817  0.00  0.00    -0.365 N 
ATOM     11  HN  UNK N   1      37.969   9.875  13.563  1.00  0.00     0.162 HD
BRANCH  10  12
HETATM   12  C   UNK N   1      36.068   9.089  13.718  0.00  0.00     0.107 C 
BRANCH  12  13
HETATM   13  C   UNK N   1      35.688   8.475  15.067  0.00  0.00     0.029 C 
BRANCH  13  14
HETATM   14  C   UNK N   1      36.685   7.533  15.696  0.00  0.00    -0.002 C 
HETATM   15  C   UNK N   1      37.409   8.273  16.802  0.00  0.00     0.005 C 
ENDBRANCH  13  14
ENDBRANCH  12  13
BRANCH  12  16
HETATM   16  C   UNK N   1      34.926   9.315  12.767  0.00  0.00     0.010 C 
HETATM   17  C   UNK N   1      35.071   9.679  11.478  0.00  0.00     0.112 C 
BRANCH  17  18
HETATM   18  S   UNK N   1      36.650   9.994  10.647  0.00  0.00     0.196 S 
HETATM   19  O   UNK N   1      35.710  10.285   9.470  0.00  0.00    -0.218 OA
HETATM   20  O   UNK N   1      37.080   8.693   9.957  0.00  0.00    -0.218 OA
BRANCH  18  21
HETATM   21  C   UNK N   1      37.626  11.328   9.912  0.00  0.00     0.063 A 
HETATM   22  C   UNK N   1      38.180  12.343  10.704  0.00  0.00     0.024 A 
HETATM   23  C   UNK N   1      38.899  13.388  10.105  0.00  0.00     0.002 A 
HETATM   24  C   UNK N   1      39.064  13.423   8.716  0.00  0.00     0.000 A 
HETATM   25  C   UNK N   1      38.518  12.410   7.924  0.00  0.00     0.002 A 
HETATM   26  C   UNK N   1      37.804  11.368   8.520  0.00  0.00     0.024 A 
ENDBRANCH  18  21
ENDBRANCH  17  18
ENDBRANCH  12  16
ENDBRANCH  10  12
BRANCH   9  27
HETATM   27  O   UNK N   1      38.170  12.088  14.137  0.00  0.00    -0.348 OA
HETATM   28  H   UNK N   1      38.919  12.565  13.838  0.00  0.00     0.219 HD
ENDBRANCH   9  27
ENDBRANCH   1   9
BRANCH   1  29
HETATM   29  N   UNK N   1      35.216  12.878  13.327  0.00  0.00    -0.344 N 
HETATM   30  C   UNK N   1      35.667  13.965  12.785  0.00  0.00     0.215 C 
ATOM     31  HN  UNK N   1      34.429  12.404  12.884  1.00  0.00     0.164 HD
BRANCH  30  32
HETATM   32  N   UNK N   1      35.075  14.499  11.613  0.00  0.00    -0.348 N 
HETATM   33  C   UNK N   1      34.623  13.649  10.539  0.00  0.00     0.128 C 
HETATM   34  C   UNK N   1      35.348  14.065   9.256  0.00  0.00     0.055 C 
HETATM   35  C   UNK N   1      35.153  15.571   8.990  0.00  0.00     0.226 C 
HETATM   36  C   UNK N   1      35.704  16.358  10.188  0.00  0.00     0.055 C 
HETATM   37  C   UNK N   1      34.983  15.935  11.460  0.00  0.00     0.128 C 
BRANCH  35  38
HETATM   38  N   UNK N   1      33.731  15.881   8.737  0.00  0.00     0.097 N 
HETATM   39  C   UNK N   1      33.490  17.337   8.690  0.00  0.00     0.299 C 
HETATM   40  C   UNK N   1      33.753  17.936   7.300  0.00  0.00     0.198 C 
HETATM   41  O   UNK N   1      34.562  17.070   6.553  0.00  0.00    -0.388 OA
HETATM   42  C   UNK N   1      33.749  15.970   6.230  0.00  0.00     0.198 C 
HETATM   43  C   UNK N   1      33.281  15.224   7.497  0.00  0.00     0.299 C 
ENDBRANCH  35  38
ENDBRANCH  30  32
BRANCH  30  44
HETATM   44  O   UNK N   1      36.706  14.607  13.326  0.00  0.00    -0.333 OA
HETATM   45  H   UNK N   1      36.868  15.035  14.144  0.00  0.00     0.220 HD
ENDBRANCH  30  44
ENDBRANCH   1  29
TORSDOF 14
ENDMDL
MODEL 4
REMARK VINA RESULT:      -6.9      9.689     14.912
REMARK  14 active torsions:
REMARK  status: ('A' for Active; 'I' for Inactive)
REMARK    1  A    between atoms: C_9  and  C_2 
REMARK    2  A    between atoms: C_26  and  C_9 
REMARK    3  A    between atoms: C_26  and  C_16 
REMARK    4  A    between atoms: C_23  and  S_43 
REMARK    5  A    between atoms: C_25  and  C_24 
REMARK    6  A    between atoms: C_29  and  C_24 
REMARK    7  A    between atoms: C_26  and  N_32 
REMARK    8  A    between atoms: N_36  and  C_27 
REMARK    9  A    between atoms: S_43  and  C_28 
REMARK   10  A    between atoms: C_30  and  C_29 
REMARK   11  A    between atoms: C_29  and  N_34 
REMARK   12  A    between atoms: C_30  and  O_38 
REMARK   13  A    between atoms: N_37  and  C_31 
REMARK   14  A    between atoms: C_31  and  O_39 
ROOT
HETATM    1  C   UNK N   1      25.433  15.850   4.823  0.00  0.00     0.163 C 
ENDROOT
BRANCH   1   2
HETATM    2  C   UNK N   1      24.341  16.104   5.876  0.00  0.00     0.072 C 
BRANCH   2   3
HETATM    3  C   UNK N   1      23.593  14.807   6.081  0.00  0.00    -0.056 A 
HETATM    4  C   UNK N   1      23.820  13.722   5.221  0.00  0.00     0.007 A 
HETATM    5  C   UNK N   1      23.256  12.472   5.499  0.00  0.00     0.001 A 
HETATM    6  C   UNK N   1      22.483  12.294   6.650  0.00  0.00     0.000 A 
HETATM    7  C   UNK N   1      22.259  13.370   7.514  0.00  0.00     0.001 A 
HETATM    8  C   UNK N   1      22.816  14.622   7.234  0.00  0.00     0.007 A 
ENDBRANCH   2   3
ENDBRANCH   1   2
BRANCH   1   9
HETATM    9  C   UNK N   1      25.414  16.480   3.422  0.00  0.00     0.135 C 
HETATM   10  N   UNK N   1      25.354  17.736   3.088  0.00  0.00    -0.365 N 
ATOM     11  HN  UNK N   1      25.400  17.864   2.077  1.00  0.00     0.162 HD
BRANCH  10  12
HETATM   12  C   UNK N   1      25.235  19.004   3.789  0.00  0.00     0.107 C 
BRANCH  12  13
HETATM   13  C   UNK N   1      26.532  19.462   4.460  0.00  0.00     0.029 C 
BRANCH  13  14
HETATM   14  C   UNK N   1      26.600  20.902   4.905  0.00  0.00    -0.002 C 
HETATM   15  C   UNK N   1      26.766  20.929   6.411  0.00  0.00     0.005 C 
ENDBRANCH  13  14
ENDBRANCH  12  13
BRANCH  12  16
HETATM   16  C   UNK N   1      24.468  20.076   3.069  0.00  0.00     0.010 C 
HETATM   17  C   UNK N   1      23.124  20.183   3.073  0.00  0.00     0.112 C 
BRANCH  17  18
HETATM   18  S   UNK N   1      21.984  19.052   3.911  0.00  0.00     0.196 S 
HETATM   19  O   UNK N   1      21.324  19.057   2.526  0.00  0.00    -0.218 OA
HETATM   20  O   UNK N   1      20.814  19.886   4.450  0.00  0.00    -0.218 OA
BRANCH  18  21
HETATM   21  C   UNK N   1      21.447  17.325   3.918  0.00  0.00     0.063 A 
HETATM   22  C   UNK N   1      21.821  16.445   2.894  0.00  0.00     0.024 A 
HETATM   23  C   UNK N   1      21.357  15.120   2.902  0.00  0.00     0.002 A 
HETATM   24  C   UNK N   1      20.520  14.674   3.930  0.00  0.00     0.000 A 
HETATM   25  C   UNK N   1      20.150  15.547   4.956  0.00  0.00     0.002 A 
HETATM   26  C   UNK N   1      20.612  16.864   4.950  0.00  0.00     0.024 A 
ENDBRANCH  18  21
ENDBRANCH  17  18
ENDBRANCH  12  16
ENDBRANCH  10  12
BRANCH   9  27
HETATM   27  O   UNK N   1      25.486  15.595   2.409  0.00  0.00    -0.348 OA
HETATM   28  H   UNK N   1      25.525  15.234   1.545  0.00  0.00     0.219 HD
ENDBRANCH   9  27
ENDBRANCH   1   9
BRANCH   1  29
HETATM   29  N   UNK N   1      26.737  16.106   5.429  0.00  0.00    -0.344 N 
HETATM   30  C   UNK N   1      27.783  15.379   5.188  0.00  0.00     0.215 C 
ATOM     31  HN  UNK N   1      26.830  16.893   6.070  1.00  0.00     0.164 HD
BRANCH  30  32
HETATM   32  N   UNK N   1      29.026  15.657   5.810  0.00  0.00    -0.348 N 
HETATM   33  C   UNK N   1      29.191  16.776   6.703  0.00  0.00     0.128 C 
HETATM   34  C   UNK N   1      30.308  17.671   6.157  0.00  0.00     0.055 C 
HETATM   35  C   UNK N   1      31.594  16.851   5.933  0.00  0.00     0.226 C 
HETATM   36  C   UNK N   1      31.289  15.719   4.940  0.00  0.00     0.055 C 
HETATM   37  C   UNK N   1      30.175  14.838   5.487  0.00  0.00     0.128 C 
BRANCH  35  38
HETATM   38  N   UNK N   1      32.118  16.332   7.212  0.00  0.00     0.097 N 
HETATM   39  C   UNK N   1      33.298  15.467   7.009  0.00  0.00     0.299 C 
HETATM   40  C   UNK N   1      34.608  16.263   6.921  0.00  0.00     0.198 C 
HETATM   41  O   UNK N   1      34.334  17.602   6.614  0.00  0.00    -0.388 OA
HETATM   42  C   UNK N   1      33.755  18.148   7.774  0.00  0.00     0.198 C 
HETATM   43  C   UNK N   1      32.426  17.449   8.124  0.00  0.00     0.299 C 
ENDBRANCH  35  38
ENDBRANCH  30  32
BRANCH  30  44
HETATM   44  O   UNK N   1      27.706  14.347   4.344  0.00  0.00    -0.333 OA
HETATM   45  H   UNK N   1      28.228  13.587   4.175  0.00  0.00     0.220 HD
ENDBRANCH  30  44
ENDBRANCH   1  29
TORSDOF 14
ENDMDL
MODEL 5
REMARK VINA RESULT:      -6.9      7.131     12.990
REMARK  14 active torsions:
REMARK  status: ('A' for Active; 'I' for Inactive)
REMARK    1  A    between atoms: C_9  and  C_2 
REMARK    2  A    between atoms: C_26  and  C_9 
REMARK    3  A    between atoms: C_26  and  C_16 
REMARK    4  A    between atoms: C_23  and  S_43 
REMARK    5  A    between atoms: C_25  and  C_24 
REMARK    6  A    between atoms: C_29  and  C_24 
REMARK    7  A    between atoms: C_26  and  N_32 
REMARK    8  A    between atoms: N_36  and  C_27 
REMARK    9  A    between atoms: S_43  and  C_28 
REMARK   10  A    between atoms: C_30  and  C_29 
REMARK   11  A    between atoms: C_29  and  N_34 
REMARK   12  A    between atoms: C_30  and  O_38 
REMARK   13  A    between atoms: N_37  and  C_31 
REMARK   14  A    between atoms: C_31  and  O_39 
ROOT
HETATM    1  C   UNK N   1      29.662  16.168   4.935  0.00  0.00     0.163 C 
ENDROOT
BRANCH   1   2
HETATM    2  C   UNK N   1      28.325  15.534   5.357  0.00  0.00     0.072 C 
BRANCH   2   3
HETATM    3  C   UNK N   1      27.811  14.731   4.185  0.00  0.00    -0.056 A 
HETATM    4  C   UNK N   1      27.725  13.333   4.275  0.00  0.00     0.007 A 
HETATM    5  C   UNK N   1      27.102  12.599   3.260  0.00  0.00     0.001 A 
HETATM    6  C   UNK N   1      26.541  13.258   2.162  0.00  0.00     0.000 A 
HETATM    7  C   UNK N   1      26.618  14.651   2.071  0.00  0.00     0.001 A 
HETATM    8  C   UNK N   1      27.247  15.386   3.081  0.00  0.00     0.007 A 
ENDBRANCH   2   3
ENDBRANCH   1   2
BRANCH   1   9
HETATM    9  C   UNK N   1      29.784  17.608   4.415  0.00  0.00     0.135 C 
HETATM   10  N   UNK N   1      28.901  18.563   4.429  0.00  0.00    -0.365 N 
ATOM     11  HN  UNK N   1      29.275  19.434   4.051  1.00  0.00     0.162 HD
BRANCH  10  12
HETATM   12  C   UNK N   1      27.515  18.705   4.845  0.00  0.00     0.107 C 
BRANCH  12  13
HETATM   13  C   UNK N   1      27.336  19.509   6.134  0.00  0.00     0.029 C 
BRANCH  13  14
HETATM   14  C   UNK N   1      27.506  21.005   6.037  0.00  0.00    -0.002 C 
HETATM   15  C   UNK N   1      26.411  21.665   6.850  0.00  0.00     0.005 C 
ENDBRANCH  13  14
ENDBRANCH  12  13
BRANCH  12  16
HETATM   16  C   UNK N   1      26.536  19.018   3.748  0.00  0.00     0.010 C 
HETATM   17  C   UNK N   1      25.272  18.551   3.701  0.00  0.00     0.112 C 
BRANCH  17  18
HETATM   18  S   UNK N   1      24.518  17.441   4.917  0.00  0.00     0.196 S 
HETATM   19  O   UNK N   1      23.849  16.884   3.654  0.00  0.00    -0.218 OA
HETATM   20  O   UNK N   1      23.174  18.053   5.335  0.00  0.00    -0.218 OA
BRANCH  18  21
HETATM   21  C   UNK N   1      24.489  15.706   5.430  0.00  0.00     0.063 A 
HETATM   22  C   UNK N   1      25.074  15.297   6.636  0.00  0.00     0.024 A 
HETATM   23  C   UNK N   1      25.074  13.940   6.992  0.00  0.00     0.002 A 
HETATM   24  C   UNK N   1      24.491  12.990   6.145  0.00  0.00     0.000 A 
HETATM   25  C   UNK N   1      23.901  13.396   4.946  0.00  0.00     0.002 A 
HETATM   26  C   UNK N   1      23.899  14.746   4.591  0.00  0.00     0.024 A 
ENDBRANCH  18  21
ENDBRANCH  17  18
ENDBRANCH  12  16
ENDBRANCH  10  12
BRANCH   9  27
HETATM   27  O   UNK N   1      30.985  17.913   3.887  0.00  0.00    -0.348 OA
HETATM   28  H   UNK N   1      31.668  18.369   3.436  0.00  0.00     0.219 HD
ENDBRANCH   9  27
ENDBRANCH   1   9
BRANCH   1  29
HETATM   29  N   UNK N   1      30.630  15.981   6.013  0.00  0.00    -0.344 N 
HETATM   30  C   UNK N   1      31.590  15.112   5.958  0.00  0.00     0.215 C 
ATOM     31  HN  UNK N   1      30.548  16.563   6.847  1.00  0.00     0.164 HD
BRANCH  30  32
HETATM   32  N   UNK N   1      32.498  14.955   7.035  0.00  0.00    -0.348 N 
HETATM   33  C   UNK N   1      32.163  15.374   8.373  0.00  0.00     0.128 C 
HETATM   34  C   UNK N   1      33.212  16.388   8.840  0.00  0.00     0.055 C 
HETATM   35  C   UNK N   1      34.630  15.800   8.702  0.00  0.00     0.226 C 
HETATM   36  C   UNK N   1      34.869  15.431   7.230  0.00  0.00     0.055 C 
HETATM   37  C   UNK N   1      33.820  14.427   6.772  0.00  0.00     0.128 C 
BRANCH  35  38
HETATM   38  N   UNK N   1      34.807  14.637   9.595  0.00  0.00     0.097 N 
HETATM   39  C   UNK N   1      36.143  14.027   9.439  0.00  0.00     0.299 C 
HETATM   40  C   UNK N   1      37.212  14.713  10.303  0.00  0.00     0.198 C 
HETATM   41  O   UNK N   1      36.775  15.991  10.676  0.00  0.00    -0.388 OA
HETATM   42  C   UNK N   1      35.750  15.785  11.616  0.00  0.00     0.198 C 
HETATM   43  C   UNK N   1      34.559  15.029  10.994  0.00  0.00     0.299 C 
ENDBRANCH  35  38
ENDBRANCH  30  32
BRANCH  30  44
HETATM   44  O   UNK N   1      31.739  14.340   4.878  0.00  0.00    -0.333 OA
HETATM   45  H   UNK N   1      31.178  13.776   4.383  0.00  0.00     0.220 HD
ENDBRANCH  30  44
ENDBRANCH   1  29
TORSDOF 14
ENDMDL
MODEL 6
REMARK VINA RESULT:      -6.9      9.655     15.165
REMARK  14 active torsions:
REMARK  status: ('A' for Active; 'I' for Inactive)
REMARK    1  A    between atoms: C_9  and  C_2 
REMARK    2  A    between atoms: C_26  and  C_9 
REMARK    3  A    between atoms: C_26  and  C_16 
REMARK    4  A    between atoms: C_23  and  S_43 
REMARK    5  A    between atoms: C_25  and  C_24 
REMARK    6  A    between atoms: C_29  and  C_24 
REMARK    7  A    between atoms: C_26  and  N_32 
REMARK    8  A    between atoms: N_36  and  C_27 
REMARK    9  A    between atoms: S_43  and  C_28 
REMARK   10  A    between atoms: C_30  and  C_29 
REMARK   11  A    between atoms: C_29  and  N_34 
REMARK   12  A    between atoms: C_30  and  O_38 
REMARK   13  A    between atoms: N_37  and  C_31 
REMARK   14  A    between atoms: C_31  and  O_39 
ROOT
HETATM    1  C   UNK N   1      25.759  16.659   4.360  0.00  0.00     0.163 C 
ENDROOT
BRANCH   1   2
HETATM    2  C   UNK N   1      25.608  17.915   3.484  0.00  0.00     0.072 C 
BRANCH   2   3
HETATM    3  C   UNK N   1      26.267  19.063   4.214  0.00  0.00    -0.056 A 
HETATM    4  C   UNK N   1      25.595  19.708   5.263  0.00  0.00     0.007 A 
HETATM    5  C   UNK N   1      26.257  20.659   6.046  0.00  0.00     0.001 A 
HETATM    6  C   UNK N   1      27.602  20.953   5.801  0.00  0.00     0.000 A 
HETATM    7  C   UNK N   1      28.279  20.309   4.761  0.00  0.00     0.001 A 
HETATM    8  C   UNK N   1      27.615  19.363   3.972  0.00  0.00     0.007 A 
ENDBRANCH   2   3
ENDBRANCH   1   2
BRANCH   1   9
HETATM    9  C   UNK N   1      25.259  15.271   3.933  0.00  0.00     0.135 C 
HETATM   10  N   UNK N   1      24.050  14.792   3.954  0.00  0.00    -0.365 N 
ATOM     11  HN  UNK N   1      24.007  13.849   3.569  1.00  0.00     0.162 HD
BRANCH  10  12
HETATM   12  C   UNK N   1      22.743  15.259   4.389  0.00  0.00     0.107 C 
BRANCH  12  13
HETATM   13  C   UNK N   1      21.587  14.747   3.528  0.00  0.00     0.029 C 
BRANCH  13  14
HETATM   14  C   UNK N   1      21.319  15.478   2.236  0.00  0.00    -0.002 C 
HETATM   15  C   UNK N   1      21.693  14.567   1.085  0.00  0.00     0.005 C 
ENDBRANCH  13  14
ENDBRANCH  12  13
BRANCH  12  16
HETATM   16  C   UNK N   1      22.504  15.235   5.872  0.00  0.00     0.010 C 
HETATM   17  C   UNK N   1      21.861  16.203   6.555  0.00  0.00     0.112 C 
BRANCH  17  18
HETATM   18  S   UNK N   1      21.191  17.725   5.837  0.00  0.00     0.196 S 
HETATM   19  O   UNK N   1      22.679  18.099   5.816  0.00  0.00    -0.218 OA
HETATM   20  O   UNK N   1      20.977  18.725   6.982  0.00  0.00    -0.218 OA
BRANCH  18  21
HETATM   21  C   UNK N   1      21.158  18.674   4.297  0.00  0.00     0.063 A 
HETATM   22  C   UNK N   1      20.031  18.664   3.463  0.00  0.00     0.024 A 
HETATM   23  C   UNK N   1      20.045  19.376   2.255  0.00  0.00     0.002 A 
HETATM   24  C   UNK N   1      21.184  20.096   1.875  0.00  0.00     0.000 A 
HETATM   25  C   UNK N   1      22.306  20.113   2.706  0.00  0.00     0.002 A 
HETATM   26  C   UNK N   1      22.292  19.406   3.910  0.00  0.00     0.024 A 
ENDBRANCH  18  21
ENDBRANCH  17  18
ENDBRANCH  12  16
ENDBRANCH  10  12
BRANCH   9  27
HETATM   27  O   UNK N   1      26.218  14.452   3.459  0.00  0.00    -0.348 OA
HETATM   28  H   UNK N   1      26.938  14.123   2.958  0.00  0.00     0.219 HD
ENDBRANCH   9  27
ENDBRANCH   1   9
BRANCH   1  29
HETATM   29  N   UNK N   1      27.155  16.542   4.775  0.00  0.00    -0.344 N 
HETATM   30  C   UNK N   1      27.517  16.436   6.014  0.00  0.00     0.215 C 
ATOM     31  HN  UNK N   1      27.878  16.543   4.055  1.00  0.00     0.164 HD
BRANCH  30  32
HETATM   32  N   UNK N   1      28.885  16.339   6.371  0.00  0.00    -0.348 N 
HETATM   33  C   UNK N   1      29.388  16.900   7.600  0.00  0.00     0.128 C 
HETATM   34  C   UNK N   1      30.496  17.901   7.258  0.00  0.00     0.055 C 
HETATM   35  C   UNK N   1      31.576  17.232   6.385  0.00  0.00     0.226 C 
HETATM   36  C   UNK N   1      30.917  16.711   5.099  0.00  0.00     0.055 C 
HETATM   37  C   UNK N   1      29.814  15.722   5.448  0.00  0.00     0.128 C 
BRANCH  35  38
HETATM   38  N   UNK N   1      32.259  16.153   7.127  0.00  0.00     0.097 N 
HETATM   39  C   UNK N   1      33.190  15.400   6.263  0.00  0.00     0.299 C 
HETATM   40  C   UNK N   1      34.573  16.059   6.167  0.00  0.00     0.198 C 
HETATM   41  O   UNK N   1      34.488  17.405   6.544  0.00  0.00    -0.388 OA
HETATM   42  C   UNK N   1      34.281  17.399   7.935  0.00  0.00     0.198 C 
HETATM   43  C   UNK N   1      32.953  16.707   8.304  0.00  0.00     0.299 C 
ENDBRANCH  35  38
ENDBRANCH  30  32
BRANCH  30  44
HETATM   44  O   UNK N   1      26.600  16.418   6.985  0.00  0.00    -0.333 OA
HETATM   45  H   UNK N   1      25.673  16.284   7.020  0.00  0.00     0.220 HD
ENDBRANCH  30  44
ENDBRANCH   1  29
TORSDOF 14
ENDMDL
MODEL 7
REMARK VINA RESULT:      -6.8      1.504      3.230
REMARK  14 active torsions:
REMARK  status: ('A' for Active; 'I' for Inactive)
REMARK    1  A    between atoms: C_9  and  C_2 
REMARK    2  A    between atoms: C_26  and  C_9 
REMARK    3  A    between atoms: C_26  and  C_16 
REMARK    4  A    between atoms: C_23  and  S_43 
REMARK    5  A    between atoms: C_25  and  C_24 
REMARK    6  A    between atoms: C_29  and  C_24 
REMARK    7  A    between atoms: C_26  and  N_32 
REMARK    8  A    between atoms: N_36  and  C_27 
REMARK    9  A    between atoms: S_43  and  C_28 
REMARK   10  A    between atoms: C_30  and  C_29 
REMARK   11  A    between atoms: C_29  and  N_34 
REMARK   12  A    between atoms: C_30  and  O_38 
REMARK   13  A    between atoms: N_37  and  C_31 
REMARK   14  A    between atoms: C_31  and  O_39 
ROOT
HETATM    1  C   UNK N   1      35.592  13.259  14.745  0.00  0.00     0.163 C 
ENDROOT
BRANCH   1   2
HETATM    2  C   UNK N   1      34.577  12.353  15.464  0.00  0.00     0.072 C 
BRANCH   2   3
HETATM    3  C   UNK N   1      34.953  12.318  16.927  0.00  0.00    -0.056 A 
HETATM    4  C   UNK N   1      34.986  13.506  17.673  0.00  0.00     0.007 A 
HETATM    5  C   UNK N   1      35.174  13.463  19.059  0.00  0.00     0.001 A 
HETATM    6  C   UNK N   1      35.308  12.233  19.709  0.00  0.00     0.000 A 
HETATM    7  C   UNK N   1      35.271  11.046  18.971  0.00  0.00     0.001 A 
HETATM    8  C   UNK N   1      35.089  11.087  17.585  0.00  0.00     0.007 A 
ENDBRANCH   2   3
ENDBRANCH   1   2
BRANCH   1   9
HETATM    9  C   UNK N   1      37.113  13.067  14.849  0.00  0.00     0.135 C 
HETATM   10  N   UNK N   1      37.835  12.038  14.517  0.00  0.00    -0.365 N 
ATOM     11  HN  UNK N   1      38.830  12.209  14.659  1.00  0.00     0.162 HD
BRANCH  10  12
HETATM   12  C   UNK N   1      37.584  10.704  13.997  0.00  0.00     0.107 C 
BRANCH  12  13
HETATM   13  C   UNK N   1      36.990  10.693  12.587  0.00  0.00     0.029 C 
BRANCH  13  14
HETATM   14  C   UNK N   1      36.076   9.544  12.239  0.00  0.00    -0.002 C 
HETATM   15  C   UNK N   1      34.731   9.787  12.893  0.00  0.00     0.005 C 
ENDBRANCH  13  14
ENDBRANCH  12  13
BRANCH  12  16
HETATM   16  C   UNK N   1      38.668   9.693  14.248  0.00  0.00     0.010 C 
HETATM   17  C   UNK N   1      38.537   8.624  15.059  0.00  0.00     0.112 C 
BRANCH  17  18
HETATM   18  S   UNK N   1      37.059   8.211  16.021  0.00  0.00     0.196 S 
HETATM   19  O   UNK N   1      37.812   6.883  16.178  0.00  0.00    -0.218 OA
HETATM   20  O   UNK N   1      36.069   7.515  15.077  0.00  0.00    -0.218 OA
BRANCH  18  21
HETATM   21  C   UNK N   1      36.519   7.850  17.710  0.00  0.00     0.063 A 
HETATM   22  C   UNK N   1      35.227   7.374  17.972  0.00  0.00     0.024 A 
HETATM   23  C   UNK N   1      34.820   7.140  19.294  0.00  0.00     0.002 A 
HETATM   24  C   UNK N   1      35.700   7.384  20.355  0.00  0.00     0.000 A 
HETATM   25  C   UNK N   1      36.989   7.852  20.096  0.00  0.00     0.002 A 
HETATM   26  C   UNK N   1      37.397   8.083  18.781  0.00  0.00     0.024 A 
ENDBRANCH  18  21
ENDBRANCH  17  18
ENDBRANCH  12  16
ENDBRANCH  10  12
BRANCH   9  27
HETATM   27  O   UNK N   1      37.778  14.130  15.341  0.00  0.00    -0.348 OA
HETATM   28  H   UNK N   1      38.269  14.928  15.391  0.00  0.00     0.219 HD
ENDBRANCH   9  27
ENDBRANCH   1   9
BRANCH   1  29
HETATM   29  N   UNK N   1      35.231  13.338  13.331  0.00  0.00    -0.344 N 
HETATM   30  C   UNK N   1      35.607  14.308  12.559  0.00  0.00     0.215 C 
ATOM     31  HN  UNK N   1      34.658  12.594  12.933  1.00  0.00     0.164 HD
BRANCH  30  32
HETATM   32  N   UNK N   1      35.220  14.350  11.196  0.00  0.00    -0.348 N 
HETATM   33  C   UNK N   1      35.776  13.441  10.224  0.00  0.00     0.128 C 
HETATM   34  C   UNK N   1      36.433  14.264   9.112  0.00  0.00     0.055 C 
HETATM   35  C   UNK N   1      35.430  15.276   8.524  0.00  0.00     0.226 C 
HETATM   36  C   UNK N   1      34.946  16.201   9.652  0.00  0.00     0.055 C 
HETATM   37  C   UNK N   1      34.299  15.376  10.755  0.00  0.00     0.128 C 
BRANCH  35  38
HETATM   38  N   UNK N   1      34.306  14.581   7.865  0.00  0.00     0.097 N 
HETATM   39  C   UNK N   1      33.265  15.528   7.417  0.00  0.00     0.299 C 
HETATM   40  C   UNK N   1      33.563  16.126   6.034  0.00  0.00     0.198 C 
HETATM   41  O   UNK N   1      34.924  15.981   5.735  0.00  0.00    -0.388 OA
HETATM   42  C   UNK N   1      35.117  14.610   5.491  0.00  0.00     0.198 C 
HETATM   43  C   UNK N   1      34.804  13.765   6.742  0.00  0.00     0.299 C 
ENDBRANCH  35  38
ENDBRANCH  30  32
BRANCH  30  44
HETATM   44  O   UNK N   1      36.369  15.295  13.039  0.00  0.00    -0.333 OA
HETATM   45  H   UNK N   1      37.088  15.797  12.711  0.00  0.00     0.220 HD
ENDBRANCH  30  44
ENDBRANCH   1  29
TORSDOF 14
ENDMDL
MODEL 8
REMARK VINA RESULT:      -6.8      7.115     12.942
REMARK  14 active torsions:
REMARK  status: ('A' for Active; 'I' for Inactive)
REMARK    1  A    between atoms: C_9  and  C_2 
REMARK    2  A    between atoms: C_26  and  C_9 
REMARK    3  A    between atoms: C_26  and  C_16 
REMARK    4  A    between atoms: C_23  and  S_43 
REMARK    5  A    between atoms: C_25  and  C_24 
REMARK    6  A    between atoms: C_29  and  C_24 
REMARK    7  A    between atoms: C_26  and  N_32 
REMARK    8  A    between atoms: N_36  and  C_27 
REMARK    9  A    between atoms: S_43  and  C_28 
REMARK   10  A    between atoms: C_30  and  C_29 
REMARK   11  A    between atoms: C_29  and  N_34 
REMARK   12  A    between atoms: C_30  and  O_38 
REMARK   13  A    between atoms: N_37  and  C_31 
REMARK   14  A    between atoms: C_31  and  O_39 
ROOT
HETATM    1  C   UNK N   1      28.716  16.090   5.217  0.00  0.00     0.163 C 
ENDROOT
BRANCH   1   2
HETATM    2  C   UNK N   1      27.440  15.726   5.996  0.00  0.00     0.072 C 
BRANCH   2   3
HETATM    3  C   UNK N   1      27.072  14.306   5.631  0.00  0.00    -0.056 A 
HETATM    4  C   UNK N   1      25.958  13.694   6.225  0.00  0.00     0.007 A 
HETATM    5  C   UNK N   1      25.517  12.444   5.775  0.00  0.00     0.001 A 
HETATM    6  C   UNK N   1      26.172  11.811   4.715  0.00  0.00     0.000 A 
HETATM    7  C   UNK N   1      27.278  12.420   4.115  0.00  0.00     0.001 A 
HETATM    8  C   UNK N   1      27.725  13.666   4.568  0.00  0.00     0.007 A 
ENDBRANCH   2   3
ENDBRANCH   1   2
BRANCH   1   9
HETATM    9  C   UNK N   1      28.851  17.366   4.373  0.00  0.00     0.135 C 
HETATM   10  N   UNK N   1      28.540  18.591   4.682  0.00  0.00    -0.365 N 
ATOM     11  HN  UNK N   1      28.781  19.245   3.937  1.00  0.00     0.162 HD
BRANCH  10  12
HETATM   12  C   UNK N   1      27.936  19.265   5.820  0.00  0.00     0.107 C 
BRANCH  12  13
HETATM   13  C   UNK N   1      28.721  19.101   7.123  0.00  0.00     0.029 C 
BRANCH  13  14
HETATM   14  C   UNK N   1      27.986  18.494   8.293  0.00  0.00    -0.002 C 
HETATM   15  C   UNK N   1      28.974  18.287   9.423  0.00  0.00     0.005 C 
ENDBRANCH  13  14
ENDBRANCH  12  13
BRANCH  12  16
HETATM   16  C   UNK N   1      27.411  20.648   5.553  0.00  0.00     0.010 C 
HETATM   17  C   UNK N   1      26.219  20.912   4.983  0.00  0.00     0.112 C 
BRANCH  17  18
HETATM   18  S   UNK N   1      25.035  19.669   4.402  0.00  0.00     0.196 S 
HETATM   19  O   UNK N   1      25.913  19.752   3.147  0.00  0.00    -0.218 OA
HETATM   20  O   UNK N   1      23.920  20.405   3.647  0.00  0.00    -0.218 OA
BRANCH  18  21
HETATM   21  C   UNK N   1      24.921  17.924   3.940  0.00  0.00     0.063 A 
HETATM   22  C   UNK N   1      25.799  17.363   3.002  0.00  0.00     0.024 A 
HETATM   23  C   UNK N   1      25.663  16.017   2.630  0.00  0.00     0.002 A 
HETATM   24  C   UNK N   1      24.652  15.230   3.192  0.00  0.00     0.000 A 
HETATM   25  C   UNK N   1      23.780  15.784   4.132  0.00  0.00     0.002 A 
HETATM   26  C   UNK N   1      23.915  17.123   4.504  0.00  0.00     0.024 A 
ENDBRANCH  18  21
ENDBRANCH  17  18
ENDBRANCH  12  16
ENDBRANCH  10  12
BRANCH   9  27
HETATM   27  O   UNK N   1      29.382  17.175   3.150  0.00  0.00    -0.348 OA
HETATM   28  H   UNK N   1      29.879  16.812   2.443  0.00  0.00     0.219 HD
ENDBRANCH   9  27
ENDBRANCH   1   9
BRANCH   1  29
HETATM   29  N   UNK N   1      29.858  16.010   6.124  0.00  0.00    -0.344 N 
HETATM   30  C   UNK N   1      30.986  15.464   5.794  0.00  0.00     0.215 C 
ATOM     31  HN  UNK N   1      29.764  16.404   7.060  1.00  0.00     0.164 HD
BRANCH  30  32
HETATM   32  N   UNK N   1      32.063  15.397   6.713  0.00  0.00    -0.348 N 
HETATM   33  C   UNK N   1      32.818  14.184   6.906  0.00  0.00     0.128 C 
HETATM   34  C   UNK N   1      32.736  13.792   8.385  0.00  0.00     0.055 C 
HETATM   35  C   UNK N   1      33.190  14.964   9.279  0.00  0.00     0.226 C 
HETATM   36  C   UNK N   1      32.286  16.174   9.000  0.00  0.00     0.055 C 
HETATM   37  C   UNK N   1      32.368  16.553   7.528  0.00  0.00     0.128 C 
BRANCH  35  38
HETATM   38  N   UNK N   1      34.614  15.279   9.050  0.00  0.00     0.097 N 
HETATM   39  C   UNK N   1      35.028  16.495   9.778  0.00  0.00     0.299 C 
HETATM   40  C   UNK N   1      35.438  16.207  11.230  0.00  0.00     0.198 C 
HETATM   41  O   UNK N   1      34.912  14.974  11.638  0.00  0.00    -0.388 OA
HETATM   42  C   UNK N   1      35.647  13.997  10.944  0.00  0.00     0.198 C 
HETATM   43  C   UNK N   1      35.454  14.125   9.419  0.00  0.00     0.299 C 
ENDBRANCH  35  38
ENDBRANCH  30  32
BRANCH  30  44
HETATM   44  O   UNK N   1      31.153  14.948   4.574  0.00  0.00    -0.333 OA
HETATM   45  H   UNK N   1      30.900  14.152   4.149  0.00  0.00     0.220 HD
ENDBRANCH  30  44
ENDBRANCH   1  29
TORSDOF 14
ENDMDL
MODEL 9
REMARK VINA RESULT:      -6.8      2.496      3.990
REMARK  14 active torsions:
REMARK  status: ('A' for Active; 'I' for Inactive)
REMARK    1  A    between atoms: C_9  and  C_2 
REMARK    2  A    between atoms: C_26  and  C_9 
REMARK    3  A    between atoms: C_26  and  C_16 
REMARK    4  A    between atoms: C_23  and  S_43 
REMARK    5  A    between atoms: C_25  and  C_24 
REMARK    6  A    between atoms: C_29  and  C_24 
REMARK    7  A    between atoms: C_26  and  N_32 
REMARK    8  A    between atoms: N_36  and  C_27 
REMARK    9  A    between atoms: S_43  and  C_28 
REMARK   10  A    between atoms: C_30  and  C_29 
REMARK   11  A    between atoms: C_29  and  N_34 
REMARK   12  A    between atoms: C_30  and  O_38 
REMARK   13  A    between atoms: N_37  and  C_31 
REMARK   14  A    between atoms: C_31  and  O_39 
ROOT
HETATM    1  C   UNK N   1      34.657  10.556  12.862  0.00  0.00     0.163 C 
ENDROOT
BRANCH   1   2
HETATM    2  C   UNK N   1      33.641  10.623  14.015  0.00  0.00     0.072 C 
BRANCH   2   3
HETATM    3  C   UNK N   1      34.398  10.993  15.269  0.00  0.00    -0.056 A 
HETATM    4  C   UNK N   1      34.562  12.341  15.620  0.00  0.00     0.007 A 
HETATM    5  C   UNK N   1      35.118  12.686  16.856  0.00  0.00     0.001 A 
HETATM    6  C   UNK N   1      35.492  11.686  17.759  0.00  0.00     0.000 A 
HETATM    7  C   UNK N   1      35.324  10.341  17.418  0.00  0.00     0.001 A 
HETATM    8  C   UNK N   1      34.775   9.994  16.179  0.00  0.00     0.007 A 
ENDBRANCH   2   3
ENDBRANCH   1   2
BRANCH   1   9
HETATM    9  C   UNK N   1      35.063   9.244  12.174  0.00  0.00     0.135 C 
HETATM   10  N   UNK N   1      36.221   8.650  12.155  0.00  0.00    -0.365 N 
ATOM     11  HN  UNK N   1      36.187   7.765  11.651  1.00  0.00     0.162 HD
BRANCH  10  12
HETATM   12  C   UNK N   1      37.551   8.930  12.668  0.00  0.00     0.107 C 
BRANCH  12  13
HETATM   13  C   UNK N   1      37.706   8.654  14.165  0.00  0.00     0.029 C 
BRANCH  13  14
HETATM   14  C   UNK N   1      38.342   9.739  14.999  0.00  0.00    -0.002 C 
HETATM   15  C   UNK N   1      38.030  11.077  14.360  0.00  0.00     0.005 C 
ENDBRANCH  13  14
ENDBRANCH  12  13
BRANCH  12  16
HETATM   16  C   UNK N   1      38.692   8.469  11.806  0.00  0.00     0.010 C 
HETATM   17  C   UNK N   1      39.002   9.000  10.606  0.00  0.00     0.112 C 
BRANCH  17  18
HETATM   18  S   UNK N   1      38.099  10.340   9.787  0.00  0.00     0.196 S 
HETATM   19  O   UNK N   1      39.516  10.705   9.328  0.00  0.00    -0.218 OA
HETATM   20  O   UNK N   1      38.112  11.552  10.728  0.00  0.00    -0.218 OA
BRANCH  18  21
HETATM   21  C   UNK N   1      37.647  10.951   8.146  0.00  0.00     0.063 A 
HETATM   22  C   UNK N   1      38.457  11.869   7.465  0.00  0.00     0.024 A 
HETATM   23  C   UNK N   1      38.064  12.359   6.210  0.00  0.00     0.002 A 
HETATM   24  C   UNK N   1      36.860  11.934   5.635  0.00  0.00     0.000 A 
HETATM   25  C   UNK N   1      36.054  11.014   6.308  0.00  0.00     0.002 A 
HETATM   26  C   UNK N   1      36.445  10.525   7.556  0.00  0.00     0.024 A 
ENDBRANCH  18  21
ENDBRANCH  17  18
ENDBRANCH  12  16
ENDBRANCH  10  12
BRANCH   9  27
HETATM   27  O   UNK N   1      34.064   8.625  11.515  0.00  0.00    -0.348 OA
HETATM   28  H   UNK N   1      33.493   7.956  11.189  0.00  0.00     0.219 HD
ENDBRANCH   9  27
ENDBRANCH   1   9
BRANCH   1  29
HETATM   29  N   UNK N   1      34.264  11.516  11.834  0.00  0.00    -0.344 N 
HETATM   30  C   UNK N   1      34.921  12.608  11.599  0.00  0.00     0.215 C 
ATOM     31  HN  UNK N   1      33.435  11.318  11.274  1.00  0.00     0.164 HD
BRANCH  30  32
HETATM   32  N   UNK N   1      34.495  13.518  10.600  0.00  0.00    -0.348 N 
HETATM   33  C   UNK N   1      34.354  13.118   9.222  0.00  0.00     0.128 C 
HETATM   34  C   UNK N   1      35.247  14.017   8.362  0.00  0.00     0.055 C 
HETATM   35  C   UNK N   1      34.925  15.503   8.621  0.00  0.00     0.226 C 
HETATM   36  C   UNK N   1      35.148  15.802  10.111  0.00  0.00     0.055 C 
HETATM   37  C   UNK N   1      34.261  14.901  10.958  0.00  0.00     0.128 C 
BRANCH  35  38
HETATM   38  N   UNK N   1      33.547  15.824   8.197  0.00  0.00     0.097 N 
HETATM   39  C   UNK N   1      33.133  17.165   8.656  0.00  0.00     0.299 C 
HETATM   40  C   UNK N   1      33.571  18.281   7.697  0.00  0.00     0.198 C 
HETATM   41  O   UNK N   1      34.610  17.824   6.876  0.00  0.00    -0.388 OA
HETATM   42  C   UNK N   1      34.020  16.911   5.986  0.00  0.00     0.198 C 
HETATM   43  C   UNK N   1      33.425  15.700   6.733  0.00  0.00     0.299 C 
ENDBRANCH  35  38
ENDBRANCH  30  32
BRANCH  30  44
HETATM   44  O   UNK N   1      36.020  12.898  12.301  0.00  0.00    -0.333 OA
HETATM   45  H   UNK N   1      36.540  12.445  12.936  0.00  0.00     0.220 HD
ENDBRANCH  30  44
ENDBRANCH   1  29
TORSDOF 14
ENDMDL
