MODEL 1
REMARK VINA RESULT:      -5.7      0.000      0.000
REMARK  12 active torsions:
REMARK  status: ('A' for Active; 'I' for Inactive)
REMARK    1  A    between atoms: N_2  and  C_3 
REMARK    2  A    between atoms: N_2  and  C_26 
REMARK    3  A    between atoms: C_3  and  C_4 
REMARK    4  A    between atoms: C_4  and  C_5 
REMARK    5  A    between atoms: C_5  and  C_6 
REMARK    6  A    between atoms: C_6  and  C_7 
REMARK    7  A    between atoms: C_7  and  C_8 
REMARK    8  A    between atoms: C_8  and  O_9 
REMARK    9  A    between atoms: O_9  and  C_10 
REMARK   10  A    between atoms: C_13  and  C_17 
REMARK   11  A    between atoms: C_17  and  C_19 
REMARK   12  A    between atoms: C_26  and  C_27 
ROOT
HETATM    1  C   UNK N   1      25.831  27.323  -4.085  0.00  0.00     0.071 A 
HETATM    2  C   UNK N   1      25.442  27.310  -5.429  0.00  0.00     0.038 A 
HETATM    3  C   UNK N   1      25.539  26.130  -6.171  0.00  0.00     0.021 A 
HETATM    4  C   UNK N   1      26.026  24.932  -5.607  0.00  0.00     0.053 A 
HETATM    5  C   UNK N   1      26.424  24.978  -4.231  0.00  0.00     0.133 A 
HETATM    6  F   UNK N   1      26.929  23.941  -3.550  0.00  0.00    -0.205 F 
HETATM    7  C   UNK N   1      26.314  26.162  -3.509  0.00  0.00     0.080 A 
ENDROOT
BRANCH   1   8
HETATM    8  O   UNK N   1      25.769  28.436  -3.323  0.00  0.00    -0.351 OA
BRANCH   8   9
HETATM    9  C   UNK N   1      26.824  29.291  -3.132  0.00  0.00     0.175 C 
BRANCH   9  10
HETATM   10  C   UNK N   1      26.713  30.427  -4.130  0.00  0.00     0.027 C 
BRANCH  10  11
HETATM   11  C   UNK N   1      27.839  30.372  -5.148  0.00  0.00     0.002 C 
BRANCH  11  12
HETATM   12  C   UNK N   1      28.844  29.289  -4.790  0.00  0.00     0.002 C 
BRANCH  12  13
HETATM   13  C   UNK N   1      28.955  28.280  -5.920  0.00  0.00     0.030 C 
BRANCH  13  14
HETATM   14  C   UNK N   1      29.505  26.963  -5.401  0.00  0.00     0.272 C 
BRANCH  14  15
HETATM   15  N   UNK N   1      30.889  27.138  -4.992  0.00  0.00     0.087 N 
HETATM   16  C   UNK N   1      31.707  26.519  -6.023  0.00  0.00     0.310 C 
BRANCH  15  17
HETATM   17  C   UNK N   1      31.078  26.388  -3.758  0.00  0.00     0.298 C 
BRANCH  17  18
HETATM   18  C   UNK N   1      30.094  25.266  -3.679  0.00  0.00    -0.007 C 
HETATM   19  C   UNK N   1      30.464  24.087  -3.191  0.00  0.00     0.008 C 
ENDBRANCH  17  18
ENDBRANCH  15  17
ENDBRANCH  14  15
ENDBRANCH  13  14
ENDBRANCH  12  13
ENDBRANCH  11  12
ENDBRANCH  10  11
ENDBRANCH   9  10
ENDBRANCH   8   9
ENDBRANCH   1   8
BRANCH   4  20
HETATM   20  C   UNK N   1      26.072  23.728  -6.535  0.00  0.00     0.195 C 
HETATM   21  O   UNK N   1      25.037  23.479  -7.155  0.00  0.00    -0.287 OA
BRANCH  20  22
HETATM   22  C   UNK N   1      27.221  22.793  -6.780  0.00  0.00     0.015 A 
HETATM   23  C   UNK N   1      27.078  21.750  -7.714  0.00  0.00     0.017 A 
HETATM   24  C   UNK N   1      28.130  20.858  -7.964  0.00  0.00     0.020 A 
HETATM   25  C   UNK N   1      29.341  21.000  -7.279  0.00  0.00     0.011 A 
HETATM   26 Br   UNK N   1      30.790  19.807  -7.599  0.00  0.00    -0.051 Br
HETATM   27  C   UNK N   1      29.493  22.023  -6.351  0.00  0.00     0.020 A 
HETATM   28  C   UNK N   1      28.440  22.900  -6.110  0.00  0.00     0.017 A 
ENDBRANCH  20  22
ENDBRANCH   4  20
TORSDOF 12
ENDMDL
MODEL 2
REMARK VINA RESULT:      -5.6      2.668      4.826
REMARK  12 active torsions:
REMARK  status: ('A' for Active; 'I' for Inactive)
REMARK    1  A    between atoms: N_2  and  C_3 
REMARK    2  A    between atoms: N_2  and  C_26 
REMARK    3  A    between atoms: C_3  and  C_4 
REMARK    4  A    between atoms: C_4  and  C_5 
REMARK    5  A    between atoms: C_5  and  C_6 
REMARK    6  A    between atoms: C_6  and  C_7 
REMARK    7  A    between atoms: C_7  and  C_8 
REMARK    8  A    between atoms: C_8  and  O_9 
REMARK    9  A    between atoms: O_9  and  C_10 
REMARK   10  A    between atoms: C_13  and  C_17 
REMARK   11  A    between atoms: C_17  and  C_19 
REMARK   12  A    between atoms: C_26  and  C_27 
ROOT
HETATM    1  C   UNK N   1      27.158  25.928  -3.868  0.00  0.00     0.071 A 
HETATM    2  C   UNK N   1      26.873  24.678  -3.306  0.00  0.00     0.038 A 
HETATM    3  C   UNK N   1      27.916  23.810  -2.972  0.00  0.00     0.021 A 
HETATM    4  C   UNK N   1      29.269  24.151  -3.186  0.00  0.00     0.053 A 
HETATM    5  C   UNK N   1      29.528  25.433  -3.771  0.00  0.00     0.133 A 
HETATM    6  F   UNK N   1      30.749  25.902  -4.064  0.00  0.00    -0.205 F 
HETATM    7  C   UNK N   1      28.476  26.284  -4.091  0.00  0.00     0.080 A 
ENDROOT
BRANCH   1   8
HETATM    8  O   UNK N   1      26.192  26.801  -4.219  0.00  0.00    -0.351 OA
BRANCH   8   9
HETATM    9  C   UNK N   1      26.153  27.454  -5.425  0.00  0.00     0.175 C 
BRANCH   9  10
HETATM   10  C   UNK N   1      25.181  26.731  -6.336  0.00  0.00     0.027 C 
BRANCH  10  11
HETATM   11  C   UNK N   1      25.906  26.072  -7.497  0.00  0.00     0.002 C 
BRANCH  11  12
HETATM   12  C   UNK N   1      26.055  24.577  -7.268  0.00  0.00     0.002 C 
BRANCH  12  13
HETATM   13  C   UNK N   1      27.511  24.225  -7.021  0.00  0.00     0.030 C 
BRANCH  13  14
HETATM   14  C   UNK N   1      27.642  22.770  -6.605  0.00  0.00     0.272 C 
BRANCH  14  15
HETATM   15  N   UNK N   1      29.046  22.425  -6.465  0.00  0.00     0.087 N 
HETATM   16  C   UNK N   1      29.794  23.425  -7.212  0.00  0.00     0.310 C 
BRANCH  15  17
HETATM   17  C   UNK N   1      29.247  21.137  -7.115  0.00  0.00     0.298 C 
BRANCH  17  18
HETATM   18  C   UNK N   1      28.200  20.915  -8.157  0.00  0.00    -0.007 C 
HETATM   19  C   UNK N   1      28.551  20.637  -9.408  0.00  0.00     0.008 C 
ENDBRANCH  17  18
ENDBRANCH  15  17
ENDBRANCH  14  15
ENDBRANCH  13  14
ENDBRANCH  12  13
ENDBRANCH  11  12
ENDBRANCH  10  11
ENDBRANCH   9  10
ENDBRANCH   8   9
ENDBRANCH   1   8
BRANCH   4  20
HETATM   20  C   UNK N   1      30.294  23.108  -2.771  0.00  0.00     0.195 C 
HETATM   21  O   UNK N   1      30.474  22.973  -1.560  0.00  0.00    -0.287 OA
BRANCH  20  22
HETATM   22  C   UNK N   1      31.127  22.227  -3.657  0.00  0.00     0.015 A 
HETATM   23  C   UNK N   1      32.166  22.795  -4.420  0.00  0.00     0.017 A 
HETATM   24  C   UNK N   1      32.959  22.001  -5.259  0.00  0.00     0.020 A 
HETATM   25  C   UNK N   1      32.721  20.626  -5.346  0.00  0.00     0.011 A 
HETATM   26 Br   UNK N   1      33.785  19.520  -6.474  0.00  0.00    -0.051 Br
HETATM   27  C   UNK N   1      31.697  20.054  -4.603  0.00  0.00     0.020 A 
HETATM   28  C   UNK N   1      30.914  20.853  -3.775  0.00  0.00     0.017 A 
ENDBRANCH  20  22
ENDBRANCH   4  20
TORSDOF 12
ENDMDL
MODEL 3
REMARK VINA RESULT:      -5.5      2.823      4.253
REMARK  12 active torsions:
REMARK  status: ('A' for Active; 'I' for Inactive)
REMARK    1  A    between atoms: N_2  and  C_3 
REMARK    2  A    between atoms: N_2  and  C_26 
REMARK    3  A    between atoms: C_3  and  C_4 
REMARK    4  A    between atoms: C_4  and  C_5 
REMARK    5  A    between atoms: C_5  and  C_6 
REMARK    6  A    between atoms: C_6  and  C_7 
REMARK    7  A    between atoms: C_7  and  C_8 
REMARK    8  A    between atoms: C_8  and  O_9 
REMARK    9  A    between atoms: O_9  and  C_10 
REMARK   10  A    between atoms: C_13  and  C_17 
REMARK   11  A    between atoms: C_17  and  C_19 
REMARK   12  A    between atoms: C_26  and  C_27 
ROOT
HETATM    1  C   UNK N   1      26.790  24.330  -4.776  0.00  0.00     0.071 A 
HETATM    2  C   UNK N   1      26.874  24.201  -3.384  0.00  0.00     0.038 A 
HETATM    3  C   UNK N   1      28.024  23.661  -2.803  0.00  0.00     0.021 A 
HETATM    4  C   UNK N   1      29.121  23.230  -3.578  0.00  0.00     0.053 A 
HETATM    5  C   UNK N   1      29.002  23.366  -5.000  0.00  0.00     0.133 A 
HETATM    6  F   UNK N   1      29.937  22.986  -5.881  0.00  0.00    -0.205 F 
HETATM    7  C   UNK N   1      27.851  23.912  -5.559  0.00  0.00     0.080 A 
ENDROOT
BRANCH   1   8
HETATM    8  O   UNK N   1      25.701  24.835  -5.392  0.00  0.00    -0.351 OA
BRANCH   8   9
HETATM    9  C   UNK N   1      25.265  26.126  -5.236  0.00  0.00     0.175 C 
BRANCH   9  10
HETATM   10  C   UNK N   1      25.792  26.958  -6.388  0.00  0.00     0.027 C 
BRANCH  10  11
HETATM   11  C   UNK N   1      26.768  28.014  -5.898  0.00  0.00     0.002 C 
BRANCH  11  12
HETATM   12  C   UNK N   1      28.185  27.698  -6.349  0.00  0.00     0.002 C 
BRANCH  12  13
HETATM   13  C   UNK N   1      29.051  27.343  -5.153  0.00  0.00     0.030 C 
BRANCH  13  14
HETATM   14  C   UNK N   1      30.170  28.358  -4.991  0.00  0.00     0.272 C 
BRANCH  14  15
HETATM   15  N   UNK N   1      31.433  27.665  -4.796  0.00  0.00     0.087 N 
HETATM   16  C   UNK N   1      32.428  28.396  -5.565  0.00  0.00     0.310 C 
BRANCH  15  17
HETATM   17  C   UNK N   1      31.299  26.338  -5.382  0.00  0.00     0.298 C 
BRANCH  17  18
HETATM   18  C   UNK N   1      32.105  25.348  -4.605  0.00  0.00    -0.007 C 
HETATM   19  C   UNK N   1      32.878  24.473  -5.240  0.00  0.00     0.008 C 
ENDBRANCH  17  18
ENDBRANCH  15  17
ENDBRANCH  14  15
ENDBRANCH  13  14
ENDBRANCH  12  13
ENDBRANCH  11  12
ENDBRANCH  10  11
ENDBRANCH   9  10
ENDBRANCH   8   9
ENDBRANCH   1   8
BRANCH   4  20
HETATM   20  C   UNK N   1      30.303  22.666  -2.807  0.00  0.00     0.195 C 
HETATM   21  O   UNK N   1      30.462  23.095  -1.663  0.00  0.00    -0.287 OA
BRANCH  20  22
HETATM   22  C   UNK N   1      31.314  21.657  -3.272  0.00  0.00     0.015 A 
HETATM   23  C   UNK N   1      32.629  21.712  -2.771  0.00  0.00     0.017 A 
HETATM   24  C   UNK N   1      33.597  20.788  -3.187  0.00  0.00     0.020 A 
HETATM   25  C   UNK N   1      33.259  19.795  -4.113  0.00  0.00     0.011 A 
HETATM   26 Br   UNK N   1      34.551  18.522  -4.694  0.00  0.00    -0.051 Br
HETATM   27  C   UNK N   1      31.967  19.733  -4.617  0.00  0.00     0.020 A 
HETATM   28  C   UNK N   1      31.015  20.658  -4.199  0.00  0.00     0.017 A 
ENDBRANCH  20  22
ENDBRANCH   4  20
TORSDOF 12
ENDMDL
MODEL 4
REMARK VINA RESULT:      -5.5      2.107      3.502
REMARK  12 active torsions:
REMARK  status: ('A' for Active; 'I' for Inactive)
REMARK    1  A    between atoms: N_2  and  C_3 
REMARK    2  A    between atoms: N_2  and  C_26 
REMARK    3  A    between atoms: C_3  and  C_4 
REMARK    4  A    between atoms: C_4  and  C_5 
REMARK    5  A    between atoms: C_5  and  C_6 
REMARK    6  A    between atoms: C_6  and  C_7 
REMARK    7  A    between atoms: C_7  and  C_8 
REMARK    8  A    between atoms: C_8  and  O_9 
REMARK    9  A    between atoms: O_9  and  C_10 
REMARK   10  A    between atoms: C_13  and  C_17 
REMARK   11  A    between atoms: C_17  and  C_19 
REMARK   12  A    between atoms: C_26  and  C_27 
ROOT
HETATM    1  C   UNK N   1      28.156  29.670  -3.630  0.00  0.00     0.071 A 
HETATM    2  C   UNK N   1      27.962  29.624  -5.015  0.00  0.00     0.038 A 
HETATM    3  C   UNK N   1      27.041  28.726  -5.560  0.00  0.00     0.021 A 
HETATM    4  C   UNK N   1      26.288  27.846  -4.752  0.00  0.00     0.053 A 
HETATM    5  C   UNK N   1      26.516  27.911  -3.339  0.00  0.00     0.133 A 
HETATM    6  F   UNK N   1      25.906  27.132  -2.434  0.00  0.00    -0.205 F 
HETATM    7  C   UNK N   1      27.434  28.816  -2.816  0.00  0.00     0.080 A 
ENDROOT
BRANCH   1   8
HETATM    8  O   UNK N   1      29.040  30.510  -3.049  0.00  0.00    -0.351 OA
BRANCH   8   9
HETATM    9  C   UNK N   1      30.391  30.475  -3.280  0.00  0.00     0.175 C 
BRANCH   9  10
HETATM   10  C   UNK N   1      30.999  29.371  -2.438  0.00  0.00     0.027 C 
BRANCH  10  11
HETATM   11  C   UNK N   1      31.599  28.284  -3.314  0.00  0.00     0.002 C 
BRANCH  11  12
HETATM   12  C   UNK N   1      30.726  27.039  -3.310  0.00  0.00     0.002 C 
BRANCH  12  13
HETATM   13  C   UNK N   1      30.375  26.638  -4.732  0.00  0.00     0.030 C 
BRANCH  13  14
HETATM   14  C   UNK N   1      29.184  25.696  -4.738  0.00  0.00     0.272 C 
BRANCH  14  15
HETATM   15  N   UNK N   1      29.640  24.328  -4.562  0.00  0.00     0.087 N 
HETATM   16  C   UNK N   1      29.485  23.672  -5.851  0.00  0.00     0.310 C 
BRANCH  15  17
HETATM   17  C   UNK N   1      28.737  23.683  -3.619  0.00  0.00     0.298 C 
BRANCH  17  18
HETATM   18  C   UNK N   1      29.507  22.812  -2.680  0.00  0.00    -0.007 C 
HETATM   19  C   UNK N   1      30.821  22.964  -2.556  0.00  0.00     0.008 C 
ENDBRANCH  17  18
ENDBRANCH  15  17
ENDBRANCH  14  15
ENDBRANCH  13  14
ENDBRANCH  12  13
ENDBRANCH  11  12
ENDBRANCH  10  11
ENDBRANCH   9  10
ENDBRANCH   8   9
ENDBRANCH   1   8
BRANCH   4  20
HETATM   20  C   UNK N   1      25.323  26.928  -5.485  0.00  0.00     0.195 C 
HETATM   21  O   UNK N   1      24.156  27.316  -5.563  0.00  0.00    -0.287 OA
BRANCH  20  22
HETATM   22  C   UNK N   1      25.613  25.597  -6.117  0.00  0.00     0.015 A 
HETATM   23  C   UNK N   1      25.943  25.536  -7.484  0.00  0.00     0.017 A 
HETATM   24  C   UNK N   1      26.214  24.309  -8.105  0.00  0.00     0.020 A 
HETATM   25  C   UNK N   1      26.158  23.125  -7.363  0.00  0.00     0.011 A 
HETATM   26 Br   UNK N   1      26.526  21.444  -8.176  0.00  0.00    -0.051 Br
HETATM   27  C   UNK N   1      25.829  23.172  -6.014  0.00  0.00     0.020 A 
HETATM   28  C   UNK N   1      25.559  24.396  -5.409  0.00  0.00     0.017 A 
ENDBRANCH  20  22
ENDBRANCH   4  20
TORSDOF 12
ENDMDL
MODEL 5
REMARK VINA RESULT:      -5.5      3.077      4.590
REMARK  12 active torsions:
REMARK  status: ('A' for Active; 'I' for Inactive)
REMARK    1  A    between atoms: N_2  and  C_3 
REMARK    2  A    between atoms: N_2  and  C_26 
REMARK    3  A    between atoms: C_3  and  C_4 
REMARK    4  A    between atoms: C_4  and  C_5 
REMARK    5  A    between atoms: C_5  and  C_6 
REMARK    6  A    between atoms: C_6  and  C_7 
REMARK    7  A    between atoms: C_7  and  C_8 
REMARK    8  A    between atoms: C_8  and  O_9 
REMARK    9  A    between atoms: O_9  and  C_10 
REMARK   10  A    between atoms: C_13  and  C_17 
REMARK   11  A    between atoms: C_17  and  C_19 
REMARK   12  A    between atoms: C_26  and  C_27 
ROOT
HETATM    1  C   UNK N   1      26.867  24.488  -4.844  0.00  0.00     0.071 A 
HETATM    2  C   UNK N   1      26.871  24.286  -3.459  0.00  0.00     0.038 A 
HETATM    3  C   UNK N   1      27.986  23.713  -2.842  0.00  0.00     0.021 A 
HETATM    4  C   UNK N   1      29.125  23.319  -3.576  0.00  0.00     0.053 A 
HETATM    5  C   UNK N   1      29.088  23.531  -4.992  0.00  0.00     0.133 A 
HETATM    6  F   UNK N   1      30.071  23.194  -5.838  0.00  0.00    -0.205 F 
HETATM    7  C   UNK N   1      27.970  24.108  -5.586  0.00  0.00     0.080 A 
ENDROOT
BRANCH   1   8
HETATM    8  O   UNK N   1      25.814  25.028  -5.494  0.00  0.00    -0.351 OA
BRANCH   8   9
HETATM    9  C   UNK N   1      25.869  26.211  -6.186  0.00  0.00     0.175 C 
BRANCH   9  10
HETATM   10  C   UNK N   1      24.812  27.146  -5.632  0.00  0.00     0.027 C 
BRANCH  10  11
HETATM   11  C   UNK N   1      25.388  28.041  -4.548  0.00  0.00     0.002 C 
BRANCH  11  12
HETATM   12  C   UNK N   1      26.847  28.364  -4.827  0.00  0.00     0.002 C 
BRANCH  12  13
HETATM   13  C   UNK N   1      27.604  28.545  -3.523  0.00  0.00     0.030 C 
BRANCH  13  14
HETATM   14  C   UNK N   1      29.101  28.477  -3.766  0.00  0.00     0.272 C 
BRANCH  14  15
HETATM   15  N   UNK N   1      29.811  28.799  -2.539  0.00  0.00     0.087 N 
HETATM   16  C   UNK N   1      29.109  29.922  -1.939  0.00  0.00     0.310 C 
BRANCH  15  17
HETATM   17  C   UNK N   1      31.145  29.251  -2.911  0.00  0.00     0.298 C 
BRANCH  17  18
HETATM   18  C   UNK N   1      32.030  29.291  -1.708  0.00  0.00    -0.007 C 
HETATM   19  C   UNK N   1      33.163  29.986  -1.737  0.00  0.00     0.008 C 
ENDBRANCH  17  18
ENDBRANCH  15  17
ENDBRANCH  14  15
ENDBRANCH  13  14
ENDBRANCH  12  13
ENDBRANCH  11  12
ENDBRANCH  10  11
ENDBRANCH   9  10
ENDBRANCH   8   9
ENDBRANCH   1   8
BRANCH   4  20
HETATM   20  C   UNK N   1      30.262  22.712  -2.769  0.00  0.00     0.195 C 
HETATM   21  O   UNK N   1      30.355  23.082  -1.597  0.00  0.00    -0.287 OA
BRANCH  20  22
HETATM   22  C   UNK N   1      31.296  21.725  -3.227  0.00  0.00     0.015 A 
HETATM   23  C   UNK N   1      30.937  20.722  -4.148  0.00  0.00     0.017 A 
HETATM   24  C   UNK N   1      31.877  19.783  -4.593  0.00  0.00     0.020 A 
HETATM   25  C   UNK N   1      33.192  19.836  -4.118  0.00  0.00     0.011 A 
HETATM   26 Br   UNK N   1      34.494  18.577  -4.707  0.00  0.00    -0.051 Br
HETATM   27  C   UNK N   1      33.557  20.817  -3.206  0.00  0.00     0.020 A 
HETATM   28  C   UNK N   1      32.614  21.743  -2.770  0.00  0.00     0.017 A 
ENDBRANCH  20  22
ENDBRANCH   4  20
TORSDOF 12
ENDMDL
MODEL 6
REMARK VINA RESULT:      -5.5     18.235     21.118
REMARK  12 active torsions:
REMARK  status: ('A' for Active; 'I' for Inactive)
REMARK    1  A    between atoms: N_2  and  C_3 
REMARK    2  A    between atoms: N_2  and  C_26 
REMARK    3  A    between atoms: C_3  and  C_4 
REMARK    4  A    between atoms: C_4  and  C_5 
REMARK    5  A    between atoms: C_5  and  C_6 
REMARK    6  A    between atoms: C_6  and  C_7 
REMARK    7  A    between atoms: C_7  and  C_8 
REMARK    8  A    between atoms: C_8  and  O_9 
REMARK    9  A    between atoms: O_9  and  C_10 
REMARK   10  A    between atoms: C_13  and  C_17 
REMARK   11  A    between atoms: C_17  and  C_19 
REMARK   12  A    between atoms: C_26  and  C_27 
ROOT
HETATM    1  C   UNK N   1      34.671  15.224  11.135  0.00  0.00     0.071 A 
HETATM    2  C   UNK N   1      35.240  16.470  10.847  0.00  0.00     0.038 A 
HETATM    3  C   UNK N   1      34.908  17.129   9.661  0.00  0.00     0.021 A 
HETATM    4  C   UNK N   1      34.009  16.576   8.725  0.00  0.00     0.053 A 
HETATM    5  C   UNK N   1      33.449  15.296   9.045  0.00  0.00     0.133 A 
HETATM    6  F   UNK N   1      32.600  14.620   8.258  0.00  0.00    -0.205 F 
HETATM    7  C   UNK N   1      33.788  14.658  10.233  0.00  0.00     0.080 A 
ENDROOT
BRANCH   1   8
HETATM    8  O   UNK N   1      34.962  14.537  12.260  0.00  0.00    -0.351 OA
BRANCH   8   9
HETATM    9  C   UNK N   1      36.201  14.021  12.541  0.00  0.00     0.175 C 
BRANCH   9  10
HETATM   10  C   UNK N   1      36.270  12.605  12.003  0.00  0.00     0.027 C 
BRANCH  10  11
HETATM   11  C   UNK N   1      37.662  12.022  12.176  0.00  0.00     0.002 C 
BRANCH  11  12
HETATM   12  C   UNK N   1      37.689  11.008  13.308  0.00  0.00     0.002 C 
BRANCH  12  13
HETATM   13  C   UNK N   1      37.578  11.713  14.649  0.00  0.00     0.030 C 
BRANCH  13  14
HETATM   14  C   UNK N   1      36.634  10.958  15.568  0.00  0.00     0.272 C 
BRANCH  14  15
HETATM   15  N   UNK N   1      35.762  11.898  16.252  0.00  0.00     0.087 N 
HETATM   16  C   UNK N   1      35.298  11.229  17.457  0.00  0.00     0.310 C 
BRANCH  15  17
HETATM   17  C   UNK N   1      34.608  12.129  15.394  0.00  0.00     0.298 C 
BRANCH  17  18
HETATM   18  C   UNK N   1      33.974  10.829  15.020  0.00  0.00    -0.007 C 
HETATM   19  C   UNK N   1      33.718  10.555  13.745  0.00  0.00     0.008 C 
ENDBRANCH  17  18
ENDBRANCH  15  17
ENDBRANCH  14  15
ENDBRANCH  13  14
ENDBRANCH  12  13
ENDBRANCH  11  12
ENDBRANCH  10  11
ENDBRANCH   9  10
ENDBRANCH   8   9
ENDBRANCH   1   8
BRANCH   4  20
HETATM   20  C   UNK N   1      33.742  17.409   7.482  0.00  0.00     0.195 C 
HETATM   21  O   UNK N   1      34.579  18.273   7.216  0.00  0.00    -0.287 OA
BRANCH  20  22
HETATM   22  C   UNK N   1      32.575  17.319   6.541  0.00  0.00     0.015 A 
HETATM   23  C   UNK N   1      31.267  17.279   7.062  0.00  0.00     0.017 A 
HETATM   24  C   UNK N   1      30.157  17.192   6.212  0.00  0.00     0.020 A 
HETATM   25  C   UNK N   1      30.342  17.140   4.827  0.00  0.00     0.011 A 
HETATM   26 Br   UNK N   1      28.853  17.026   3.645  0.00  0.00    -0.051 Br
HETATM   27  C   UNK N   1      31.628  17.174   4.301  0.00  0.00     0.020 A 
HETATM   28  C   UNK N   1      32.723  17.259   5.156  0.00  0.00     0.017 A 
ENDBRANCH  20  22
ENDBRANCH   4  20
TORSDOF 12
ENDMDL
MODEL 7
REMARK VINA RESULT:      -5.5     20.023     23.034
REMARK  12 active torsions:
REMARK  status: ('A' for Active; 'I' for Inactive)
REMARK    1  A    between atoms: N_2  and  C_3 
REMARK    2  A    between atoms: N_2  and  C_26 
REMARK    3  A    between atoms: C_3  and  C_4 
REMARK    4  A    between atoms: C_4  and  C_5 
REMARK    5  A    between atoms: C_5  and  C_6 
REMARK    6  A    between atoms: C_6  and  C_7 
REMARK    7  A    between atoms: C_7  and  C_8 
REMARK    8  A    between atoms: C_8  and  O_9 
REMARK    9  A    between atoms: O_9  and  C_10 
REMARK   10  A    between atoms: C_13  and  C_17 
REMARK   11  A    between atoms: C_17  and  C_19 
REMARK   12  A    between atoms: C_26  and  C_27 
ROOT
HETATM    1  C   UNK N   1      37.133  12.881  11.738  0.00  0.00     0.071 A 
HETATM    2  C   UNK N   1      36.385  13.765  12.525  0.00  0.00     0.038 A 
HETATM    3  C   UNK N   1      35.786  14.883  11.940  0.00  0.00     0.021 A 
HETATM    4  C   UNK N   1      35.912  15.162  10.562  0.00  0.00     0.053 A 
HETATM    5  C   UNK N   1      36.690  14.244   9.784  0.00  0.00     0.133 A 
HETATM    6  F   UNK N   1      36.929  14.371   8.472  0.00  0.00    -0.205 F 
HETATM    7  C   UNK N   1      37.273  13.133  10.385  0.00  0.00     0.080 A 
ENDROOT
BRANCH   1   8
HETATM    8  O   UNK N   1      37.741  11.792  12.252  0.00  0.00    -0.351 OA
BRANCH   8   9
HETATM    9  C   UNK N   1      37.157  10.948  13.162  0.00  0.00     0.175 C 
BRANCH   9  10
HETATM   10  C   UNK N   1      36.377   9.888  12.409  0.00  0.00     0.027 C 
BRANCH  10  11
HETATM   11  C   UNK N   1      35.102   9.519  13.148  0.00  0.00     0.002 C 
BRANCH  11  12
HETATM   12  C   UNK N   1      34.172  10.717  13.260  0.00  0.00     0.002 C 
BRANCH  12  13
HETATM   13  C   UNK N   1      33.736  10.911  14.702  0.00  0.00     0.030 C 
BRANCH  13  14
HETATM   14  C   UNK N   1      34.374  12.160  15.284  0.00  0.00     0.272 C 
BRANCH  14  15
HETATM   15  N   UNK N   1      34.886  11.873  16.613  0.00  0.00     0.087 N 
HETATM   16  C   UNK N   1      34.956  13.146  17.314  0.00  0.00     0.310 C 
BRANCH  15  17
HETATM   17  C   UNK N   1      36.245  11.370  16.460  0.00  0.00     0.298 C 
BRANCH  17  18
HETATM   18  C   UNK N   1      36.403  10.078  17.193  0.00  0.00    -0.007 C 
HETATM   19  C   UNK N   1      36.705   8.967  16.529  0.00  0.00     0.008 C 
ENDBRANCH  17  18
ENDBRANCH  15  17
ENDBRANCH  14  15
ENDBRANCH  13  14
ENDBRANCH  12  13
ENDBRANCH  11  12
ENDBRANCH  10  11
ENDBRANCH   9  10
ENDBRANCH   8   9
ENDBRANCH   1   8
BRANCH   4  20
HETATM   20  C   UNK N   1      35.203  16.412  10.066  0.00  0.00     0.195 C 
HETATM   21  O   UNK N   1      35.671  17.488  10.443  0.00  0.00    -0.287 OA
BRANCH  20  22
HETATM   22  C   UNK N   1      33.992  16.500   9.182  0.00  0.00     0.015 A 
HETATM   23  C   UNK N   1      33.176  15.366   9.010  0.00  0.00     0.017 A 
HETATM   24  C   UNK N   1      32.042  15.413   8.189  0.00  0.00     0.020 A 
HETATM   25  C   UNK N   1      31.711  16.600   7.527  0.00  0.00     0.011 A 
HETATM   26 Br   UNK N   1      30.173  16.698   6.408  0.00  0.00    -0.051 Br
HETATM   27  C   UNK N   1      32.511  17.724   7.684  0.00  0.00     0.020 A 
HETATM   28  C   UNK N   1      33.636  17.664   8.501  0.00  0.00     0.017 A 
ENDBRANCH  20  22
ENDBRANCH   4  20
TORSDOF 12
ENDMDL
MODEL 8
REMARK VINA RESULT:      -5.4      3.122      6.758
REMARK  12 active torsions:
REMARK  status: ('A' for Active; 'I' for Inactive)
REMARK    1  A    between atoms: N_2  and  C_3 
REMARK    2  A    between atoms: N_2  and  C_26 
REMARK    3  A    between atoms: C_3  and  C_4 
REMARK    4  A    between atoms: C_4  and  C_5 
REMARK    5  A    between atoms: C_5  and  C_6 
REMARK    6  A    between atoms: C_6  and  C_7 
REMARK    7  A    between atoms: C_7  and  C_8 
REMARK    8  A    between atoms: C_8  and  O_9 
REMARK    9  A    between atoms: O_9  and  C_10 
REMARK   10  A    between atoms: C_13  and  C_17 
REMARK   11  A    between atoms: C_17  and  C_19 
REMARK   12  A    between atoms: C_26  and  C_27 
ROOT
HETATM    1  C   UNK N   1      27.418  21.681  -8.446  0.00  0.00     0.071 A 
HETATM    2  C   UNK N   1      27.695  22.648  -9.420  0.00  0.00     0.038 A 
HETATM    3  C   UNK N   1      27.219  23.952  -9.262  0.00  0.00     0.021 A 
HETATM    4  C   UNK N   1      26.453  24.337  -8.141  0.00  0.00     0.053 A 
HETATM    5  C   UNK N   1      26.179  23.323  -7.166  0.00  0.00     0.133 A 
HETATM    6  F   UNK N   1      25.449  23.511  -6.058  0.00  0.00    -0.205 F 
HETATM    7  C   UNK N   1      26.666  22.032  -7.339  0.00  0.00     0.080 A 
ENDROOT
BRANCH   1   8
HETATM    8  O   UNK N   1      27.843  20.404  -8.551  0.00  0.00    -0.351 OA
BRANCH   8   9
HETATM    9  C   UNK N   1      29.158  20.048  -8.713  0.00  0.00     0.175 C 
BRANCH   9  10
HETATM   10  C   UNK N   1      29.677  19.501  -7.398  0.00  0.00     0.027 C 
BRANCH  10  11
HETATM   11  C   UNK N   1      31.104  19.956  -7.142  0.00  0.00     0.002 C 
BRANCH  11  12
HETATM   12  C   UNK N   1      31.127  21.249  -6.342  0.00  0.00     0.002 C 
BRANCH  12  13
HETATM   13  C   UNK N   1      29.993  21.263  -5.333  0.00  0.00     0.030 C 
BRANCH  13  14
HETATM   14  C   UNK N   1      30.347  22.149  -4.150  0.00  0.00     0.272 C 
BRANCH  14  15
HETATM   15  N   UNK N   1      30.254  23.545  -4.540  0.00  0.00     0.087 N 
HETATM   16  C   UNK N   1      30.666  24.326  -3.384  0.00  0.00     0.310 C 
BRANCH  15  17
HETATM   17  C   UNK N   1      28.850  23.835  -4.800  0.00  0.00     0.298 C 
BRANCH  17  18
HETATM   18  C   UNK N   1      28.130  24.091  -3.516  0.00  0.00    -0.007 C 
HETATM   19  C   UNK N   1      27.020  24.822  -3.508  0.00  0.00     0.008 C 
ENDBRANCH  17  18
ENDBRANCH  15  17
ENDBRANCH  14  15
ENDBRANCH  13  14
ENDBRANCH  12  13
ENDBRANCH  11  12
ENDBRANCH  10  11
ENDBRANCH   9  10
ENDBRANCH   8   9
ENDBRANCH   1   8
BRANCH   4  20
HETATM   20  C   UNK N   1      26.006  25.789  -8.104  0.00  0.00     0.195 C 
HETATM   21  O   UNK N   1      25.483  26.224  -9.132  0.00  0.00    -0.287 OA
BRANCH  20  22
HETATM   22  C   UNK N   1      26.135  26.768  -6.972  0.00  0.00     0.015 A 
HETATM   23  C   UNK N   1      27.268  27.600  -6.902  0.00  0.00     0.017 A 
HETATM   24  C   UNK N   1      27.420  28.521  -5.856  0.00  0.00     0.020 A 
HETATM   25  C   UNK N   1      26.438  28.619  -4.866  0.00  0.00     0.011 A 
HETATM   26 Br   UNK N   1      26.614  29.864  -3.436  0.00  0.00    -0.051 Br
HETATM   27  C   UNK N   1      25.317  27.800  -4.922  0.00  0.00     0.020 A 
HETATM   28  C   UNK N   1      25.179  26.887  -5.964  0.00  0.00     0.017 A 
ENDBRANCH  20  22
ENDBRANCH   4  20
TORSDOF 12
ENDMDL
MODEL 9
REMARK VINA RESULT:      -5.4     19.394     22.280
REMARK  12 active torsions:
REMARK  status: ('A' for Active; 'I' for Inactive)
REMARK    1  A    between atoms: N_2  and  C_3 
REMARK    2  A    between atoms: N_2  and  C_26 
REMARK    3  A    between atoms: C_3  and  C_4 
REMARK    4  A    between atoms: C_4  and  C_5 
REMARK    5  A    between atoms: C_5  and  C_6 
REMARK    6  A    between atoms: C_6  and  C_7 
REMARK    7  A    between atoms: C_7  and  C_8 
REMARK    8  A    between atoms: C_8  and  O_9 
REMARK    9  A    between atoms: O_9  and  C_10 
REMARK   10  A    between atoms: C_13  and  C_17 
REMARK   11  A    between atoms: C_17  and  C_19 
REMARK   12  A    between atoms: C_26  and  C_27 
ROOT
HETATM    1  C   UNK N   1      35.803  14.312  11.503  0.00  0.00     0.071 A 
HETATM    2  C   UNK N   1      35.740  15.672  11.830  0.00  0.00     0.038 A 
HETATM    3  C   UNK N   1      35.331  16.601  10.871  0.00  0.00     0.021 A 
HETATM    4  C   UNK N   1      34.976  16.215   9.561  0.00  0.00     0.053 A 
HETATM    5  C   UNK N   1      35.058  14.818   9.253  0.00  0.00     0.133 A 
HETATM    6  F   UNK N   1      34.782  14.285   8.055  0.00  0.00    -0.205 F 
HETATM    7  C   UNK N   1      35.463  13.908  10.224  0.00  0.00     0.080 A 
ENDROOT
BRANCH   1   8
HETATM    8  O   UNK N   1      36.201  13.372  12.385  0.00  0.00    -0.351 OA
BRANCH   8   9
HETATM    9  C   UNK N   1      35.748  13.298  13.678  0.00  0.00     0.175 C 
BRANCH   9  10
HETATM   10  C   UNK N   1      36.915  13.544  14.615  0.00  0.00     0.027 C 
BRANCH  10  11
HETATM   11  C   UNK N   1      36.431  13.843  16.023  0.00  0.00     0.002 C 
BRANCH  11  12
HETATM   12  C   UNK N   1      35.069  13.216  16.275  0.00  0.00     0.002 C 
BRANCH  12  13
HETATM   13  C   UNK N   1      35.073  12.461  17.593  0.00  0.00     0.030 C 
BRANCH  13  14
HETATM   14  C   UNK N   1      35.758  11.115  17.429  0.00  0.00     0.272 C 
BRANCH  14  15
HETATM   15  N   UNK N   1      34.758  10.080  17.226  0.00  0.00     0.087 N 
HETATM   16  C   UNK N   1      34.728   9.289  18.446  0.00  0.00     0.310 C 
BRANCH  15  17
HETATM   17  C   UNK N   1      35.230   9.222  16.147  0.00  0.00     0.298 C 
BRANCH  17  18
HETATM   18  C   UNK N   1      34.882   9.820  14.822  0.00  0.00    -0.007 C 
HETATM   19  C   UNK N   1      35.693   9.657  13.783  0.00  0.00     0.008 C 
ENDBRANCH  17  18
ENDBRANCH  15  17
ENDBRANCH  14  15
ENDBRANCH  13  14
ENDBRANCH  12  13
ENDBRANCH  11  12
ENDBRANCH  10  11
ENDBRANCH   9  10
ENDBRANCH   8   9
ENDBRANCH   1   8
BRANCH   4  20
HETATM   20  C   UNK N   1      34.548  17.336   8.627  0.00  0.00     0.195 C 
HETATM   21  O   UNK N   1      35.124  18.415   8.772  0.00  0.00    -0.287 OA
BRANCH  20  22
HETATM   22  C   UNK N   1      33.498  17.295   7.554  0.00  0.00     0.015 A 
HETATM   23  C   UNK N   1      32.146  17.136   7.914  0.00  0.00     0.017 A 
HETATM   24  C   UNK N   1      31.142  17.090   6.937  0.00  0.00     0.020 A 
HETATM   25  C   UNK N   1      31.480  17.203   5.585  0.00  0.00     0.011 A 
HETATM   26 Br   UNK N   1      30.138  17.149   4.235  0.00  0.00    -0.051 Br
HETATM   27  C   UNK N   1      32.811  17.356   5.217  0.00  0.00     0.020 A 
HETATM   28  C   UNK N   1      33.799  17.397   6.196  0.00  0.00     0.017 A 
ENDBRANCH  20  22
ENDBRANCH   4  20
TORSDOF 12
ENDMDL
