MODEL 1
REMARK VINA RESULT:      -6.5      0.000      0.000
REMARK  11 active torsions:
REMARK  status: ('A' for Active; 'I' for Inactive)
REMARK    1  A    between atoms: C_3  and  C_1 
REMARK    2  A    between atoms: N_17  and  C_1 
REMARK    3  A    between atoms: C_4  and  C_2 
REMARK    4  A    between atoms: O_18  and  C_2 
REMARK    5  A    between atoms: C_6  and  C_3 
REMARK    6  A    between atoms: C_3  and  O_19 
REMARK    7  A    between atoms: C_6  and  C_4 
REMARK    8  A    between atoms: C_4  and  O_20 
REMARK    9  A    between atoms: C_6  and  O_21 
REMARK   10  A    between atoms: O_22  and  C_8 
REMARK   11  A    between atoms: O_25  and  C_11 
ROOT
HETATM    1  C   UNK N   1      30.926  17.314   6.710  0.00  0.00     0.131 A 
HETATM    2  C   UNK N   1      31.851  17.404   7.766  0.00  0.00     0.145 A 
HETATM    3  C   UNK N   1      29.581  17.577   6.973  0.00  0.00     0.174 A 
HETATM    4  C   UNK N   1      32.666  16.724   5.213  0.00  0.00     0.314 A 
HETATM    5  C   UNK N   1      33.598  16.813   6.255  0.00  0.00     0.317 A 
HETATM    6  C   UNK N   1      30.103  18.027   9.236  0.00  0.00     0.224 A 
HETATM    7  N   UNK N   1      31.344  16.971   5.466  0.00  0.00    -0.312 N 
HETATM    8  N   UNK N   1      31.416  17.757   9.007  0.00  0.00    -0.306 N 
ATOM      9  HN  UNK N   1      32.083  17.819   9.776  1.00  0.00     0.171 HD
HETATM   10  N   UNK N   1      29.197  17.931   8.226  0.00  0.00    -0.301 N 
ATOM     11  HN  UNK N   1      28.213  18.128   8.414  1.00  0.00     0.171 HD
HETATM   12  N   UNK N   1      33.172  17.133   7.534  0.00  0.00    -0.291 N 
HETATM   13  O   UNK N   1      33.020  16.426   4.087  0.00  0.00    -0.262 OA
HETATM   14  O   UNK N   1      34.780  16.602   6.030  0.00  0.00    -0.262 OA
HETATM   15  H   UNK N   1      30.687  16.897   4.736  0.00  0.00     0.169 HD
ENDROOT
BRANCH  12  16
HETATM   16  C   UNK N   1      34.133  17.160   8.643  0.00  0.00     0.168 C 
BRANCH  16  17
HETATM   17  C   UNK N   1      34.365  15.740   9.189  0.00  0.00     0.168 C 
BRANCH  17  18
HETATM   18  C   UNK N   1      34.504  15.758  10.723  0.00  0.00     0.179 C 
BRANCH  18  19
HETATM   19  C   UNK N   1      35.867  15.193  11.195  0.00  0.00     0.173 C 
BRANCH  19  20
HETATM   20  C   UNK N   1      35.893  14.974  12.705  0.00  0.00     0.198 C 
BRANCH  20  21
HETATM   21  O   UNK N   1      35.140  13.852  13.058  0.00  0.00    -0.398 OA
HETATM   22  H   UNK N   1      34.229  13.532  13.157  0.00  0.00     0.209 HD
ENDBRANCH  20  21
ENDBRANCH  19  20
BRANCH  19  23
HETATM   23  O   UNK N   1      36.907  16.065  10.858  0.00  0.00    -0.391 OA
HETATM   24  H   UNK N   1      36.911  16.561  10.025  0.00  0.00     0.210 HD
ENDBRANCH  19  23
ENDBRANCH  18  19
BRANCH  18  25
HETATM   25  O   UNK N   1      33.467  15.004  11.282  0.00  0.00    -0.390 OA
HETATM   26  H   UNK N   1      32.763  15.403  11.816  0.00  0.00     0.210 HD
ENDBRANCH  18  25
ENDBRANCH  17  18
BRANCH  17  27
HETATM   27  O   UNK N   1      35.517  15.202   8.614  0.00  0.00    -0.391 OA
HETATM   28  H   UNK N   1      36.327  15.703   8.429  0.00  0.00     0.210 HD
ENDBRANCH  17  27
ENDBRANCH  16  17
ENDBRANCH  12  16
BRANCH   3  29
HETATM   29  O   UNK N   1      28.664  17.483   5.993  0.00  0.00    -0.344 OA
HETATM   30  H   UNK N   1      27.782  17.786   6.088  0.00  0.00     0.219 HD
ENDBRANCH   3  29
BRANCH   6  31
HETATM   31  O   UNK N   1      29.699  18.392  10.464  0.00  0.00    -0.332 OA
HETATM   32  H   UNK N   1      30.270  18.280  11.198  0.00  0.00     0.221 HD
ENDBRANCH   6  31
TORSDOF 11
ENDMDL
MODEL 2
REMARK VINA RESULT:      -6.3      9.012     12.613
REMARK  11 active torsions:
REMARK  status: ('A' for Active; 'I' for Inactive)
REMARK    1  A    between atoms: C_3  and  C_1 
REMARK    2  A    between atoms: N_17  and  C_1 
REMARK    3  A    between atoms: C_4  and  C_2 
REMARK    4  A    between atoms: O_18  and  C_2 
REMARK    5  A    between atoms: C_6  and  C_3 
REMARK    6  A    between atoms: C_3  and  O_19 
REMARK    7  A    between atoms: C_6  and  C_4 
REMARK    8  A    between atoms: C_4  and  O_20 
REMARK    9  A    between atoms: C_6  and  O_21 
REMARK   10  A    between atoms: O_22  and  C_8 
REMARK   11  A    between atoms: O_25  and  C_11 
ROOT
HETATM    1  C   UNK N   1      23.851  12.852   9.814  0.00  0.00     0.131 A 
HETATM    2  C   UNK N   1      22.573  13.159   9.315  0.00  0.00     0.145 A 
HETATM    3  C   UNK N   1      23.952  12.198  11.043  0.00  0.00     0.174 A 
HETATM    4  C   UNK N   1      24.851  13.829   7.901  0.00  0.00     0.314 A 
HETATM    5  C   UNK N   1      23.584  14.139   7.391  0.00  0.00     0.317 A 
HETATM    6  C   UNK N   1      21.593  12.147  11.218  0.00  0.00     0.224 A 
HETATM    7  N   UNK N   1      24.958  13.197   9.110  0.00  0.00    -0.312 N 
HETATM    8  N   UNK N   1      21.471  12.800  10.032  0.00  0.00    -0.306 N 
ATOM      9  HN  UNK N   1      20.543  13.026   9.675  1.00  0.00     0.171 HD
HETATM   10  N   UNK N   1      22.825  11.856  11.717  0.00  0.00    -0.301 N 
ATOM     11  HN  UNK N   1      22.901  11.373  12.613  1.00  0.00     0.171 HD
HETATM   12  N   UNK N   1      22.452  13.817   8.121  0.00  0.00    -0.291 N 
HETATM   13  O   UNK N   1      25.858  14.121   7.281  0.00  0.00    -0.262 OA
HETATM   14  O   UNK N   1      23.486  14.695   6.308  0.00  0.00    -0.262 OA
HETATM   15  H   UNK N   1      25.849  12.990   9.473  0.00  0.00     0.169 HD
ENDROOT
BRANCH  12  16
HETATM   16  C   UNK N   1      21.125  14.200   7.625  0.00  0.00     0.168 C 
BRANCH  16  17
HETATM   17  C   UNK N   1      20.832  15.675   7.952  0.00  0.00     0.168 C 
BRANCH  17  18
HETATM   18  C   UNK N   1      19.420  15.836   8.547  0.00  0.00     0.179 C 
BRANCH  18  19
HETATM   19  C   UNK N   1      19.244  17.187   9.283  0.00  0.00     0.173 C 
BRANCH  19  20
HETATM   20  C   UNK N   1      17.773  17.562   9.427  0.00  0.00     0.198 C 
BRANCH  20  21
HETATM   21  O   UNK N   1      17.622  18.677  10.255  0.00  0.00    -0.398 OA
HETATM   22  H   UNK N   1      17.369  18.946  11.153  0.00  0.00     0.209 HD
ENDBRANCH  20  21
ENDBRANCH  19  20
BRANCH  19  23
HETATM   23  O   UNK N   1      19.896  18.215   8.594  0.00  0.00    -0.391 OA
HETATM   24  H   UNK N   1      19.412  18.967   8.218  0.00  0.00     0.210 HD
ENDBRANCH  19  23
ENDBRANCH  18  19
BRANCH  18  25
HETATM   25  O   UNK N   1      19.179  14.784   9.436  0.00  0.00    -0.390 OA
HETATM   26  H   UNK N   1      18.818  14.926  10.325  0.00  0.00     0.210 HD
ENDBRANCH  18  25
ENDBRANCH  17  18
BRANCH  17  27
HETATM   27  O   UNK N   1      20.949  16.442   6.792  0.00  0.00    -0.391 OA
HETATM   28  H   UNK N   1      21.684  16.381   6.162  0.00  0.00     0.210 HD
ENDBRANCH  17  27
ENDBRANCH  16  17
ENDBRANCH  12  16
BRANCH   3  29
HETATM   29  O   UNK N   1      25.157  11.905  11.562  0.00  0.00    -0.344 OA
HETATM   30  H   UNK N   1      25.793  11.382  11.115  0.00  0.00     0.219 HD
ENDBRANCH   3  29
BRANCH   6  31
HETATM   31  O   UNK N   1      20.493  11.785  11.899  0.00  0.00    -0.332 OA
HETATM   32  H   UNK N   1      20.128  10.931  11.780  0.00  0.00     0.221 HD
ENDBRANCH   6  31
TORSDOF 11
ENDMDL
MODEL 3
REMARK VINA RESULT:      -6.3     12.579     13.886
REMARK  11 active torsions:
REMARK  status: ('A' for Active; 'I' for Inactive)
REMARK    1  A    between atoms: C_3  and  C_1 
REMARK    2  A    between atoms: N_17  and  C_1 
REMARK    3  A    between atoms: C_4  and  C_2 
REMARK    4  A    between atoms: O_18  and  C_2 
REMARK    5  A    between atoms: C_6  and  C_3 
REMARK    6  A    between atoms: C_3  and  O_19 
REMARK    7  A    between atoms: C_6  and  C_4 
REMARK    8  A    between atoms: C_4  and  O_20 
REMARK    9  A    between atoms: C_6  and  O_21 
REMARK   10  A    between atoms: O_22  and  C_8 
REMARK   11  A    between atoms: O_25  and  C_11 
ROOT
HETATM    1  C   UNK N   1      20.499  17.473   2.129  0.00  0.00     0.131 A 
HETATM    2  C   UNK N   1      20.589  16.635   3.254  0.00  0.00     0.145 A 
HETATM    3  C   UNK N   1      20.262  16.897   0.880  0.00  0.00     0.174 A 
HETATM    4  C   UNK N   1      20.870  19.375   3.494  0.00  0.00     0.314 A 
HETATM    5  C   UNK N   1      20.960  18.551   4.623  0.00  0.00     0.317 A 
HETATM    6  C   UNK N   1      20.182  14.752   1.878  0.00  0.00     0.224 A 
HETATM    7  N   UNK N   1      20.648  18.815   2.265  0.00  0.00    -0.312 N 
HETATM    8  N   UNK N   1      20.430  15.291   3.101  0.00  0.00    -0.306 N 
ATOM      9  HN  UNK N   1      20.500  14.680   3.915  1.00  0.00     0.171 HD
HETATM   10  N   UNK N   1      20.104  15.552   0.779  0.00  0.00    -0.301 N 
ATOM     11  HN  UNK N   1      19.926  15.133  -0.134  1.00  0.00     0.171 HD
HETATM   12  N   UNK N   1      20.840  17.178   4.485  0.00  0.00    -0.291 N 
HETATM   13  O   UNK N   1      20.992  20.583   3.594  0.00  0.00    -0.262 OA
HETATM   14  O   UNK N   1      21.149  19.050   5.723  0.00  0.00    -0.262 OA
HETATM   15  H   UNK N   1      20.596  19.393   1.470  0.00  0.00     0.169 HD
ENDROOT
BRANCH  12  16
HETATM   16  C   UNK N   1      21.002  16.306   5.654  0.00  0.00     0.168 C 
BRANCH  16  17
HETATM   17  C   UNK N   1      19.640  16.039   6.320  0.00  0.00     0.168 C 
BRANCH  17  18
HETATM   18  C   UNK N   1      19.764  16.073   7.855  0.00  0.00     0.179 C 
BRANCH  18  19
HETATM   19  C   UNK N   1      18.768  17.066   8.503  0.00  0.00     0.173 C 
BRANCH  19  20
HETATM   20  C   UNK N   1      19.491  18.188   9.241  0.00  0.00     0.198 C 
BRANCH  20  21
HETATM   21  O   UNK N   1      20.210  18.988   8.349  0.00  0.00    -0.398 OA
HETATM   22  H   UNK N   1      20.911  19.657   8.303  0.00  0.00     0.209 HD
ENDBRANCH  20  21
ENDBRANCH  19  20
BRANCH  19  23
HETATM   23  O   UNK N   1      17.933  16.408   9.411  0.00  0.00    -0.391 OA
HETATM   24  H   UNK N   1      17.449  15.601   9.173  0.00  0.00     0.210 HD
ENDBRANCH  19  23
ENDBRANCH  18  19
BRANCH  18  25
HETATM   25  O   UNK N   1      21.072  16.434   8.197  0.00  0.00    -0.390 OA
HETATM   26  H   UNK N   1      21.434  16.296   9.086  0.00  0.00     0.210 HD
ENDBRANCH  18  25
ENDBRANCH  17  18
BRANCH  17  27
HETATM   27  O   UNK N   1      19.156  14.797   5.910  0.00  0.00    -0.391 OA
HETATM   28  H   UNK N   1      18.218  14.586   5.778  0.00  0.00     0.210 HD
ENDBRANCH  17  27
ENDBRANCH  16  17
ENDBRANCH  12  16
BRANCH   3  29
HETATM   29  O   UNK N   1      20.188  17.664  -0.222  0.00  0.00    -0.344 OA
HETATM   30  H   UNK N   1      19.413  17.736  -0.743  0.00  0.00     0.219 HD
ENDBRANCH   3  29
BRANCH   6  31
HETATM   31  O   UNK N   1      20.009  13.427   1.752  0.00  0.00    -0.332 OA
HETATM   32  H   UNK N   1      19.389  12.981   2.295  0.00  0.00     0.221 HD
ENDBRANCH   6  31
TORSDOF 11
ENDMDL
MODEL 4
REMARK VINA RESULT:      -6.2      3.020      3.955
REMARK  11 active torsions:
REMARK  status: ('A' for Active; 'I' for Inactive)
REMARK    1  A    between atoms: C_3  and  C_1 
REMARK    2  A    between atoms: N_17  and  C_1 
REMARK    3  A    between atoms: C_4  and  C_2 
REMARK    4  A    between atoms: O_18  and  C_2 
REMARK    5  A    between atoms: C_6  and  C_3 
REMARK    6  A    between atoms: C_3  and  O_19 
REMARK    7  A    between atoms: C_6  and  C_4 
REMARK    8  A    between atoms: C_4  and  O_20 
REMARK    9  A    between atoms: C_6  and  O_21 
REMARK   10  A    between atoms: O_22  and  C_8 
REMARK   11  A    between atoms: O_25  and  C_11 
ROOT
HETATM    1  C   UNK N   1      33.494  14.791   7.330  0.00  0.00     0.131 A 
HETATM    2  C   UNK N   1      33.753  14.738   8.711  0.00  0.00     0.145 A 
HETATM    3  C   UNK N   1      32.959  13.665   6.704  0.00  0.00     0.174 A 
HETATM    4  C   UNK N   1      34.285  17.024   7.250  0.00  0.00     0.314 A 
HETATM    5  C   UNK N   1      34.545  16.985   8.626  0.00  0.00     0.317 A 
HETATM    6  C   UNK N   1      32.925  12.521   8.775  0.00  0.00     0.224 A 
HETATM    7  N   UNK N   1      33.770  15.919   6.628  0.00  0.00    -0.312 N 
HETATM    8  N   UNK N   1      33.463  13.601   9.402  0.00  0.00    -0.306 N 
ATOM      9  HN  UNK N   1      33.654  13.558  10.403  1.00  0.00     0.171 HD
HETATM   10  N   UNK N   1      32.682  12.556   7.437  0.00  0.00    -0.301 N 
ATOM     11  HN  UNK N   1      32.286  11.735   6.978  1.00  0.00     0.171 HD
HETATM   12  N   UNK N   1      34.295  15.825   9.341  0.00  0.00    -0.291 N 
HETATM   13  O   UNK N   1      34.518  18.029   6.602  0.00  0.00    -0.262 OA
HETATM   14  O   UNK N   1      34.997  17.973   9.185  0.00  0.00    -0.262 OA
HETATM   15  H   UNK N   1      33.598  15.943   5.659  0.00  0.00     0.169 HD
ENDROOT
BRANCH  12  16
HETATM   16  C   UNK N   1      34.629  15.756  10.769  0.00  0.00     0.168 C 
BRANCH  16  17
HETATM   17  C   UNK N   1      35.992  15.070  10.970  0.00  0.00     0.168 C 
BRANCH  17  18
HETATM   18  C   UNK N   1      35.977  14.179  12.226  0.00  0.00     0.179 C 
BRANCH  18  19
HETATM   19  C   UNK N   1      36.875  12.926  12.068  0.00  0.00     0.173 C 
BRANCH  19  20
HETATM   20  C   UNK N   1      37.151  12.258  13.411  0.00  0.00     0.198 C 
BRANCH  20  21
HETATM   21  O   UNK N   1      37.152  13.199  14.444  0.00  0.00    -0.398 OA
HETATM   22  H   UNK N   1      37.384  13.322  15.378  0.00  0.00     0.209 HD
ENDBRANCH  20  21
ENDBRANCH  19  20
BRANCH  19  23
HETATM   23  O   UNK N   1      38.100  13.266  11.485  0.00  0.00    -0.391 OA
HETATM   24  H   UNK N   1      38.945  13.088  11.927  0.00  0.00     0.210 HD
ENDBRANCH  19  23
ENDBRANCH  18  19
BRANCH  18  25
HETATM   25  O   UNK N   1      34.662  13.780  12.485  0.00  0.00    -0.390 OA
HETATM   26  H   UNK N   1      34.444  12.911  12.857  0.00  0.00     0.210 HD
ENDBRANCH  18  25
ENDBRANCH  17  18
BRANCH  17  27
HETATM   27  O   UNK N   1      36.989  16.038  11.087  0.00  0.00    -0.391 OA
HETATM   28  H   UNK N   1      37.346  16.364  11.928  0.00  0.00     0.210 HD
ENDBRANCH  17  27
ENDBRANCH  16  17
ENDBRANCH  12  16
BRANCH   3  29
HETATM   29  O   UNK N   1      32.716  13.670   5.381  0.00  0.00    -0.344 OA
HETATM   30  H   UNK N   1      32.551  14.454   4.896  0.00  0.00     0.219 HD
ENDBRANCH   3  29
BRANCH   6  31
HETATM   31  O   UNK N   1      32.629  11.416   9.479  0.00  0.00    -0.332 OA
HETATM   32  H   UNK N   1      32.672  10.574   9.071  0.00  0.00     0.221 HD
ENDBRANCH   6  31
TORSDOF 11
ENDMDL
MODEL 5
REMARK VINA RESULT:      -6.1     10.307     13.887
REMARK  11 active torsions:
REMARK  status: ('A' for Active; 'I' for Inactive)
REMARK    1  A    between atoms: C_3  and  C_1 
REMARK    2  A    between atoms: N_17  and  C_1 
REMARK    3  A    between atoms: C_4  and  C_2 
REMARK    4  A    between atoms: O_18  and  C_2 
REMARK    5  A    between atoms: C_6  and  C_3 
REMARK    6  A    between atoms: C_3  and  O_19 
REMARK    7  A    between atoms: C_6  and  C_4 
REMARK    8  A    between atoms: C_4  and  O_20 
REMARK    9  A    between atoms: C_6  and  O_21 
REMARK   10  A    between atoms: O_22  and  C_8 
REMARK   11  A    between atoms: O_25  and  C_11 
ROOT
HETATM    1  C   UNK N   1      22.051  19.279   3.409  0.00  0.00     0.131 A 
HETATM    2  C   UNK N   1      21.369  18.060   3.575  0.00  0.00     0.145 A 
HETATM    3  C   UNK N   1      21.362  20.364   2.865  0.00  0.00     0.174 A 
HETATM    4  C   UNK N   1      24.021  18.319   4.311  0.00  0.00     0.314 A 
HETATM    5  C   UNK N   1      23.352  17.101   4.484  0.00  0.00     0.317 A 
HETATM    6  C   UNK N   1      19.402  19.049   2.704  0.00  0.00     0.224 A 
HETATM    7  N   UNK N   1      23.354  19.384   3.768  0.00  0.00    -0.312 N 
HETATM    8  N   UNK N   1      20.058  17.973   3.216  0.00  0.00    -0.306 N 
ATOM      9  HN  UNK N   1      19.562  17.090   3.331  1.00  0.00     0.171 HD
HETATM   10  N   UNK N   1      20.054  20.230   2.527  0.00  0.00    -0.301 N 
ATOM     11  HN  UNK N   1      19.552  21.026   2.134  1.00  0.00     0.171 HD
HETATM   12  N   UNK N   1      22.031  16.979   4.090  0.00  0.00    -0.291 N 
HETATM   13  O   UNK N   1      25.189  18.439   4.635  0.00  0.00    -0.262 OA
HETATM   14  O   UNK N   1      23.943  16.151   4.977  0.00  0.00    -0.262 OA
HETATM   15  H   UNK N   1      23.828  20.237   3.637  0.00  0.00     0.169 HD
ENDROOT
BRANCH  12  16
HETATM   16  C   UNK N   1      21.346  15.686   4.205  0.00  0.00     0.168 C 
BRANCH  16  17
HETATM   17  C   UNK N   1      21.315  14.969   2.843  0.00  0.00     0.168 C 
BRANCH  17  18
HETATM   18  C   UNK N   1      19.913  14.402   2.553  0.00  0.00     0.179 C 
BRANCH  18  19
HETATM   19  C   UNK N   1      19.542  14.493   1.052  0.00  0.00     0.173 C 
BRANCH  19  20
HETATM   20  C   UNK N   1      19.857  15.871   0.477  0.00  0.00     0.198 C 
BRANCH  20  21
HETATM   21  O   UNK N   1      18.732  16.697   0.522  0.00  0.00    -0.398 OA
HETATM   22  H   UNK N   1      18.220  17.277   1.109  0.00  0.00     0.209 HD
ENDBRANCH  20  21
ENDBRANCH  19  20
BRANCH  19  23
HETATM   23  O   UNK N   1      18.181  14.237   0.862  0.00  0.00    -0.391 OA
HETATM   24  H   UNK N   1      17.526  14.952   0.815  0.00  0.00     0.210 HD
ENDBRANCH  19  23
ENDBRANCH  18  19
BRANCH  18  25
HETATM   25  O   UNK N   1      18.972  15.108   3.310  0.00  0.00    -0.390 OA
HETATM   26  H   UNK N   1      18.378  15.768   2.919  0.00  0.00     0.210 HD
ENDBRANCH  18  25
ENDBRANCH  17  18
BRANCH  17  27
HETATM   27  O   UNK N   1      22.255  13.938   2.838  0.00  0.00    -0.391 OA
HETATM   28  H   UNK N   1      23.030  13.894   3.419  0.00  0.00     0.210 HD
ENDBRANCH  17  27
ENDBRANCH  16  17
ENDBRANCH  12  16
BRANCH   3  29
HETATM   29  O   UNK N   1      21.985  21.540   2.673  0.00  0.00    -0.344 OA
HETATM   30  H   UNK N   1      22.858  21.710   2.968  0.00  0.00     0.219 HD
ENDBRANCH   3  29
BRANCH   6  31
HETATM   31  O   UNK N   1      18.104  18.946   2.374  0.00  0.00    -0.332 OA
HETATM   32  H   UNK N   1      17.836  19.063   1.484  0.00  0.00     0.221 HD
ENDBRANCH   6  31
TORSDOF 11
ENDMDL
MODEL 6
REMARK VINA RESULT:      -6.1     10.377     12.664
REMARK  11 active torsions:
REMARK  status: ('A' for Active; 'I' for Inactive)
REMARK    1  A    between atoms: C_3  and  C_1 
REMARK    2  A    between atoms: N_17  and  C_1 
REMARK    3  A    between atoms: C_4  and  C_2 
REMARK    4  A    between atoms: O_18  and  C_2 
REMARK    5  A    between atoms: C_6  and  C_3 
REMARK    6  A    between atoms: C_3  and  O_19 
REMARK    7  A    between atoms: C_6  and  C_4 
REMARK    8  A    between atoms: C_4  and  O_20 
REMARK    9  A    between atoms: C_6  and  O_21 
REMARK   10  A    between atoms: O_22  and  C_8 
REMARK   11  A    between atoms: O_25  and  C_11 
ROOT
HETATM    1  C   UNK N   1      21.949  19.282   3.427  0.00  0.00     0.131 A 
HETATM    2  C   UNK N   1      21.262  18.111   3.790  0.00  0.00     0.145 A 
HETATM    3  C   UNK N   1      21.289  20.234   2.649  0.00  0.00     0.174 A 
HETATM    4  C   UNK N   1      23.870  18.539   4.599  0.00  0.00     0.314 A 
HETATM    5  C   UNK N   1      23.196  17.368   4.969  0.00  0.00     0.317 A 
HETATM    6  C   UNK N   1      19.342  18.888   2.643  0.00  0.00     0.224 A 
HETATM    7  N   UNK N   1      23.232  19.471   3.827  0.00  0.00    -0.312 N 
HETATM    8  N   UNK N   1      19.972  17.940   3.386  0.00  0.00    -0.306 N 
ATOM      9  HN  UNK N   1      19.473  17.089   3.644  1.00  0.00     0.171 HD
HETATM   10  N   UNK N   1      20.001  20.021   2.276  0.00  0.00    -0.301 N 
ATOM     11  HN  UNK N   1      19.518  20.720   1.711  1.00  0.00     0.171 HD
HETATM   12  N   UNK N   1      21.897  17.157   4.538  0.00  0.00    -0.291 N 
HETATM   13  O   UNK N   1      25.019  18.733   4.954  0.00  0.00    -0.262 OA
HETATM   14  O   UNK N   1      23.761  16.539   5.666  0.00  0.00    -0.262 OA
HETATM   15  H   UNK N   1      23.710  20.288   3.557  0.00  0.00     0.169 HD
ENDROOT
BRANCH  12  16
HETATM   16  C   UNK N   1      21.210  15.901   4.864  0.00  0.00     0.168 C 
BRANCH  16  17
HETATM   17  C   UNK N   1      20.384  16.059   6.153  0.00  0.00     0.168 C 
BRANCH  17  18
HETATM   18  C   UNK N   1      20.716  14.940   7.158  0.00  0.00     0.179 C 
BRANCH  18  19
HETATM   19  C   UNK N   1      20.418  15.357   8.620  0.00  0.00     0.173 C 
BRANCH  19  20
HETATM   20  C   UNK N   1      20.774  14.248   9.605  0.00  0.00     0.198 C 
BRANCH  20  21
HETATM   21  O   UNK N   1      20.674  12.994   9.000  0.00  0.00    -0.398 OA
HETATM   22  H   UNK N   1      21.203  12.253   8.662  0.00  0.00     0.209 HD
ENDBRANCH  20  21
ENDBRANCH  19  20
BRANCH  19  23
HETATM   23  O   UNK N   1      19.064  15.670   8.779  0.00  0.00    -0.391 OA
HETATM   24  H   UNK N   1      18.396  14.987   8.945  0.00  0.00     0.210 HD
ENDBRANCH  19  23
ENDBRANCH  18  19
BRANCH  18  25
HETATM   25  O   UNK N   1      22.068  14.605   7.035  0.00  0.00    -0.390 OA
HETATM   26  H   UNK N   1      22.567  14.181   7.750  0.00  0.00     0.210 HD
ENDBRANCH  18  25
ENDBRANCH  17  18
BRANCH  17  27
HETATM   27  O   UNK N   1      19.024  16.029   5.842  0.00  0.00    -0.391 OA
HETATM   28  H   UNK N   1      18.453  16.812   5.787  0.00  0.00     0.210 HD
ENDBRANCH  17  27
ENDBRANCH  16  17
ENDBRANCH  12  16
BRANCH   3  29
HETATM   29  O   UNK N   1      21.919  21.358   2.266  0.00  0.00    -0.344 OA
HETATM   30  H   UNK N   1      22.642  21.361   1.670  0.00  0.00     0.219 HD
ENDBRANCH   3  29
BRANCH   6  31
HETATM   31  O   UNK N   1      18.064  18.708   2.272  0.00  0.00    -0.332 OA
HETATM   32  H   UNK N   1      17.690  17.849   2.281  0.00  0.00     0.221 HD
ENDBRANCH   6  31
TORSDOF 11
ENDMDL
MODEL 7
REMARK VINA RESULT:      -6.0      1.937      2.725
REMARK  11 active torsions:
REMARK  status: ('A' for Active; 'I' for Inactive)
REMARK    1  A    between atoms: C_3  and  C_1 
REMARK    2  A    between atoms: N_17  and  C_1 
REMARK    3  A    between atoms: C_4  and  C_2 
REMARK    4  A    between atoms: O_18  and  C_2 
REMARK    5  A    between atoms: C_6  and  C_3 
REMARK    6  A    between atoms: C_3  and  O_19 
REMARK    7  A    between atoms: C_6  and  C_4 
REMARK    8  A    between atoms: C_4  and  O_20 
REMARK    9  A    between atoms: C_6  and  O_21 
REMARK   10  A    between atoms: O_22  and  C_8 
REMARK   11  A    between atoms: O_25  and  C_11 
ROOT
HETATM    1  C   UNK N   1      29.125  17.727   5.351  0.00  0.00     0.131 A 
HETATM    2  C   UNK N   1      29.836  17.262   6.472  0.00  0.00     0.145 A 
HETATM    3  C   UNK N   1      27.886  18.337   5.549  0.00  0.00     0.174 A 
HETATM    4  C   UNK N   1      30.862  16.985   3.920  0.00  0.00     0.314 A 
HETATM    5  C   UNK N   1      31.582  16.520   5.028  0.00  0.00     0.317 A 
HETATM    6  C   UNK N   1      28.106  18.043   7.887  0.00  0.00     0.224 A 
HETATM    7  N   UNK N   1      29.641  17.574   4.106  0.00  0.00    -0.312 N 
HETATM    8  N   UNK N   1      29.307  17.430   7.716  0.00  0.00    -0.306 N 
ATOM      9  HN  UNK N   1      29.818  17.089   8.530  1.00  0.00     0.171 HD
HETATM   10  N   UNK N   1      27.403  18.486   6.809  0.00  0.00    -0.301 N 
ATOM     11  HN  UNK N   1      26.499  18.937   6.951  1.00  0.00     0.171 HD
HETATM   12  N   UNK N   1      31.045  16.645   6.299  0.00  0.00    -0.291 N 
HETATM   13  O   UNK N   1      31.310  16.866   2.794  0.00  0.00    -0.262 OA
HETATM   14  O   UNK N   1      32.676  16.001   4.865  0.00  0.00    -0.262 OA
HETATM   15  H   UNK N   1      29.131  17.891   3.326  0.00  0.00     0.169 HD
ENDROOT
BRANCH  12  16
HETATM   16  C   UNK N   1      31.763  16.098   7.456  0.00  0.00     0.168 C 
BRANCH  16  17
HETATM   17  C   UNK N   1      32.560  17.205   8.169  0.00  0.00     0.168 C 
BRANCH  17  18
HETATM   18  C   UNK N   1      33.938  16.685   8.620  0.00  0.00     0.179 C 
BRANCH  18  19
HETATM   19  C   UNK N   1      33.944  15.151   8.836  0.00  0.00     0.173 C 
BRANCH  19  20
HETATM   20  C   UNK N   1      33.985  14.791  10.317  0.00  0.00     0.198 C 
BRANCH  20  21
HETATM   21  O   UNK N   1      32.772  15.100  10.938  0.00  0.00    -0.398 OA
HETATM   22  H   UNK N   1      32.286  15.820  11.370  0.00  0.00     0.209 HD
ENDBRANCH  20  21
ENDBRANCH  19  20
BRANCH  19  23
HETATM   23  O   UNK N   1      35.052  14.568   8.210  0.00  0.00    -0.391 OA
HETATM   24  H   UNK N   1      35.482  14.978   7.443  0.00  0.00     0.210 HD
ENDBRANCH  19  23
ENDBRANCH  18  19
BRANCH  18  25
HETATM   25  O   UNK N   1      34.297  17.325   9.811  0.00  0.00    -0.390 OA
HETATM   26  H   UNK N   1      33.896  18.162  10.093  0.00  0.00     0.210 HD
ENDBRANCH  18  25
ENDBRANCH  17  18
BRANCH  17  27
HETATM   27  O   UNK N   1      31.840  17.661   9.273  0.00  0.00    -0.391 OA
HETATM   28  H   UNK N   1      30.879  17.792   9.289  0.00  0.00     0.210 HD
ENDBRANCH  17  27
ENDBRANCH  16  17
ENDBRANCH  12  16
BRANCH   3  29
HETATM   29  O   UNK N   1      27.167  18.777   4.501  0.00  0.00    -0.344 OA
HETATM   30  H   UNK N   1      27.558  19.095   3.711  0.00  0.00     0.219 HD
ENDBRANCH   3  29
BRANCH   6  31
HETATM   31  O   UNK N   1      27.612  18.215   9.123  0.00  0.00    -0.332 OA
HETATM   32  H   UNK N   1      27.619  19.065   9.518  0.00  0.00     0.221 HD
ENDBRANCH   6  31
TORSDOF 11
ENDMDL
MODEL 8
REMARK VINA RESULT:      -6.0      2.904      7.560
REMARK  11 active torsions:
REMARK  status: ('A' for Active; 'I' for Inactive)
REMARK    1  A    between atoms: C_3  and  C_1 
REMARK    2  A    between atoms: N_17  and  C_1 
REMARK    3  A    between atoms: C_4  and  C_2 
REMARK    4  A    between atoms: O_18  and  C_2 
REMARK    5  A    between atoms: C_6  and  C_3 
REMARK    6  A    between atoms: C_3  and  O_19 
REMARK    7  A    between atoms: C_6  and  C_4 
REMARK    8  A    between atoms: C_4  and  O_20 
REMARK    9  A    between atoms: C_6  and  O_21 
REMARK   10  A    between atoms: O_22  and  C_8 
REMARK   11  A    between atoms: O_25  and  C_11 
ROOT
HETATM    1  C   UNK N   1      31.999  17.817   7.882  0.00  0.00     0.131 A 
HETATM    2  C   UNK N   1      31.161  17.313   6.872  0.00  0.00     0.145 A 
HETATM    3  C   UNK N   1      33.378  17.825   7.668  0.00  0.00     0.174 A 
HETATM    4  C   UNK N   1      30.112  18.277   9.241  0.00  0.00     0.314 A 
HETATM    5  C   UNK N   1      29.266  17.779   8.241  0.00  0.00     0.317 A 
HETATM    6  C   UNK N   1      33.057  16.895   5.517  0.00  0.00     0.224 A 
HETATM    7  N   UNK N   1      31.466  18.278   9.042  0.00  0.00    -0.312 N 
HETATM    8  N   UNK N   1      31.711  16.861   5.711  0.00  0.00    -0.306 N 
ATOM      9  HN  UNK N   1      31.107  16.490   4.978  1.00  0.00     0.171 HD
HETATM   10  N   UNK N   1      33.879  17.369   6.492  0.00  0.00    -0.301 N 
ATOM     11  HN  UNK N   1      34.887  17.381   6.336  1.00  0.00     0.171 HD
HETATM   12  N   UNK N   1      29.807  17.279   7.069  0.00  0.00    -0.291 N 
HETATM   13  O   UNK N   1      29.655  18.703  10.286  0.00  0.00    -0.262 OA
HETATM   14  O   UNK N   1      28.056  17.786   8.413  0.00  0.00    -0.262 OA
HETATM   15  H   UNK N   1      32.061  18.617   9.749  0.00  0.00     0.169 HD
ENDROOT
BRANCH  12  16
HETATM   16  C   UNK N   1      28.931  16.694   6.047  0.00  0.00     0.168 C 
BRANCH  16  17
HETATM   17  C   UNK N   1      28.449  17.777   5.065  0.00  0.00     0.168 C 
BRANCH  17  18
HETATM   18  C   UNK N   1      26.911  17.809   4.995  0.00  0.00     0.179 C 
BRANCH  18  19
HETATM   19  C   UNK N   1      26.356  19.254   4.962  0.00  0.00     0.173 C 
BRANCH  19  20
HETATM   20  C   UNK N   1      27.165  20.189   5.855  0.00  0.00     0.198 C 
BRANCH  20  21
HETATM   21  O   UNK N   1      26.779  20.059   7.191  0.00  0.00    -0.398 OA
HETATM   22  H   UNK N   1      26.026  20.169   7.793  0.00  0.00     0.209 HD
ENDBRANCH  20  21
ENDBRANCH  19  20
BRANCH  19  23
HETATM   23  O   UNK N   1      25.024  19.283   5.388  0.00  0.00    -0.391 OA
HETATM   24  H   UNK N   1      24.681  18.654   6.043  0.00  0.00     0.210 HD
ENDBRANCH  19  23
ENDBRANCH  18  19
BRANCH  18  25
HETATM   25  O   UNK N   1      26.392  17.134   6.105  0.00  0.00    -0.390 OA
HETATM   26  H   UNK N   1      26.896  17.016   6.925  0.00  0.00     0.210 HD
ENDBRANCH  18  25
ENDBRANCH  17  18
BRANCH  17  27
HETATM   27  O   UNK N   1      28.977  17.525   3.798  0.00  0.00    -0.391 OA
HETATM   28  H   UNK N   1      28.672  17.947   2.980  0.00  0.00     0.210 HD
ENDBRANCH  17  27
ENDBRANCH  16  17
ENDBRANCH  12  16
BRANCH   3  29
HETATM   29  O   UNK N   1      34.213  18.282   8.619  0.00  0.00    -0.344 OA
HETATM   30  H   UNK N   1      34.007  18.260   9.533  0.00  0.00     0.219 HD
ENDBRANCH   3  29
BRANCH   6  31
HETATM   31  O   UNK N   1      33.577  16.461   4.357  0.00  0.00    -0.332 OA
HETATM   32  H   UNK N   1      33.937  17.074   3.746  0.00  0.00     0.221 HD
ENDBRANCH   6  31
TORSDOF 11
ENDMDL
MODEL 9
REMARK VINA RESULT:      -6.0      3.979      7.735
REMARK  11 active torsions:
REMARK  status: ('A' for Active; 'I' for Inactive)
REMARK    1  A    between atoms: C_3  and  C_1 
REMARK    2  A    between atoms: N_17  and  C_1 
REMARK    3  A    between atoms: C_4  and  C_2 
REMARK    4  A    between atoms: O_18  and  C_2 
REMARK    5  A    between atoms: C_6  and  C_3 
REMARK    6  A    between atoms: C_3  and  O_19 
REMARK    7  A    between atoms: C_6  and  C_4 
REMARK    8  A    between atoms: C_4  and  O_20 
REMARK    9  A    between atoms: C_6  and  O_21 
REMARK   10  A    between atoms: O_22  and  C_8 
REMARK   11  A    between atoms: O_25  and  C_11 
ROOT
HETATM    1  C   UNK N   1      37.164  12.363  12.720  0.00  0.00     0.131 A 
HETATM    2  C   UNK N   1      36.342  13.499  12.620  0.00  0.00     0.145 A 
HETATM    3  C   UNK N   1      36.980  11.495  13.797  0.00  0.00     0.174 A 
HETATM    4  C   UNK N   1      38.287  12.979  10.726  0.00  0.00     0.314 A 
HETATM    5  C   UNK N   1      37.473  14.114  10.614  0.00  0.00     0.317 A 
HETATM    6  C   UNK N   1      35.209  12.846  14.595  0.00  0.00     0.224 A 
HETATM    7  N   UNK N   1      38.119  12.129  11.785  0.00  0.00    -0.312 N 
HETATM    8  N   UNK N   1      35.383  13.716  13.563  0.00  0.00    -0.306 N 
ATOM      9  HN  UNK N   1      34.789  14.541  13.496  1.00  0.00     0.171 HD
HETATM   10  N   UNK N   1      36.007  11.750  14.709  0.00  0.00    -0.301 N 
ATOM     11  HN  UNK N   1      35.872  11.111  15.492  1.00  0.00     0.171 HD
HETATM   12  N   UNK N   1      36.517  14.374  11.582  0.00  0.00    -0.291 N 
HETATM   13  O   UNK N   1      39.144  12.745   9.894  0.00  0.00    -0.262 OA
HETATM   14  O   UNK N   1      37.615  14.869   9.664  0.00  0.00    -0.262 OA
HETATM   15  H   UNK N   1      38.699  11.338  11.870  0.00  0.00     0.169 HD
ENDROOT
BRANCH  12  16
HETATM   16  C   UNK N   1      35.709  15.596  11.507  0.00  0.00     0.168 C 
BRANCH  16  17
HETATM   17  C   UNK N   1      34.539  15.409  10.524  0.00  0.00     0.168 C 
BRANCH  17  18
HETATM   18  C   UNK N   1      34.189  16.737   9.828  0.00  0.00     0.179 C 
BRANCH  18  19
HETATM   19  C   UNK N   1      33.566  16.519   8.427  0.00  0.00     0.173 C 
BRANCH  19  20
HETATM   20  C   UNK N   1      33.366  17.838   7.688  0.00  0.00     0.198 C 
BRANCH  20  21
HETATM   21  O   UNK N   1      34.543  18.233   7.047  0.00  0.00    -0.398 OA
HETATM   22  H   UNK N   1      35.290  17.896   6.526  0.00  0.00     0.209 HD
ENDBRANCH  20  21
ENDBRANCH  19  20
BRANCH  19  23
HETATM   23  O   UNK N   1      32.326  15.881   8.531  0.00  0.00    -0.391 OA
HETATM   24  H   UNK N   1      32.055  15.182   7.916  0.00  0.00     0.210 HD
ENDBRANCH  19  23
ENDBRANCH  18  19
BRANCH  18  25
HETATM   25  O   UNK N   1      35.351  17.507   9.707  0.00  0.00    -0.390 OA
HETATM   26  H   UNK N   1      35.527  18.065   8.934  0.00  0.00     0.210 HD
ENDBRANCH  18  25
ENDBRANCH  17  18
BRANCH  17  27
HETATM   27  O   UNK N   1      33.426  14.925  11.212  0.00  0.00    -0.391 OA
HETATM   28  H   UNK N   1      33.166  15.201  12.105  0.00  0.00     0.210 HD
ENDBRANCH  17  27
ENDBRANCH  16  17
ENDBRANCH  12  16
BRANCH   3  29
HETATM   29  O   UNK N   1      37.759  10.407  13.937  0.00  0.00    -0.344 OA
HETATM   30  H   UNK N   1      38.549  10.279  13.450  0.00  0.00     0.219 HD
ENDBRANCH   3  29
BRANCH   6  31
HETATM   31  O   UNK N   1      34.246  13.069  15.503  0.00  0.00    -0.332 OA
HETATM   32  H   UNK N   1      33.394  13.343  15.225  0.00  0.00     0.221 HD
ENDBRANCH   6  31
TORSDOF 11
ENDMDL
