MODEL 1
REMARK VINA RESULT:      -8.9      0.000      0.000
REMARK  13 active torsions:
REMARK  status: ('A' for Active; 'I' for Inactive)
REMARK    1  A    between atoms: C_1  and  C_3 
REMARK    2  A    between atoms: C_2  and  C_6 
REMARK    3  A    between atoms: C_6  and  C_41 
REMARK    4  A    between atoms: C_8  and  C_13 
REMARK    5  A    between atoms: C_10  and  C_15 
REMARK    6  A    between atoms: C_15  and  C_19 
REMARK    7  A    between atoms: C_16  and  C_20 
REMARK    8  A    between atoms: C_19  and  C_23 
REMARK    9  A    between atoms: C_21  and  C_26 
REMARK   10  A    between atoms: C_23  and  O_28 
REMARK   11  A    between atoms: C_35  and  C_38 
REMARK   12  A    between atoms: C_41  and  C_42 
REMARK   13  A    between atoms: C_42  and  O_44 
ROOT
HETATM    1  C   UNK N   1      23.595  17.451   3.817  0.00  0.00     0.060 C 
HETATM    2  C   UNK N   1      22.637  16.907   4.579  0.00  0.00     0.041 A 
HETATM    3  C   UNK N   1      21.393  16.369   4.048  0.00  0.00    -0.023 A 
HETATM    4  N   UNK N   1      22.678  16.649   5.971  0.00  0.00    -0.355 N 
ATOM      5  HN  UNK N   1      23.434  16.891   6.611  1.00  0.00     0.166 HD
HETATM    6  C   UNK N   1      20.735  15.859   5.081  0.00  0.00    -0.027 A 
HETATM    7  C   UNK N   1      21.575  16.051   6.275  0.00  0.00     0.041 A 
HETATM    8  C   UNK N   1      19.434  15.125   5.018  0.00  0.00     0.051 C 
ENDROOT
BRANCH   1   9
HETATM    9  C   UNK N   1      24.924  17.925   4.233  0.00  0.00     0.041 A 
HETATM   10  C   UNK N   1      25.262  19.260   4.333  0.00  0.00    -0.023 A 
HETATM   11  C   UNK N   1      26.587  19.306   4.689  0.00  0.00    -0.027 A 
HETATM   12  C   UNK N   1      27.422  20.531   4.858  0.00  0.00     0.051 C 
HETATM   13  C   UNK N   1      27.017  17.998   4.756  0.00  0.00     0.041 A 
HETATM   14  N   UNK N   1      25.998  17.147   4.481  0.00  0.00    -0.355 N 
HETATM   15  H   UNK N   1      26.034  16.164   4.467  0.00  0.00     0.166 HD
BRANCH  10  16
HETATM   16  C   UNK N   1      24.368  20.413   4.015  0.00  0.00     0.052 C 
BRANCH  16  17
HETATM   17  C   UNK N   1      23.961  20.414   2.561  0.00  0.00     0.115 C 
BRANCH  17  18
HETATM   18  C   UNK N   1      22.477  20.513   2.492  0.00  0.00     0.139 C 
HETATM   19  O   UNK N   1      21.922  20.792   1.440  0.00  0.00    -0.650 OA
BRANCH  18  20
HETATM   20  O   UNK N   1      21.744  20.259   3.591  0.00  0.00    -0.776 OA
HETATM   21  H   UNK N   1      21.252  19.531   3.913  0.00  0.00     0.167 HD
ENDBRANCH  18  20
ENDBRANCH  17  18
ENDBRANCH  16  17
ENDBRANCH  10  16
BRANCH  13  22
HETATM   22  C   UNK N   1      28.424  17.600   4.932  0.00  0.00     0.060 C 
HETATM   23  C   UNK N   1      28.991  17.519   6.140  0.00  0.00     0.048 A 
HETATM   24  C   UNK N   1      30.339  17.004   6.450  0.00  0.00     0.001 A 
HETATM   25  N   UNK N   1      28.311  17.768   7.354  0.00  0.00    -0.322 N 
HETATM   26  C   UNK N   1      30.435  16.960   7.786  0.00  0.00     0.018 A 
HETATM   27  C   UNK N   1      31.602  16.468   8.574  0.00  0.00     0.055 C 
HETATM   28  C   UNK N   1      29.161  17.433   8.332  0.00  0.00     0.252 A 
HETATM   29  O   UNK N   1      28.870  17.486   9.519  0.00  0.00    -0.268 OA
HETATM   30  H   UNK N   1      27.397  18.118   7.458  0.00  0.00     0.169 HD
BRANCH  24  31
HETATM   31  C   UNK N   1      31.391  16.543   5.517  0.00  0.00     0.004 C 
HETATM   32  C   UNK N   1      32.250  17.384   4.945  0.00  0.00     0.012 C 
ENDBRANCH  24  31
ENDBRANCH  13  22
ENDBRANCH   1   9
BRANCH   3  33
HETATM   33  C   UNK N   1      21.017  16.257   2.605  0.00  0.00     0.052 C 
BRANCH  33  34
HETATM   34  C   UNK N   1      20.128  17.383   2.134  0.00  0.00     0.115 C 
BRANCH  34  35
HETATM   35  C   UNK N   1      20.261  17.479   0.651  0.00  0.00     0.139 C 
HETATM   36  O   UNK N   1      20.234  16.467  -0.031  0.00  0.00    -0.650 OA
BRANCH  35  37
HETATM   37  O   UNK N   1      20.383  18.682   0.061  0.00  0.00    -0.776 OA
HETATM   38  H   UNK N   1      20.804  19.411   0.470  0.00  0.00     0.167 HD
ENDBRANCH  35  37
ENDBRANCH  34  35
ENDBRANCH  33  34
ENDBRANCH   3  33
BRANCH   7  39
HETATM   39  C   UNK N   1      21.283  15.394   7.565  0.00  0.00     0.060 C 
HETATM   40  C   UNK N   1      22.047  14.496   8.194  0.00  0.00     0.044 A 
HETATM   41  C   UNK N   1      21.619  13.709   9.355  0.00  0.00    -0.019 A 
HETATM   42  N   UNK N   1      23.324  14.062   7.787  0.00  0.00    -0.322 N 
HETATM   43  C   UNK N   1      22.585  12.824   9.612  0.00  0.00     0.039 A 
HETATM   44  C   UNK N   1      20.305  13.809  10.065  0.00  0.00     0.052 C 
HETATM   45  C   UNK N   1      23.666  13.077   8.641  0.00  0.00     0.256 A 
HETATM   46  O   UNK N   1      24.737  12.494   8.599  0.00  0.00    -0.267 OA
HETATM   47  H   UNK N   1      23.857  14.406   7.035  0.00  0.00     0.169 HD
BRANCH  43  48
HETATM   48  C   UNK N   1      22.522  11.776  10.651  0.00  0.00     0.007 C 
HETATM   49  C   UNK N   1      23.097  11.935  11.841  0.00  0.00     0.012 C 
ENDBRANCH  43  48
ENDBRANCH   7  39
TORSDOF 13
ENDMDL
MODEL 2
REMARK VINA RESULT:      -8.8      1.676      7.909
REMARK  13 active torsions:
REMARK  status: ('A' for Active; 'I' for Inactive)
REMARK    1  A    between atoms: C_1  and  C_3 
REMARK    2  A    between atoms: C_2  and  C_6 
REMARK    3  A    between atoms: C_6  and  C_41 
REMARK    4  A    between atoms: C_8  and  C_13 
REMARK    5  A    between atoms: C_10  and  C_15 
REMARK    6  A    between atoms: C_15  and  C_19 
REMARK    7  A    between atoms: C_16  and  C_20 
REMARK    8  A    between atoms: C_19  and  C_23 
REMARK    9  A    between atoms: C_21  and  C_26 
REMARK   10  A    between atoms: C_23  and  O_28 
REMARK   11  A    between atoms: C_35  and  C_38 
REMARK   12  A    between atoms: C_41  and  C_42 
REMARK   13  A    between atoms: C_42  and  O_44 
ROOT
HETATM    1  C   UNK N   1      24.017  17.258   4.919  0.00  0.00     0.060 C 
HETATM    2  C   UNK N   1      25.223  17.683   4.517  0.00  0.00     0.041 A 
HETATM    3  C   UNK N   1      25.496  19.048   4.091  0.00  0.00    -0.023 A 
HETATM    4  N   UNK N   1      26.443  16.965   4.531  0.00  0.00    -0.355 N 
ATOM      5  HN  UNK N   1      26.572  15.991   4.805  1.00  0.00     0.166 HD
HETATM    6  C   UNK N   1      26.798  19.107   3.840  0.00  0.00    -0.027 A 
HETATM    7  C   UNK N   1      27.363  17.778   4.130  0.00  0.00     0.041 A 
HETATM    8  C   UNK N   1      27.561  20.330   3.446  0.00  0.00     0.051 C 
ENDROOT
BRANCH   1   9
HETATM    9  C   UNK N   1      23.655  15.941   5.465  0.00  0.00     0.041 A 
HETATM   10  C   UNK N   1      22.807  15.057   4.828  0.00  0.00    -0.023 A 
HETATM   11  C   UNK N   1      22.667  13.975   5.661  0.00  0.00    -0.027 A 
HETATM   12  C   UNK N   1      21.797  12.784   5.436  0.00  0.00     0.051 C 
HETATM   13  C   UNK N   1      23.406  14.256   6.791  0.00  0.00     0.041 A 
HETATM   14  N   UNK N   1      24.017  15.460   6.672  0.00  0.00    -0.355 N 
HETATM   15  H   UNK N   1      24.606  15.893   7.331  0.00  0.00     0.166 HD
BRANCH  10  16
HETATM   16  C   UNK N   1      22.110  15.298   3.530  0.00  0.00     0.052 C 
BRANCH  16  17
HETATM   17  C   UNK N   1      20.783  15.989   3.732  0.00  0.00     0.115 C 
BRANCH  17  18
HETATM   18  C   UNK N   1      20.299  16.470   2.408  0.00  0.00     0.139 C 
HETATM   19  O   UNK N   1      20.627  15.894   1.382  0.00  0.00    -0.650 OA
BRANCH  18  20
HETATM   20  O   UNK N   1      19.470  17.526   2.350  0.00  0.00    -0.776 OA
HETATM   21  H   UNK N   1      18.899  17.963   2.951  0.00  0.00     0.167 HD
ENDBRANCH  18  20
ENDBRANCH  17  18
ENDBRANCH  16  17
ENDBRANCH  10  16
BRANCH  13  22
HETATM   22  C   UNK N   1      23.386  13.437   8.014  0.00  0.00     0.060 C 
HETATM   23  C   UNK N   1      22.362  13.473   8.873  0.00  0.00     0.048 A 
HETATM   24  C   UNK N   1      22.167  12.604  10.051  0.00  0.00     0.001 A 
HETATM   25  N   UNK N   1      21.200  14.256   8.691  0.00  0.00    -0.322 N 
HETATM   26  C   UNK N   1      20.946  12.877  10.529  0.00  0.00     0.018 A 
HETATM   27  C   UNK N   1      20.284  12.218  11.694  0.00  0.00     0.055 C 
HETATM   28  C   UNK N   1      20.356  13.902   9.667  0.00  0.00     0.252 A 
HETATM   29  O   UNK N   1      19.227  14.363   9.776  0.00  0.00    -0.268 OA
HETATM   30  H   UNK N   1      21.044  14.927   7.988  0.00  0.00     0.169 HD
BRANCH  24  31
HETATM   31  C   UNK N   1      23.071  11.569  10.597  0.00  0.00     0.004 C 
HETATM   32  C   UNK N   1      24.148  11.877  11.318  0.00  0.00     0.012 C 
ENDBRANCH  24  31
ENDBRANCH  13  22
ENDBRANCH   1   9
BRANCH   3  33
HETATM   33  C   UNK N   1      24.535  20.193   4.107  0.00  0.00     0.052 C 
BRANCH  33  34
HETATM   34  C   UNK N   1      23.946  20.492   2.749  0.00  0.00     0.115 C 
BRANCH  34  35
HETATM   35  C   UNK N   1      22.461  20.442   2.875  0.00  0.00     0.139 C 
HETATM   36  O   UNK N   1      21.904  19.381   3.112  0.00  0.00    -0.650 OA
BRANCH  35  37
HETATM   37  O   UNK N   1      21.734  21.568   2.755  0.00  0.00    -0.776 OA
HETATM   38  H   UNK N   1      22.107  22.393   2.519  0.00  0.00     0.167 HD
ENDBRANCH  35  37
ENDBRANCH  34  35
ENDBRANCH  33  34
ENDBRANCH   3  33
BRANCH   7  39
HETATM   39  C   UNK N   1      28.817  17.532   4.202  0.00  0.00     0.060 C 
HETATM   40  C   UNK N   1      29.541  17.353   5.311  0.00  0.00     0.044 A 
HETATM   41  C   UNK N   1      31.007  17.332   5.350  0.00  0.00    -0.019 A 
HETATM   42  N   UNK N   1      29.043  17.280   6.627  0.00  0.00    -0.322 N 
HETATM   43  C   UNK N   1      31.368  17.280   6.635  0.00  0.00     0.039 A 
HETATM   44  C   UNK N   1      31.932  17.445   4.180  0.00  0.00     0.052 C 
HETATM   45  C   UNK N   1      30.125  17.215   7.426  0.00  0.00     0.256 A 
HETATM   46  O   UNK N   1      30.058  17.107   8.640  0.00  0.00    -0.267 OA
HETATM   47  H   UNK N   1      28.099  17.278   6.905  0.00  0.00     0.169 HD
BRANCH  43  48
HETATM   48  C   UNK N   1      32.759  17.329   7.128  0.00  0.00     0.007 C 
HETATM   49  C   UNK N   1      33.097  18.047   8.197  0.00  0.00     0.012 C 
ENDBRANCH  43  48
ENDBRANCH   7  39
TORSDOF 13
ENDMDL
MODEL 3
REMARK VINA RESULT:      -8.6      1.214      7.410
REMARK  13 active torsions:
REMARK  status: ('A' for Active; 'I' for Inactive)
REMARK    1  A    between atoms: C_1  and  C_3 
REMARK    2  A    between atoms: C_2  and  C_6 
REMARK    3  A    between atoms: C_6  and  C_41 
REMARK    4  A    between atoms: C_8  and  C_13 
REMARK    5  A    between atoms: C_10  and  C_15 
REMARK    6  A    between atoms: C_15  and  C_19 
REMARK    7  A    between atoms: C_16  and  C_20 
REMARK    8  A    between atoms: C_19  and  C_23 
REMARK    9  A    between atoms: C_21  and  C_26 
REMARK   10  A    between atoms: C_23  and  O_28 
REMARK   11  A    between atoms: C_35  and  C_38 
REMARK   12  A    between atoms: C_41  and  C_42 
REMARK   13  A    between atoms: C_42  and  O_44 
ROOT
HETATM    1  C   UNK N   1      22.667  17.395   4.617  0.00  0.00     0.060 C 
HETATM    2  C   UNK N   1      23.937  17.757   4.392  0.00  0.00     0.041 A 
HETATM    3  C   UNK N   1      24.324  19.058   3.866  0.00  0.00    -0.023 A 
HETATM    4  N   UNK N   1      25.113  17.034   4.708  0.00  0.00    -0.355 N 
ATOM      5  HN  UNK N   1      25.161  16.098   5.111  1.00  0.00     0.166 HD
HETATM    6  C   UNK N   1      25.651  19.074   3.848  0.00  0.00    -0.027 A 
HETATM    7  C   UNK N   1      26.114  17.784   4.387  0.00  0.00     0.041 A 
HETATM    8  C   UNK N   1      26.510  20.233   3.458  0.00  0.00     0.051 C 
ENDROOT
BRANCH   1   9
HETATM    9  C   UNK N   1      22.173  16.157   5.238  0.00  0.00     0.041 A 
HETATM   10  C   UNK N   1      21.655  15.097   4.521  0.00  0.00    -0.023 A 
HETATM   11  C   UNK N   1      21.252  14.159   5.439  0.00  0.00    -0.027 A 
HETATM   12  C   UNK N   1      20.570  12.863   5.149  0.00  0.00     0.051 C 
HETATM   13  C   UNK N   1      21.506  14.698   6.682  0.00  0.00     0.041 A 
HETATM   14  N   UNK N   1      22.075  15.922   6.563  0.00  0.00    -0.355 N 
HETATM   15  H   UNK N   1      22.360  16.517   7.293  0.00  0.00     0.166 HD
BRANCH  10  16
HETATM   16  C   UNK N   1      21.485  15.045   3.039  0.00  0.00     0.052 C 
BRANCH  16  17
HETATM   17  C   UNK N   1      20.068  15.374   2.631  0.00  0.00     0.115 C 
BRANCH  17  18
HETATM   18  C   UNK N   1      20.095  16.612   1.803  0.00  0.00     0.139 C 
HETATM   19  O   UNK N   1      20.557  16.592   0.673  0.00  0.00    -0.650 OA
BRANCH  18  20
HETATM   20  O   UNK N   1      19.576  17.750   2.297  0.00  0.00    -0.776 OA
HETATM   21  H   UNK N   1      19.090  17.987   3.062  0.00  0.00     0.167 HD
ENDBRANCH  18  20
ENDBRANCH  17  18
ENDBRANCH  16  17
ENDBRANCH  10  16
BRANCH  13  22
HETATM   22  C   UNK N   1      21.059  14.095   7.949  0.00  0.00     0.060 C 
HETATM   23  C   UNK N   1      21.912  13.496   8.787  0.00  0.00     0.048 A 
HETATM   24  C   UNK N   1      21.609  12.982  10.137  0.00  0.00     0.001 A 
HETATM   25  N   UNK N   1      23.306  13.405   8.570  0.00  0.00    -0.322 N 
HETATM   26  C   UNK N   1      22.777  12.608  10.676  0.00  0.00     0.018 A 
HETATM   27  C   UNK N   1      22.984  12.061  12.048  0.00  0.00     0.055 C 
HETATM   28  C   UNK N   1      23.823  12.884   9.689  0.00  0.00     0.252 A 
HETATM   29  O   UNK N   1      25.023  12.711   9.855  0.00  0.00    -0.268 OA
HETATM   30  H   UNK N   1      23.796  13.671   7.759  0.00  0.00     0.169 HD
BRANCH  24  31
HETATM   31  C   UNK N   1      20.307  12.932  10.838  0.00  0.00     0.004 C 
HETATM   32  C   UNK N   1      19.991  11.948  11.678  0.00  0.00     0.012 C 
ENDBRANCH  24  31
ENDBRANCH  13  22
ENDBRANCH   1   9
BRANCH   3  33
HETATM   33  C   UNK N   1      23.412  20.206   3.576  0.00  0.00     0.052 C 
BRANCH  33  34
HETATM   34  C   UNK N   1      22.406  19.905   2.491  0.00  0.00     0.115 C 
BRANCH  34  35
HETATM   35  C   UNK N   1      21.176  20.699   2.777  0.00  0.00     0.139 C 
HETATM   36  O   UNK N   1      20.482  20.423   3.742  0.00  0.00    -0.650 OA
BRANCH  35  37
HETATM   37  O   UNK N   1      20.844  21.738   1.988  0.00  0.00    -0.776 OA
HETATM   38  H   UNK N   1      20.513  21.633   1.119  0.00  0.00     0.167 HD
ENDBRANCH  35  37
ENDBRANCH  34  35
ENDBRANCH  33  34
ENDBRANCH   3  33
BRANCH   7  39
HETATM   39  C   UNK N   1      27.524  17.534   4.747  0.00  0.00     0.060 C 
HETATM   40  C   UNK N   1      28.038  17.499   5.980  0.00  0.00     0.044 A 
HETATM   41  C   UNK N   1      29.473  17.467   6.281  0.00  0.00    -0.019 A 
HETATM   42  N   UNK N   1      27.316  17.611   7.185  0.00  0.00    -0.322 N 
HETATM   43  C   UNK N   1      29.603  17.586   7.605  0.00  0.00     0.039 A 
HETATM   44  C   UNK N   1      30.591  17.410   5.288  0.00  0.00     0.052 C 
HETATM   45  C   UNK N   1      28.239  17.643   8.165  0.00  0.00     0.256 A 
HETATM   46  O   UNK N   1      27.958  17.702   9.351  0.00  0.00    -0.267 OA
HETATM   47  H   UNK N   1      26.339  17.657   7.290  0.00  0.00     0.169 HD
BRANCH  43  48
HETATM   48  C   UNK N   1      30.888  17.686   8.325  0.00  0.00     0.007 C 
HETATM   49  C   UNK N   1      31.537  16.605   8.752  0.00  0.00     0.012 C 
ENDBRANCH  43  48
ENDBRANCH   7  39
TORSDOF 13
ENDMDL
MODEL 4
REMARK VINA RESULT:      -8.5      1.814      2.305
REMARK  13 active torsions:
REMARK  status: ('A' for Active; 'I' for Inactive)
REMARK    1  A    between atoms: C_1  and  C_3 
REMARK    2  A    between atoms: C_2  and  C_6 
REMARK    3  A    between atoms: C_6  and  C_41 
REMARK    4  A    between atoms: C_8  and  C_13 
REMARK    5  A    between atoms: C_10  and  C_15 
REMARK    6  A    between atoms: C_15  and  C_19 
REMARK    7  A    between atoms: C_16  and  C_20 
REMARK    8  A    between atoms: C_19  and  C_23 
REMARK    9  A    between atoms: C_21  and  C_26 
REMARK   10  A    between atoms: C_23  and  O_28 
REMARK   11  A    between atoms: C_35  and  C_38 
REMARK   12  A    between atoms: C_41  and  C_42 
REMARK   13  A    between atoms: C_42  and  O_44 
ROOT
HETATM    1  C   UNK N   1      24.163  16.096   4.505  0.00  0.00     0.060 C 
HETATM    2  C   UNK N   1      23.172  15.509   5.189  0.00  0.00     0.041 A 
HETATM    3  C   UNK N   1      22.171  14.646   4.580  0.00  0.00    -0.023 A 
HETATM    4  N   UNK N   1      22.969  15.509   6.591  0.00  0.00    -0.355 N 
ATOM      5  HN  UNK N   1      23.526  16.006   7.285  1.00  0.00     0.166 HD
HETATM    6  C   UNK N   1      21.410  14.199   5.570  0.00  0.00    -0.027 A 
HETATM    7  C   UNK N   1      21.943  14.760   6.822  0.00  0.00     0.041 A 
HETATM    8  C   UNK N   1      20.291  13.216   5.442  0.00  0.00     0.051 C 
ENDROOT
BRANCH   1   9
HETATM    9  C   UNK N   1      25.280  16.895   5.031  0.00  0.00     0.041 A 
HETATM   10  C   UNK N   1      25.663  18.113   4.504  0.00  0.00    -0.023 A 
HETATM   11  C   UNK N   1      26.764  18.521   5.215  0.00  0.00    -0.027 A 
HETATM   12  C   UNK N   1      27.575  19.750   4.973  0.00  0.00     0.051 C 
HETATM   13  C   UNK N   1      27.034  17.519   6.123  0.00  0.00     0.041 A 
HETATM   14  N   UNK N   1      26.122  16.523   6.017  0.00  0.00    -0.355 N 
HETATM   15  H   UNK N   1      26.082  15.696   6.550  0.00  0.00     0.166 HD
BRANCH  10  16
HETATM   16  C   UNK N   1      25.044  18.787   3.325  0.00  0.00     0.052 C 
BRANCH  16  17
HETATM   17  C   UNK N   1      23.779  19.519   3.706  0.00  0.00     0.115 C 
BRANCH  17  18
HETATM   18  C   UNK N   1      23.659  20.726   2.842  0.00  0.00     0.139 C 
HETATM   19  O   UNK N   1      24.587  21.072   2.128  0.00  0.00    -0.650 OA
BRANCH  18  20
HETATM   20  O   UNK N   1      22.505  21.417   2.826  0.00  0.00    -0.776 OA
HETATM   21  H   UNK N   1      22.237  22.264   2.529  0.00  0.00     0.167 HD
ENDBRANCH  18  20
ENDBRANCH  17  18
ENDBRANCH  16  17
ENDBRANCH  10  16
BRANCH  13  22
HETATM   22  C   UNK N   1      28.241  17.472   6.964  0.00  0.00     0.060 C 
HETATM   23  C   UNK N   1      29.439  17.149   6.466  0.00  0.00     0.048 A 
HETATM   24  C   UNK N   1      30.733  17.201   7.174  0.00  0.00     0.001 A 
HETATM   25  N   UNK N   1      29.679  16.856   5.104  0.00  0.00    -0.322 N 
HETATM   26  C   UNK N   1      31.680  16.946   6.260  0.00  0.00     0.018 A 
HETATM   27  C   UNK N   1      33.153  16.929   6.493  0.00  0.00     0.055 C 
HETATM   28  C   UNK N   1      31.006  16.741   4.977  0.00  0.00     0.252 A 
HETATM   29  O   UNK N   1      31.560  16.531   3.906  0.00  0.00    -0.268 OA
HETATM   30  H   UNK N   1      29.005  16.757   4.393  0.00  0.00     0.169 HD
BRANCH  24  31
HETATM   31  C   UNK N   1      31.001  17.535   8.590  0.00  0.00     0.004 C 
HETATM   32  C   UNK N   1      30.594  18.678   9.139  0.00  0.00     0.012 C 
ENDBRANCH  24  31
ENDBRANCH  13  22
ENDBRANCH   1   9
BRANCH   3  33
HETATM   33  C   UNK N   1      22.124  14.212   3.149  0.00  0.00     0.052 C 
BRANCH  33  34
HETATM   34  C   UNK N   1      21.704  15.316   2.208  0.00  0.00     0.115 C 
BRANCH  34  35
HETATM   35  C   UNK N   1      20.295  15.680   2.532  0.00  0.00     0.139 C 
HETATM   36  O   UNK N   1      20.026  16.811   2.905  0.00  0.00    -0.650 OA
BRANCH  35  37
HETATM   37  O   UNK N   1      19.312  14.771   2.388  0.00  0.00    -0.776 OA
HETATM   38  H   UNK N   1      19.258  14.190   1.656  0.00  0.00     0.167 HD
ENDBRANCH  35  37
ENDBRANCH  34  35
ENDBRANCH  33  34
ENDBRANCH   3  33
BRANCH   7  39
HETATM   39  C   UNK N   1      21.506  14.290   8.153  0.00  0.00     0.060 C 
HETATM   40  C   UNK N   1      22.268  13.706   9.082  0.00  0.00     0.044 A 
HETATM   41  C   UNK N   1      21.751  13.060  10.293  0.00  0.00    -0.019 A 
HETATM   42  N   UNK N   1      23.659  13.500   9.006  0.00  0.00    -0.322 N 
HETATM   43  C   UNK N   1      22.784  12.468  10.897  0.00  0.00     0.039 A 
HETATM   44  C   UNK N   1      20.320  12.991  10.725  0.00  0.00     0.052 C 
HETATM   45  C   UNK N   1      23.984  12.779  10.097  0.00  0.00     0.256 A 
HETATM   46  O   UNK N   1      25.126  12.447  10.367  0.00  0.00    -0.267 OA
HETATM   47  H   UNK N   1      24.269  13.816   8.302  0.00  0.00     0.169 HD
BRANCH  43  48
HETATM   48  C   UNK N   1      22.691  11.629  12.109  0.00  0.00     0.007 C 
HETATM   49  C   UNK N   1      23.284  11.979  13.249  0.00  0.00     0.012 C 
ENDBRANCH  43  48
ENDBRANCH   7  39
TORSDOF 13
ENDMDL
MODEL 5
REMARK VINA RESULT:      -8.5      2.631      8.345
REMARK  13 active torsions:
REMARK  status: ('A' for Active; 'I' for Inactive)
REMARK    1  A    between atoms: C_1  and  C_3 
REMARK    2  A    between atoms: C_2  and  C_6 
REMARK    3  A    between atoms: C_6  and  C_41 
REMARK    4  A    between atoms: C_8  and  C_13 
REMARK    5  A    between atoms: C_10  and  C_15 
REMARK    6  A    between atoms: C_15  and  C_19 
REMARK    7  A    between atoms: C_16  and  C_20 
REMARK    8  A    between atoms: C_19  and  C_23 
REMARK    9  A    between atoms: C_21  and  C_26 
REMARK   10  A    between atoms: C_23  and  O_28 
REMARK   11  A    between atoms: C_35  and  C_38 
REMARK   12  A    between atoms: C_41  and  C_42 
REMARK   13  A    between atoms: C_42  and  O_44 
ROOT
HETATM    1  C   UNK N   1      24.461  16.064   4.897  0.00  0.00     0.060 C 
HETATM    2  C   UNK N   1      25.572  16.776   5.126  0.00  0.00     0.041 A 
HETATM    3  C   UNK N   1      25.939  17.964   4.370  0.00  0.00    -0.023 A 
HETATM    4  N   UNK N   1      26.513  16.602   6.170  0.00  0.00    -0.355 N 
ATOM      5  HN  UNK N   1      26.507  15.867   6.877  1.00  0.00     0.166 HD
HETATM    6  C   UNK N   1      27.050  18.432   4.924  0.00  0.00    -0.027 A 
HETATM    7  C   UNK N   1      27.381  17.551   6.056  0.00  0.00     0.041 A 
HETATM    8  C   UNK N   1      27.764  19.687   4.537  0.00  0.00     0.051 C 
ENDROOT
BRANCH   1   9
HETATM    9  C   UNK N   1      23.943  14.919   5.661  0.00  0.00     0.041 A 
HETATM   10  C   UNK N   1      23.907  13.628   5.173  0.00  0.00    -0.023 A 
HETATM   11  C   UNK N   1      23.312  12.856   6.140  0.00  0.00    -0.027 A 
HETATM   12  C   UNK N   1      22.993  11.402   6.048  0.00  0.00     0.051 C 
HETATM   13  C   UNK N   1      22.975  13.713   7.167  0.00  0.00     0.041 A 
HETATM   14  N   UNK N   1      23.365  14.978   6.878  0.00  0.00    -0.355 N 
HETATM   15  H   UNK N   1      23.250  15.777   7.442  0.00  0.00     0.166 HD
BRANCH  10  16
HETATM   16  C   UNK N   1      24.346  13.197   3.812  0.00  0.00     0.052 C 
BRANCH  16  17
HETATM   17  C   UNK N   1      25.724  12.579   3.844  0.00  0.00     0.115 C 
BRANCH  17  18
HETATM   18  C   UNK N   1      26.718  13.639   3.522  0.00  0.00     0.139 C 
HETATM   19  O   UNK N   1      26.749  14.145   2.411  0.00  0.00    -0.650 OA
BRANCH  18  20
HETATM   20  O   UNK N   1      27.566  14.063   4.476  0.00  0.00    -0.776 OA
HETATM   21  H   UNK N   1      27.953  13.687   5.242  0.00  0.00     0.167 HD
ENDBRANCH  18  20
ENDBRANCH  17  18
ENDBRANCH  16  17
ENDBRANCH  10  16
BRANCH  13  22
HETATM   22  C   UNK N   1      22.155  13.327   8.327  0.00  0.00     0.060 C 
HETATM   23  C   UNK N   1      22.695  12.800   9.431  0.00  0.00     0.048 A 
HETATM   24  C   UNK N   1      21.999  12.504  10.699  0.00  0.00     0.001 A 
HETATM   25  N   UNK N   1      24.080  12.591   9.615  0.00  0.00    -0.322 N 
HETATM   26  C   UNK N   1      22.943  12.137  11.577  0.00  0.00     0.018 A 
HETATM   27  C   UNK N   1      22.728  11.780  13.010  0.00  0.00     0.055 C 
HETATM   28  C   UNK N   1      24.232  12.204  10.887  0.00  0.00     0.252 A 
HETATM   29  O   UNK N   1      25.324  11.981  11.393  0.00  0.00    -0.268 OA
HETATM   30  H   UNK N   1      24.790  12.708   8.943  0.00  0.00     0.169 HD
BRANCH  24  31
HETATM   31  C   UNK N   1      20.561  12.637  11.019  0.00  0.00     0.004 C 
HETATM   32  C   UNK N   1      19.961  11.864  11.922  0.00  0.00     0.012 C 
ENDBRANCH  24  31
ENDBRANCH  13  22
ENDBRANCH   1   9
BRANCH   3  33
HETATM   33  C   UNK N   1      25.128  18.622   3.300  0.00  0.00     0.052 C 
BRANCH  33  34
HETATM   34  C   UNK N   1      24.060  19.541   3.844  0.00  0.00     0.115 C 
BRANCH  34  35
HETATM   35  C   UNK N   1      23.935  20.698   2.912  0.00  0.00     0.139 C 
HETATM   36  O   UNK N   1      22.930  21.390   2.929  0.00  0.00    -0.650 OA
BRANCH  35  37
HETATM   37  O   UNK N   1      24.940  20.997   2.068  0.00  0.00    -0.776 OA
HETATM   38  H   UNK N   1      25.774  21.307   2.358  0.00  0.00     0.167 HD
ENDBRANCH  35  37
ENDBRANCH  34  35
ENDBRANCH  33  34
ENDBRANCH   3  33
BRANCH   7  39
HETATM   39  C   UNK N   1      28.410  17.897   7.058  0.00  0.00     0.060 C 
HETATM   40  C   UNK N   1      29.728  17.709   6.944  0.00  0.00     0.044 A 
HETATM   41  C   UNK N   1      30.686  17.863   8.045  0.00  0.00    -0.019 A 
HETATM   42  N   UNK N   1      30.403  17.219   5.809  0.00  0.00    -0.322 N 
HETATM   43  C   UNK N   1      31.875  17.454   7.595  0.00  0.00     0.039 A 
HETATM   44  C   UNK N   1      30.377  18.304   9.441  0.00  0.00     0.052 C 
HETATM   45  C   UNK N   1      31.691  17.082   6.179  0.00  0.00     0.256 A 
HETATM   46  O   UNK N   1      32.571  16.706   5.421  0.00  0.00    -0.267 OA
HETATM   47  H   UNK N   1      30.015  17.017   4.928  0.00  0.00     0.169 HD
BRANCH  43  48
HETATM   48  C   UNK N   1      33.104  17.361   8.408  0.00  0.00     0.007 C 
HETATM   49  C   UNK N   1      34.125  18.196   8.230  0.00  0.00     0.012 C 
ENDBRANCH  43  48
ENDBRANCH   7  39
TORSDOF 13
ENDMDL
MODEL 6
REMARK VINA RESULT:      -8.4      1.670      1.982
REMARK  13 active torsions:
REMARK  status: ('A' for Active; 'I' for Inactive)
REMARK    1  A    between atoms: C_1  and  C_3 
REMARK    2  A    between atoms: C_2  and  C_6 
REMARK    3  A    between atoms: C_6  and  C_41 
REMARK    4  A    between atoms: C_8  and  C_13 
REMARK    5  A    between atoms: C_10  and  C_15 
REMARK    6  A    between atoms: C_15  and  C_19 
REMARK    7  A    between atoms: C_16  and  C_20 
REMARK    8  A    between atoms: C_19  and  C_23 
REMARK    9  A    between atoms: C_21  and  C_26 
REMARK   10  A    between atoms: C_23  and  O_28 
REMARK   11  A    between atoms: C_35  and  C_38 
REMARK   12  A    between atoms: C_41  and  C_42 
REMARK   13  A    between atoms: C_42  and  O_44 
ROOT
HETATM    1  C   UNK N   1      24.458  16.763   3.425  0.00  0.00     0.060 C 
HETATM    2  C   UNK N   1      23.737  15.879   4.127  0.00  0.00     0.041 A 
HETATM    3  C   UNK N   1      22.542  15.224   3.614  0.00  0.00    -0.023 A 
HETATM    4  N   UNK N   1      24.032  15.337   5.401  0.00  0.00    -0.355 N 
ATOM      5  HN  UNK N   1      24.821  15.584   5.999  1.00  0.00     0.166 HD
HETATM    6  C   UNK N   1      22.148  14.375   4.554  0.00  0.00    -0.027 A 
HETATM    7  C   UNK N   1      23.111  14.470   5.664  0.00  0.00     0.041 A 
HETATM    8  C   UNK N   1      21.004  13.418   4.451  0.00  0.00     0.051 C 
ENDROOT
BRANCH   1   9
HETATM    9  C   UNK N   1      25.729  17.400   3.802  0.00  0.00     0.041 A 
HETATM   10  C   UNK N   1      25.826  18.697   4.266  0.00  0.00    -0.023 A 
HETATM   11  C   UNK N   1      27.161  18.950   4.456  0.00  0.00    -0.027 A 
HETATM   12  C   UNK N   1      27.771  20.241   4.890  0.00  0.00     0.051 C 
HETATM   13  C   UNK N   1      27.832  17.810   4.065  0.00  0.00     0.041 A 
HETATM   14  N   UNK N   1      26.956  16.856   3.668  0.00  0.00    -0.355 N 
HETATM   15  H   UNK N   1      27.171  15.950   3.348  0.00  0.00     0.166 HD
BRANCH  10  16
HETATM   16  C   UNK N   1      24.690  19.653   4.428  0.00  0.00     0.052 C 
BRANCH  16  17
HETATM   17  C   UNK N   1      24.347  20.332   3.123  0.00  0.00     0.115 C 
BRANCH  17  18
HETATM   18  C   UNK N   1      22.866  20.318   2.965  0.00  0.00     0.139 C 
HETATM   19  O   UNK N   1      22.317  21.100   2.205  0.00  0.00    -0.650 OA
BRANCH  18  20
HETATM   20  O   UNK N   1      22.136  19.414   3.641  0.00  0.00    -0.776 OA
HETATM   21  H   UNK N   1      21.303  19.412   4.069  0.00  0.00     0.167 HD
ENDBRANCH  18  20
ENDBRANCH  17  18
ENDBRANCH  16  17
ENDBRANCH  10  16
BRANCH  13  22
HETATM   22  C   UNK N   1      29.296  17.717   3.939  0.00  0.00     0.060 C 
HETATM   23  C   UNK N   1      30.087  17.522   4.999  0.00  0.00     0.048 A 
HETATM   24  C   UNK N   1      31.542  17.276   4.982  0.00  0.00     0.001 A 
HETATM   25  N   UNK N   1      29.615  17.355   6.321  0.00  0.00    -0.322 N 
HETATM   26  C   UNK N   1      31.896  16.982   6.240  0.00  0.00     0.018 A 
HETATM   27  C   UNK N   1      33.264  16.619   6.713  0.00  0.00     0.055 C 
HETATM   28  C   UNK N   1      30.683  17.029   7.059  0.00  0.00     0.252 A 
HETATM   29  O   UNK N   1      30.618  16.769   8.253  0.00  0.00    -0.268 OA
HETATM   30  H   UNK N   1      28.688  17.457   6.635  0.00  0.00     0.169 HD
BRANCH  24  31
HETATM   31  C   UNK N   1      32.466  17.269   3.826  0.00  0.00     0.004 C 
HETATM   32  C   UNK N   1      32.616  16.202   3.044  0.00  0.00     0.012 C 
ENDBRANCH  24  31
ENDBRANCH  13  22
ENDBRANCH   1   9
BRANCH   3  33
HETATM   33  C   UNK N   1      21.980  15.355   2.235  0.00  0.00     0.052 C 
BRANCH  33  34
HETATM   34  C   UNK N   1      20.985  16.484   2.105  0.00  0.00     0.115 C 
BRANCH  34  35
HETATM   35  C   UNK N   1      20.298  16.337   0.789  0.00  0.00     0.139 C 
HETATM   36  O   UNK N   1      19.766  15.279   0.493  0.00  0.00    -0.650 OA
BRANCH  35  37
HETATM   37  O   UNK N   1      20.240  17.377  -0.063  0.00  0.00    -0.776 OA
HETATM   38  H   UNK N   1      20.391  17.292  -0.983  0.00  0.00     0.167 HD
ENDBRANCH  35  37
ENDBRANCH  34  35
ENDBRANCH  33  34
ENDBRANCH   3  33
BRANCH   7  39
HETATM   39  C   UNK N   1      23.138  13.501   6.778  0.00  0.00     0.060 C 
HETATM   40  C   UNK N   1      22.277  13.433   7.797  0.00  0.00     0.044 A 
HETATM   41  C   UNK N   1      22.466  12.602   8.991  0.00  0.00    -0.019 A 
HETATM   42  N   UNK N   1      21.122  14.224   7.964  0.00  0.00    -0.322 N 
HETATM   43  C   UNK N   1      21.485  12.905   9.844  0.00  0.00     0.039 A 
HETATM   44  C   UNK N   1      23.599  11.659   9.249  0.00  0.00     0.052 C 
HETATM   45  C   UNK N   1      20.628  13.902   9.175  0.00  0.00     0.256 A 
HETATM   46  O   UNK N   1      19.602  14.379   9.630  0.00  0.00    -0.267 OA
HETATM   47  H   UNK N   1      20.753  14.877   7.327  0.00  0.00     0.169 HD
BRANCH  43  48
HETATM   48  C   UNK N   1      21.349  12.358  11.209  0.00  0.00     0.007 C 
HETATM   49  C   UNK N   1      20.167  11.990  11.700  0.00  0.00     0.012 C 
ENDBRANCH  43  48
ENDBRANCH   7  39
TORSDOF 13
ENDMDL
MODEL 7
REMARK VINA RESULT:      -8.2      2.071      7.498
REMARK  13 active torsions:
REMARK  status: ('A' for Active; 'I' for Inactive)
REMARK    1  A    between atoms: C_1  and  C_3 
REMARK    2  A    between atoms: C_2  and  C_6 
REMARK    3  A    between atoms: C_6  and  C_41 
REMARK    4  A    between atoms: C_8  and  C_13 
REMARK    5  A    between atoms: C_10  and  C_15 
REMARK    6  A    between atoms: C_15  and  C_19 
REMARK    7  A    between atoms: C_16  and  C_20 
REMARK    8  A    between atoms: C_19  and  C_23 
REMARK    9  A    between atoms: C_21  and  C_26 
REMARK   10  A    between atoms: C_23  and  O_28 
REMARK   11  A    between atoms: C_35  and  C_38 
REMARK   12  A    between atoms: C_41  and  C_42 
REMARK   13  A    between atoms: C_42  and  O_44 
ROOT
HETATM    1  C   UNK N   1      21.283  16.769   4.497  0.00  0.00     0.060 C 
HETATM    2  C   UNK N   1      22.389  17.463   4.197  0.00  0.00     0.041 A 
HETATM    3  C   UNK N   1      22.370  18.806   3.635  0.00  0.00    -0.023 A 
HETATM    4  N   UNK N   1      23.734  17.104   4.455  0.00  0.00    -0.355 N 
ATOM      5  HN  UNK N   1      24.062  16.230   4.866  1.00  0.00     0.166 HD
HETATM    6  C   UNK N   1      23.637  19.190   3.542  0.00  0.00    -0.027 A 
HETATM    7  C   UNK N   1      24.468  18.094   4.069  0.00  0.00     0.041 A 
HETATM    8  C   UNK N   1      24.117  20.531   3.090  0.00  0.00     0.051 C 
ENDROOT
BRANCH   1   9
HETATM    9  C   UNK N   1      21.186  15.459   5.160  0.00  0.00     0.041 A 
HETATM   10  C   UNK N   1      20.781  14.306   4.517  0.00  0.00    -0.023 A 
HETATM   11  C   UNK N   1      20.763  13.312   5.464  0.00  0.00    -0.027 A 
HETATM   12  C   UNK N   1      20.330  11.898   5.263  0.00  0.00     0.051 C 
HETATM   13  C   UNK N   1      21.122  13.905   6.656  0.00  0.00     0.041 A 
HETATM   14  N   UNK N   1      21.387  15.221   6.472  0.00  0.00    -0.355 N 
HETATM   15  H   UNK N   1      21.670  15.870   7.156  0.00  0.00     0.166 HD
BRANCH  10  16
HETATM   16  C   UNK N   1      20.355  14.206   3.090  0.00  0.00     0.052 C 
BRANCH  16  17
HETATM   17  C   UNK N   1      21.443  13.613   2.226  0.00  0.00     0.115 C 
BRANCH  17  18
HETATM   18  C   UNK N   1      21.844  14.629   1.215  0.00  0.00     0.139 C 
HETATM   19  O   UNK N   1      22.933  14.564   0.668  0.00  0.00    -0.650 OA
BRANCH  18  20
HETATM   20  O   UNK N   1      20.982  15.606   0.881  0.00  0.00    -0.776 OA
HETATM   21  H   UNK N   1      20.750  16.053   0.091  0.00  0.00     0.167 HD
ENDBRANCH  18  20
ENDBRANCH  17  18
ENDBRANCH  16  17
ENDBRANCH  10  16
BRANCH  13  22
HETATM   22  C   UNK N   1      21.056  13.232   7.964  0.00  0.00     0.060 C 
HETATM   23  C   UNK N   1      22.150  13.007   8.700  0.00  0.00     0.048 A 
HETATM   24  C   UNK N   1      22.193  12.471  10.075  0.00  0.00     0.001 A 
HETATM   25  N   UNK N   1      23.453  13.408   8.329  0.00  0.00    -0.322 N 
HETATM   26  C   UNK N   1      23.468  12.556  10.479  0.00  0.00     0.018 A 
HETATM   27  C   UNK N   1      23.999  12.172  11.819  0.00  0.00     0.055 C 
HETATM   28  C   UNK N   1      24.237  13.148   9.382  0.00  0.00     0.252 A 
HETATM   29  O   UNK N   1      25.430  13.418   9.412  0.00  0.00    -0.268 OA
HETATM   30  H   UNK N   1      23.728  13.799   7.468  0.00  0.00     0.169 HD
BRANCH  24  31
HETATM   31  C   UNK N   1      21.076  11.990  10.917  0.00  0.00     0.004 C 
HETATM   32  C   UNK N   1      20.003  12.738  11.167  0.00  0.00     0.012 C 
ENDBRANCH  24  31
ENDBRANCH  13  22
ENDBRANCH   1   9
BRANCH   3  33
HETATM   33  C   UNK N   1      21.160  19.647   3.383  0.00  0.00     0.052 C 
BRANCH  33  34
HETATM   34  C   UNK N   1      20.596  19.474   1.993  0.00  0.00     0.115 C 
BRANCH  34  35
HETATM   35  C   UNK N   1      20.874  20.724   1.229  0.00  0.00     0.139 C 
HETATM   36  O   UNK N   1      21.000  20.683   0.016  0.00  0.00    -0.650 OA
BRANCH  35  37
HETATM   37  O   UNK N   1      20.959  21.903   1.872  0.00  0.00    -0.776 OA
HETATM   38  H   UNK N   1      20.255  22.521   1.901  0.00  0.00     0.167 HD
ENDBRANCH  35  37
ENDBRANCH  34  35
ENDBRANCH  33  34
ENDBRANCH   3  33
BRANCH   7  39
HETATM   39  C   UNK N   1      25.909  18.256   4.352  0.00  0.00     0.060 C 
HETATM   40  C   UNK N   1      26.904  17.500   3.880  0.00  0.00     0.044 A 
HETATM   41  C   UNK N   1      28.290  17.558   4.358  0.00  0.00    -0.019 A 
HETATM   42  N   UNK N   1      26.780  16.449   2.949  0.00  0.00    -0.322 N 
HETATM   43  C   UNK N   1      28.956  16.566   3.762  0.00  0.00     0.039 A 
HETATM   44  C   UNK N   1      28.837  18.490   5.393  0.00  0.00     0.052 C 
HETATM   45  C   UNK N   1      28.005  15.897   2.855  0.00  0.00     0.256 A 
HETATM   46  O   UNK N   1      28.268  14.972   2.103  0.00  0.00    -0.267 OA
HETATM   47  H   UNK N   1      25.967  16.175   2.468  0.00  0.00     0.169 HD
BRANCH  43  48
HETATM   48  C   UNK N   1      30.365  16.212   4.027  0.00  0.00     0.007 C 
HETATM   49  C   UNK N   1      30.694  15.246   4.882  0.00  0.00     0.012 C 
ENDBRANCH  43  48
ENDBRANCH   7  39
TORSDOF 13
ENDMDL
MODEL 8
REMARK VINA RESULT:      -8.1      1.760      7.804
REMARK  13 active torsions:
REMARK  status: ('A' for Active; 'I' for Inactive)
REMARK    1  A    between atoms: C_1  and  C_3 
REMARK    2  A    between atoms: C_2  and  C_6 
REMARK    3  A    between atoms: C_6  and  C_41 
REMARK    4  A    between atoms: C_8  and  C_13 
REMARK    5  A    between atoms: C_10  and  C_15 
REMARK    6  A    between atoms: C_15  and  C_19 
REMARK    7  A    between atoms: C_16  and  C_20 
REMARK    8  A    between atoms: C_19  and  C_23 
REMARK    9  A    between atoms: C_21  and  C_26 
REMARK   10  A    between atoms: C_23  and  O_28 
REMARK   11  A    between atoms: C_35  and  C_38 
REMARK   12  A    between atoms: C_41  and  C_42 
REMARK   13  A    between atoms: C_42  and  O_44 
ROOT
HETATM    1  C   UNK N   1      23.180  17.045   4.509  0.00  0.00     0.060 C 
HETATM    2  C   UNK N   1      24.421  17.545   4.580  0.00  0.00     0.041 A 
HETATM    3  C   UNK N   1      24.821  18.802   3.963  0.00  0.00    -0.023 A 
HETATM    4  N   UNK N   1      25.516  17.044   5.325  0.00  0.00    -0.355 N 
ATOM      5  HN  UNK N   1      25.532  16.190   5.881  1.00  0.00     0.166 HD
HETATM    6  C   UNK N   1      26.087  19.000   4.304  0.00  0.00    -0.027 A 
HETATM    7  C   UNK N   1      26.492  17.875   5.164  0.00  0.00     0.041 A 
HETATM    8  C   UNK N   1      26.910  20.202   3.969  0.00  0.00     0.051 C 
ENDROOT
BRANCH   1   9
HETATM    9  C   UNK N   1      22.645  15.848   5.177  0.00  0.00     0.041 A 
HETATM   10  C   UNK N   1      22.164  14.746   4.498  0.00  0.00    -0.023 A 
HETATM   11  C   UNK N   1      21.705  13.868   5.448  0.00  0.00    -0.027 A 
HETATM   12  C   UNK N   1      21.035  12.558   5.200  0.00  0.00     0.051 C 
HETATM   13  C   UNK N   1      21.889  14.484   6.668  0.00  0.00     0.041 A 
HETATM   14  N   UNK N   1      22.470  15.697   6.505  0.00  0.00    -0.355 N 
HETATM   15  H   UNK N   1      22.716  16.336   7.212  0.00  0.00     0.166 HD
BRANCH  10  16
HETATM   16  C   UNK N   1      22.080  14.603   3.014  0.00  0.00     0.052 C 
BRANCH  16  17
HETATM   17  C   UNK N   1      20.662  14.764   2.521  0.00  0.00     0.115 C 
BRANCH  17  18
HETATM   18  C   UNK N   1      20.585  16.017   1.721  0.00  0.00     0.139 C 
HETATM   19  O   UNK N   1      20.871  16.013   0.534  0.00  0.00    -0.650 OA
BRANCH  18  20
HETATM   20  O   UNK N   1      20.165  17.152   2.307  0.00  0.00    -0.776 OA
HETATM   21  H   UNK N   1      20.544  17.790   2.880  0.00  0.00     0.167 HD
ENDBRANCH  18  20
ENDBRANCH  17  18
ENDBRANCH  16  17
ENDBRANCH  10  16
BRANCH  13  22
HETATM   22  C   UNK N   1      21.367  13.962   7.942  0.00  0.00     0.060 C 
HETATM   23  C   UNK N   1      22.159  13.363   8.838  0.00  0.00     0.048 A 
HETATM   24  C   UNK N   1      21.781  12.927  10.197  0.00  0.00     0.001 A 
HETATM   25  N   UNK N   1      23.553  13.198   8.681  0.00  0.00    -0.322 N 
HETATM   26  C   UNK N   1      22.909  12.524  10.797  0.00  0.00     0.018 A 
HETATM   27  C   UNK N   1      23.038  12.033  12.200  0.00  0.00     0.055 C 
HETATM   28  C   UNK N   1      24.003  12.706   9.842  0.00  0.00     0.252 A 
HETATM   29  O   UNK N   1      25.187  12.486  10.062  0.00  0.00    -0.268 OA
HETATM   30  H   UNK N   1      24.086  13.403   7.879  0.00  0.00     0.169 HD
BRANCH  24  31
HETATM   31  C   UNK N   1      20.453  12.970  10.847  0.00  0.00     0.004 C 
HETATM   32  C   UNK N   1      20.017  11.988  11.635  0.00  0.00     0.012 C 
ENDBRANCH  24  31
ENDBRANCH  13  22
ENDBRANCH   1   9
BRANCH   3  33
HETATM   33  C   UNK N   1      23.929  19.760   3.241  0.00  0.00     0.052 C 
BRANCH  33  34
HETATM   34  C   UNK N   1      22.463  19.544   3.536  0.00  0.00     0.115 C 
BRANCH  34  35
HETATM   35  C   UNK N   1      21.678  20.381   2.583  0.00  0.00     0.139 C 
HETATM   36  O   UNK N   1      21.065  19.854   1.669  0.00  0.00    -0.650 OA
BRANCH  35  37
HETATM   37  O   UNK N   1      21.622  21.716   2.745  0.00  0.00    -0.776 OA
HETATM   38  H   UNK N   1      22.187  22.310   2.291  0.00  0.00     0.167 HD
ENDBRANCH  35  37
ENDBRANCH  34  35
ENDBRANCH  33  34
ENDBRANCH   3  33
BRANCH   7  39
HETATM   39  C   UNK N   1      27.754  17.876   5.933  0.00  0.00     0.060 C 
HETATM   40  C   UNK N   1      28.975  17.609   5.461  0.00  0.00     0.044 A 
HETATM   41  C   UNK N   1      30.162  17.407   6.299  0.00  0.00    -0.019 A 
HETATM   42  N   UNK N   1      29.310  17.356   4.116  0.00  0.00    -0.322 N 
HETATM   43  C   UNK N   1      31.154  17.020   5.493  0.00  0.00     0.039 A 
HETATM   44  C   UNK N   1      30.231  17.518   7.789  0.00  0.00     0.052 C 
HETATM   45  C   UNK N   1      30.615  17.023   4.119  0.00  0.00     0.256 A 
HETATM   46  O   UNK N   1      31.246  16.770   3.106  0.00  0.00    -0.267 OA
HETATM   47  H   UNK N   1      28.714  17.409   3.335  0.00  0.00     0.169 HD
BRANCH  43  48
HETATM   48  C   UNK N   1      32.505  16.626   5.939  0.00  0.00     0.007 C 
HETATM   49  C   UNK N   1      33.539  17.462   5.861  0.00  0.00     0.012 C 
ENDBRANCH  43  48
ENDBRANCH   7  39
TORSDOF 13
ENDMDL
MODEL 9
REMARK VINA RESULT:      -8.0      2.755      8.319
REMARK  13 active torsions:
REMARK  status: ('A' for Active; 'I' for Inactive)
REMARK    1  A    between atoms: C_1  and  C_3 
REMARK    2  A    between atoms: C_2  and  C_6 
REMARK    3  A    between atoms: C_6  and  C_41 
REMARK    4  A    between atoms: C_8  and  C_13 
REMARK    5  A    between atoms: C_10  and  C_15 
REMARK    6  A    between atoms: C_15  and  C_19 
REMARK    7  A    between atoms: C_16  and  C_20 
REMARK    8  A    between atoms: C_19  and  C_23 
REMARK    9  A    between atoms: C_21  and  C_26 
REMARK   10  A    between atoms: C_23  and  O_28 
REMARK   11  A    between atoms: C_35  and  C_38 
REMARK   12  A    between atoms: C_41  and  C_42 
REMARK   13  A    between atoms: C_42  and  O_44 
ROOT
HETATM    1  C   UNK N   1      26.270  16.177   6.109  0.00  0.00     0.060 C 
HETATM    2  C   UNK N   1      25.538  17.118   5.497  0.00  0.00     0.041 A 
HETATM    3  C   UNK N   1      26.113  18.264   4.808  0.00  0.00    -0.023 A 
HETATM    4  N   UNK N   1      24.136  17.134   5.301  0.00  0.00    -0.355 N 
ATOM      5  HN  UNK N   1      23.466  16.448   5.648  1.00  0.00     0.166 HD
HETATM    6  C   UNK N   1      25.096  18.926   4.272  0.00  0.00    -0.027 A 
HETATM    7  C   UNK N   1      23.866  18.185   4.601  0.00  0.00     0.041 A 
HETATM    8  C   UNK N   1      25.197  20.137   3.401  0.00  0.00     0.051 C 
ENDROOT
BRANCH   1   9
HETATM    9  C   UNK N   1      25.803  14.932   6.739  0.00  0.00     0.041 A 
HETATM   10  C   UNK N   1      25.466  13.797   6.029  0.00  0.00    -0.023 A 
HETATM   11  C   UNK N   1      25.028  12.873   6.946  0.00  0.00    -0.027 A 
HETATM   12  C   UNK N   1      24.495  11.511   6.654  0.00  0.00     0.051 C 
HETATM   13  C   UNK N   1      25.080  13.494   8.177  0.00  0.00     0.041 A 
HETATM   14  N   UNK N   1      25.560  14.755   8.054  0.00  0.00    -0.355 N 
HETATM   15  H   UNK N   1      25.702  15.409   8.776  0.00  0.00     0.166 HD
BRANCH  10  16
HETATM   16  C   UNK N   1      25.488  13.657   4.543  0.00  0.00     0.052 C 
BRANCH  16  17
HETATM   17  C   UNK N   1      26.770  13.018   4.064  0.00  0.00     0.115 C 
BRANCH  17  18
HETATM   18  C   UNK N   1      27.535  14.031   3.285  0.00  0.00     0.139 C 
HETATM   19  O   UNK N   1      27.264  14.245   2.114  0.00  0.00    -0.650 OA
BRANCH  18  20
HETATM   20  O   UNK N   1      28.508  14.735   3.889  0.00  0.00    -0.776 OA
HETATM   21  H   UNK N   1      28.540  15.481   4.456  0.00  0.00     0.167 HD
ENDBRANCH  18  20
ENDBRANCH  17  18
ENDBRANCH  16  17
ENDBRANCH  10  16
BRANCH  13  22
HETATM   22  C   UNK N   1      24.529  12.918   9.414  0.00  0.00     0.060 C 
HETATM   23  C   UNK N   1      23.237  13.043   9.739  0.00  0.00     0.048 A 
HETATM   24  C   UNK N   1      22.546  12.398  10.873  0.00  0.00     0.001 A 
HETATM   25  N   UNK N   1      22.277  13.698   8.936  0.00  0.00    -0.322 N 
HETATM   26  C   UNK N   1      21.242  12.671  10.731  0.00  0.00     0.018 A 
HETATM   27  C   UNK N   1      20.137  12.198  11.616  0.00  0.00     0.055 C 
HETATM   28  C   UNK N   1      21.092  13.475   9.517  0.00  0.00     0.252 A 
HETATM   29  O   UNK N   1      20.032  13.870   9.049  0.00  0.00    -0.268 OA
HETATM   30  H   UNK N   1      22.446  14.213   8.114  0.00  0.00     0.169 HD
BRANCH  24  31
HETATM   31  C   UNK N   1      23.114  11.548  11.941  0.00  0.00     0.004 C 
HETATM   32  C   UNK N   1      23.338  12.008  13.171  0.00  0.00     0.012 C 
ENDBRANCH  24  31
ENDBRANCH  13  22
ENDBRANCH   1   9
BRANCH   3  33
HETATM   33  C   UNK N   1      27.568  18.537   4.598  0.00  0.00     0.052 C 
BRANCH  33  34
HETATM   34  C   UNK N   1      28.288  18.926   5.867  0.00  0.00     0.115 C 
BRANCH  34  35
HETATM   35  C   UNK N   1      27.608  20.129   6.427  0.00  0.00     0.139 C 
HETATM   36  O   UNK N   1      27.677  21.198   5.841  0.00  0.00    -0.650 OA
BRANCH  35  37
HETATM   37  O   UNK N   1      26.894  20.034   7.564  0.00  0.00    -0.776 OA
HETATM   38  H   UNK N   1      25.959  20.085   7.585  0.00  0.00     0.167 HD
ENDBRANCH  35  37
ENDBRANCH  34  35
ENDBRANCH  33  34
ENDBRANCH   3  33
BRANCH   7  39
HETATM   39  C   UNK N   1      22.565  18.485   3.969  0.00  0.00     0.060 C 
HETATM   40  C   UNK N   1      21.827  17.651   3.230  0.00  0.00     0.044 A 
HETATM   41  C   UNK N   1      20.657  18.054   2.443  0.00  0.00    -0.019 A 
HETATM   42  N   UNK N   1      22.107  16.293   2.979  0.00  0.00    -0.322 N 
HETATM   43  C   UNK N   1      20.273  16.992   1.731  0.00  0.00     0.039 A 
HETATM   44  C   UNK N   1      20.058  19.423   2.374  0.00  0.00     0.052 C 
HETATM   45  C   UNK N   1      21.172  15.882   2.101  0.00  0.00     0.256 A 
HETATM   46  O   UNK N   1      21.096  14.736   1.688  0.00  0.00    -0.267 OA
HETATM   47  H   UNK N   1      22.835  15.755   3.365  0.00  0.00     0.169 HD
BRANCH  43  48
HETATM   48  C   UNK N   1      19.182  16.986   0.737  0.00  0.00     0.007 C 
HETATM   49  C   UNK N   1      19.125  16.077  -0.235  0.00  0.00     0.012 C 
ENDBRANCH  43  48
ENDBRANCH   7  39
TORSDOF 13
ENDMDL
