REMARK  6 active torsions:
REMARK  status: ('A' for Active; 'I' for Inactive)
REMARK    1  A    between atoms: O_1  and  C_2 
REMARK    2  A    between atoms: C_2  and  C_3 
REMARK    3  A    between atoms: C_3  and  N_9 
REMARK    4  A    between atoms: C_3  and  C_5 
REMARK    5  A    between atoms: S_4  and  C_6 
REMARK    6  A    between atoms: C_5  and  C_6 
ROOT
HETATM    1  C   UNK N   1       1.335  -0.485   0.390  0.00  0.00     0.174 C 
ENDROOT
BRANCH   1   2
HETATM    2  C   UNK N   1       2.138   0.748   0.062  0.00  0.00     0.163 C 
HETATM    3  O   UNK N   1       1.630   1.854   0.162  0.00  0.00    -0.648 OA
BRANCH   2   4
HETATM    4  O   UNK N   1       3.428   0.644  -0.315  0.00  0.00    -0.775 OA
HETATM    5  H   UNK N   1       3.814  -0.169  -0.576  0.00  0.00     0.167 HD
ENDBRANCH   2   4
ENDBRANCH   1   2
BRANCH   1   6
HETATM    6  N   UNK N   1       2.124  -1.683   0.151  0.00  0.00    -0.418 N 
HETATM    7  H   UNK N   1       1.672  -2.582  -0.016  0.00  0.00     0.150 HD
HETATM    8  H   UNK N   1       3.142  -1.623   0.151  0.00  0.00     0.150 HD
ENDBRANCH   1   6
BRANCH   1   9
HETATM    9  C   UNK N   1       0.050  -0.561  -0.422  0.00  0.00     0.048 C 
BRANCH   9  10
HETATM   10  C   UNK N   1      -1.011   0.327   0.206  0.00  0.00     0.111 C 
BRANCH  10  11
HETATM   11  S   UNK N   1      -2.566   0.193  -0.721  0.00  0.00     0.010 S 
HETATM   12  O   UNK N   1      -3.247   1.247   0.165  0.00  0.00    -0.258 OA
HETATM   13  C   UNK N   1      -3.166  -1.164   0.323  0.00  0.00     0.127 C 
ENDBRANCH  10  11
ENDBRANCH   9  10
ENDBRANCH   1   9
TORSDOF 6
