MODEL 1
REMARK VINA RESULT:      -4.3      0.000      0.000
REMARK  4 active torsions:
REMARK  status: ('A' for Active; 'I' for Inactive)
REMARK    1  A    between atoms: C_2  and  C_4 
REMARK    2  A    between atoms: C_4  and  C_5 
REMARK    3  A    between atoms: C_5  and  C_6 
REMARK    4  A    between atoms: C_6  and  O_7 
ROOT
HETATM    1  C   UNK N   1      22.309  11.952  11.768  0.00  0.00     0.117 C 
ENDROOT
BRANCH   1   2
HETATM    2  C   UNK N   1      22.376  12.810  10.509  0.00  0.00     0.088 C 
BRANCH   2   3
HETATM    3  C   UNK N   1      21.070  13.435  10.132  0.00  0.00     0.123 C 
HETATM    4  C   UNK N   1      21.078  14.664   9.293  0.00  0.00     0.091 C 
HETATM    5  O   UNK N   1      20.007  12.957  10.498  0.00  0.00    -0.298 OA
ENDBRANCH   2   3
ENDBRANCH   1   2
BRANCH   1   6
HETATM    6  C   UNK N   1      23.578  12.047  12.564  0.00  0.00     0.139 C 
HETATM    7  O   UNK N   1      23.559  11.974  13.786  0.00  0.00    -0.650 OA
BRANCH   6   8
HETATM    8  O   UNK N   1      24.750  12.214  11.929  0.00  0.00    -0.776 OA
HETATM    9  H   UNK N   1      25.111  11.516  11.420  0.00  0.00     0.167 HD
ENDBRANCH   6   8
ENDBRANCH   1   6
TORSDOF 4
ENDMDL
MODEL 2
REMARK VINA RESULT:      -4.0     13.059     14.066
REMARK  4 active torsions:
REMARK  status: ('A' for Active; 'I' for Inactive)
REMARK    1  A    between atoms: C_2  and  C_4 
REMARK    2  A    between atoms: C_4  and  C_5 
REMARK    3  A    between atoms: C_5  and  C_6 
REMARK    4  A    between atoms: C_6  and  O_7 
ROOT
HETATM    1  C   UNK N   1      33.724  17.350   8.882  0.00  0.00     0.117 C 
ENDROOT
BRANCH   1   2
HETATM    2  C   UNK N   1      34.492  16.062   9.162  0.00  0.00     0.088 C 
BRANCH   2   3
HETATM    3  C   UNK N   1      35.429  16.156  10.324  0.00  0.00     0.123 C 
HETATM    4  C   UNK N   1      36.513  15.144  10.456  0.00  0.00     0.091 C 
HETATM    5  O   UNK N   1      35.321  17.041  11.159  0.00  0.00    -0.298 OA
ENDBRANCH   2   3
ENDBRANCH   1   2
BRANCH   1   6
HETATM    6  C   UNK N   1      34.500  18.265   7.981  0.00  0.00     0.139 C 
HETATM    7  O   UNK N   1      35.208  19.150   8.443  0.00  0.00    -0.650 OA
BRANCH   6   8
HETATM    8  O   UNK N   1      34.417  18.113   6.648  0.00  0.00    -0.776 OA
HETATM    9  H   UNK N   1      33.867  18.679   6.145  0.00  0.00     0.167 HD
ENDBRANCH   6   8
ENDBRANCH   1   6
TORSDOF 4
ENDMDL
MODEL 3
REMARK VINA RESULT:      -3.9     18.595     19.053
REMARK  4 active torsions:
REMARK  status: ('A' for Active; 'I' for Inactive)
REMARK    1  A    between atoms: C_2  and  C_4 
REMARK    2  A    between atoms: C_4  and  C_5 
REMARK    3  A    between atoms: C_5  and  C_6 
REMARK    4  A    between atoms: C_6  and  O_7 
ROOT
HETATM    1  C   UNK N   1      29.818  22.885  -3.648  0.00  0.00     0.117 C 
ENDROOT
BRANCH   1   2
HETATM    2  C   UNK N   1      29.063  24.210  -3.612  0.00  0.00     0.088 C 
BRANCH   2   3
HETATM    3  C   UNK N   1      27.603  24.068  -3.317  0.00  0.00     0.123 C 
HETATM    4  C   UNK N   1      26.621  24.382  -4.390  0.00  0.00     0.091 C 
HETATM    5  O   UNK N   1      27.209  23.701  -2.222  0.00  0.00    -0.298 OA
ENDBRANCH   2   3
ENDBRANCH   1   2
BRANCH   1   6
HETATM    6  C   UNK N   1      30.614  22.673  -2.393  0.00  0.00     0.139 C 
HETATM    7  O   UNK N   1      31.708  22.126  -2.429  0.00  0.00    -0.650 OA
BRANCH   6   8
HETATM    8  O   UNK N   1      30.120  23.089  -1.215  0.00  0.00    -0.776 OA
HETATM    9  H   UNK N   1      29.202  23.023  -1.041  0.00  0.00     0.167 HD
ENDBRANCH   6   8
ENDBRANCH   1   6
TORSDOF 4
ENDMDL
MODEL 4
REMARK VINA RESULT:      -3.9     20.627     21.949
REMARK  4 active torsions:
REMARK  status: ('A' for Active; 'I' for Inactive)
REMARK    1  A    between atoms: C_2  and  C_4 
REMARK    2  A    between atoms: C_4  and  C_5 
REMARK    3  A    between atoms: C_5  and  C_6 
REMARK    4  A    between atoms: C_6  and  O_7 
ROOT
HETATM    1  C   UNK N   1      26.068  27.837  -5.214  0.00  0.00     0.117 C 
ENDROOT
BRANCH   1   2
HETATM    2  C   UNK N   1      24.966  26.844  -5.572  0.00  0.00     0.088 C 
BRANCH   2   3
HETATM    3  C   UNK N   1      25.448  25.436  -5.728  0.00  0.00     0.123 C 
HETATM    4  C   UNK N   1      26.065  24.755  -4.557  0.00  0.00     0.091 C 
HETATM    5  O   UNK N   1      25.344  24.842  -6.790  0.00  0.00    -0.298 OA
ENDBRANCH   2   3
ENDBRANCH   1   2
BRANCH   1   6
HETATM    6  C   UNK N   1      25.816  28.478  -3.881  0.00  0.00     0.139 C 
HETATM    7  O   UNK N   1      25.475  27.807  -2.916  0.00  0.00    -0.650 OA
BRANCH   6   8
HETATM    8  O   UNK N   1      25.967  29.806  -3.743  0.00  0.00    -0.776 OA
HETATM    9  H   UNK N   1      26.648  30.251  -4.207  0.00  0.00     0.167 HD
ENDBRANCH   6   8
ENDBRANCH   1   6
TORSDOF 4
ENDMDL
MODEL 5
REMARK VINA RESULT:      -3.9      3.953      6.115
REMARK  4 active torsions:
REMARK  status: ('A' for Active; 'I' for Inactive)
REMARK    1  A    between atoms: C_2  and  C_4 
REMARK    2  A    between atoms: C_4  and  C_5 
REMARK    3  A    between atoms: C_5  and  C_6 
REMARK    4  A    between atoms: C_6  and  O_7 
ROOT
HETATM    1  C   UNK N   1      20.012  16.650   7.851  0.00  0.00     0.117 C 
ENDROOT
BRANCH   1   2
HETATM    2  C   UNK N   1      20.892  15.770   8.733  0.00  0.00     0.088 C 
BRANCH   2   3
HETATM    3  C   UNK N   1      20.146  14.681   9.438  0.00  0.00     0.123 C 
HETATM    4  C   UNK N   1      20.906  13.514   9.963  0.00  0.00     0.091 C 
HETATM    5  O   UNK N   1      18.935  14.735   9.589  0.00  0.00    -0.298 OA
ENDBRANCH   2   3
ENDBRANCH   1   2
BRANCH   1   6
HETATM    6  C   UNK N   1      19.674  17.944   8.532  0.00  0.00     0.139 C 
HETATM    7  O   UNK N   1      20.344  18.950   8.337  0.00  0.00    -0.650 OA
BRANCH   6   8
HETATM    8  O   UNK N   1      18.622  18.001   9.367  0.00  0.00    -0.776 OA
HETATM    9  H   UNK N   1      17.873  17.461   9.213  0.00  0.00     0.167 HD
ENDBRANCH   6   8
ENDBRANCH   1   6
TORSDOF 4
ENDMDL
MODEL 6
REMARK VINA RESULT:      -3.8      1.477      4.130
REMARK  4 active torsions:
REMARK  status: ('A' for Active; 'I' for Inactive)
REMARK    1  A    between atoms: C_2  and  C_4 
REMARK    2  A    between atoms: C_4  and  C_5 
REMARK    3  A    between atoms: C_5  and  C_6 
REMARK    4  A    between atoms: C_6  and  O_7 
ROOT
HETATM    1  C   UNK N   1      21.596  12.972   9.665  0.00  0.00     0.117 C 
ENDROOT
BRANCH   1   2
HETATM    2  C   UNK N   1      21.549  12.253  11.010  0.00  0.00     0.088 C 
BRANCH   2   3
HETATM    3  C   UNK N   1      22.891  12.069  11.645  0.00  0.00     0.123 C 
HETATM    4  C   UNK N   1      24.107  12.148  10.790  0.00  0.00     0.091 C 
HETATM    5  O   UNK N   1      23.004  11.856  12.842  0.00  0.00    -0.298 OA
ENDBRANCH   2   3
ENDBRANCH   1   2
BRANCH   1   6
HETATM    6  C   UNK N   1      20.612  14.103   9.613  0.00  0.00     0.139 C 
HETATM    7  O   UNK N   1      19.443  13.933   9.931  0.00  0.00    -0.650 OA
BRANCH   6   8
HETATM    8  O   UNK N   1      21.019  15.320   9.213  0.00  0.00    -0.776 OA
HETATM    9  H   UNK N   1      21.507  15.413   8.419  0.00  0.00     0.167 HD
ENDBRANCH   6   8
ENDBRANCH   1   6
TORSDOF 4
ENDMDL
MODEL 7
REMARK VINA RESULT:      -3.7     21.098     21.989
REMARK  4 active torsions:
REMARK  status: ('A' for Active; 'I' for Inactive)
REMARK    1  A    between atoms: C_2  and  C_4 
REMARK    2  A    between atoms: C_4  and  C_5 
REMARK    3  A    between atoms: C_5  and  C_6 
REMARK    4  A    between atoms: C_6  and  O_7 
ROOT
HETATM    1  C   UNK N   1      24.834  26.882  -5.549  0.00  0.00     0.117 C 
ENDROOT
BRANCH   1   2
HETATM    2  C   UNK N   1      25.938  27.906  -5.306  0.00  0.00     0.088 C 
BRANCH   2   3
HETATM    3  C   UNK N   1      25.909  28.513  -3.939  0.00  0.00     0.123 C 
HETATM    4  C   UNK N   1      26.436  29.893  -3.756  0.00  0.00     0.091 C 
HETATM    5  O   UNK N   1      25.465  27.901  -2.980  0.00  0.00    -0.298 OA
ENDBRANCH   2   3
ENDBRANCH   1   2
BRANCH   1   6
HETATM    6  C   UNK N   1      25.382  25.486  -5.600  0.00  0.00     0.139 C 
HETATM    7  O   UNK N   1      25.853  24.960  -4.601  0.00  0.00    -0.650 OA
BRANCH   6   8
HETATM    8  O   UNK N   1      25.356  24.804  -6.758  0.00  0.00    -0.776 OA
HETATM    9  H   UNK N   1      24.682  24.174  -6.916  0.00  0.00     0.167 HD
ENDBRANCH   6   8
ENDBRANCH   1   6
TORSDOF 4
ENDMDL
MODEL 8
REMARK VINA RESULT:      -3.7     13.223     14.277
REMARK  4 active torsions:
REMARK  status: ('A' for Active; 'I' for Inactive)
REMARK    1  A    between atoms: C_2  and  C_4 
REMARK    2  A    between atoms: C_4  and  C_5 
REMARK    3  A    between atoms: C_5  and  C_6 
REMARK    4  A    between atoms: C_6  and  O_7 
ROOT
HETATM    1  C   UNK N   1      35.201  12.522  17.514  0.00  0.00     0.117 C 
ENDROOT
BRANCH   1   2
HETATM    2  C   UNK N   1      34.475  13.118  16.312  0.00  0.00     0.088 C 
BRANCH   2   3
HETATM    3  C   UNK N   1      35.313  13.197  15.076  0.00  0.00     0.123 C 
HETATM    4  C   UNK N   1      36.788  13.340  15.216  0.00  0.00     0.091 C 
HETATM    5  O   UNK N   1      34.811  13.146  13.963  0.00  0.00    -0.298 OA
ENDBRANCH   2   3
ENDBRANCH   1   2
BRANCH   1   6
HETATM    6  C   UNK N   1      35.237  13.482  18.666  0.00  0.00     0.139 C 
HETATM    7  O   UNK N   1      35.121  13.085  19.818  0.00  0.00    -0.650 OA
BRANCH   6   8
HETATM    8  O   UNK N   1      35.397  14.796  18.432  0.00  0.00    -0.776 OA
HETATM    9  H   UNK N   1      35.239  15.416  19.115  0.00  0.00     0.167 HD
ENDBRANCH   6   8
ENDBRANCH   1   6
TORSDOF 4
ENDMDL
MODEL 9
REMARK VINA RESULT:      -3.6      1.868      2.352
REMARK  4 active torsions:
REMARK  status: ('A' for Active; 'I' for Inactive)
REMARK    1  A    between atoms: C_2  and  C_4 
REMARK    2  A    between atoms: C_4  and  C_5 
REMARK    3  A    between atoms: C_5  and  C_6 
REMARK    4  A    between atoms: C_6  and  O_7 
ROOT
HETATM    1  C   UNK N   1      21.502  12.653   9.444  0.00  0.00     0.117 C 
ENDROOT
BRANCH   1   2
HETATM    2  C   UNK N   1      21.583  14.173   9.540  0.00  0.00     0.088 C 
BRANCH   2   3
HETATM    3  C   UNK N   1      20.278  14.865   9.300  0.00  0.00     0.123 C 
HETATM    4  C   UNK N   1      20.276  16.155   8.559  0.00  0.00     0.091 C 
HETATM    5  O   UNK N   1      19.225  14.392   9.699  0.00  0.00    -0.298 OA
ENDBRANCH   2   3
ENDBRANCH   1   2
BRANCH   1   6
HETATM    6  C   UNK N   1      21.684  12.008  10.786  0.00  0.00     0.139 C 
HETATM    7  O   UNK N   1      20.839  12.133  11.663  0.00  0.00    -0.650 OA
BRANCH   6   8
HETATM    8  O   UNK N   1      22.789  11.284  11.031  0.00  0.00    -0.776 OA
HETATM    9  H   UNK N   1      22.750  10.552  11.614  0.00  0.00     0.167 HD
ENDBRANCH   6   8
ENDBRANCH   1   6
TORSDOF 4
ENDMDL
