MODEL 1
REMARK VINA RESULT:      -5.3      0.000      0.000
REMARK  5 active torsions:
REMARK  status: ('A' for Active; 'I' for Inactive)
REMARK    1  A    between atoms: C_2  and  C_3 
REMARK    2  A    between atoms: C_3  and  C_4 
REMARK    3  A    between atoms: C_4  and  N_5 
REMARK    4  A    between atoms: N_5  and  S_6 
REMARK    5  A    between atoms: S_6  and  C_9 
ROOT
HETATM    1  S   UNK N   1      34.345  17.905   8.218  0.00  0.00     0.258 S 
HETATM    2  O   UNK N   1      34.637  17.688   6.723  0.00  0.00    -0.201 OA
HETATM    3  O   UNK N   1      35.170  19.170   8.496  0.00  0.00    -0.201 OA
ENDROOT
BRANCH   1   4
HETATM    4  N   UNK N   1      32.655  18.440   8.350  0.00  0.00    -0.315 N 
HETATM    5  H   UNK N   1      32.344  19.410   8.313  0.00  0.00     0.172 HD
BRANCH   4   6
HETATM    6  C   UNK N   1      31.778  17.288   8.516  0.00  0.00     0.132 C 
BRANCH   6   7
HETATM    7  C   UNK N   1      30.384  17.618   8.007  0.00  0.00     0.020 C 
BRANCH   7   8
HETATM    8  C   UNK N   1      29.661  18.481   9.023  0.00  0.00    -0.003 C 
HETATM    9  C   UNK N   1      28.287  17.906   9.301  0.00  0.00     0.005 C 
ENDBRANCH   7   8
ENDBRANCH   6   7
ENDBRANCH   4   6
ENDBRANCH   1   4
BRANCH   1  10
HETATM   10  C   UNK N   1      34.912  16.538   9.233  0.00  0.00     0.079 A 
HETATM   11  C   UNK N   1      35.284  16.762  10.563  0.00  0.00     0.025 A 
HETATM   12  C   UNK N   1      35.768  15.704  11.341  0.00  0.00     0.002 A 
HETATM   13  C   UNK N   1      35.884  14.425  10.789  0.00  0.00     0.000 A 
HETATM   14  C   UNK N   1      35.512  14.201   9.461  0.00  0.00     0.002 A 
HETATM   15  C   UNK N   1      35.028  15.258   8.682  0.00  0.00     0.025 A 
ENDBRANCH   1  10
TORSDOF 5
ENDMDL
MODEL 2
REMARK VINA RESULT:      -5.2      4.667      5.793
REMARK  5 active torsions:
REMARK  status: ('A' for Active; 'I' for Inactive)
REMARK    1  A    between atoms: C_2  and  C_3 
REMARK    2  A    between atoms: C_3  and  C_4 
REMARK    3  A    between atoms: C_4  and  N_5 
REMARK    4  A    between atoms: N_5  and  S_6 
REMARK    5  A    between atoms: S_6  and  C_9 
ROOT
HETATM    1  S   UNK N   1      28.221  17.662   8.262  0.00  0.00     0.258 S 
HETATM    2  O   UNK N   1      27.929  17.066   9.650  0.00  0.00    -0.201 OA
HETATM    3  O   UNK N   1      27.363  16.755   7.368  0.00  0.00    -0.201 OA
ENDROOT
BRANCH   1   4
HETATM    4  N   UNK N   1      27.417  19.246   8.191  0.00  0.00    -0.315 N 
HETATM    5  H   UNK N   1      26.757  19.598   8.884  0.00  0.00     0.172 HD
BRANCH   4   6
HETATM    6  C   UNK N   1      27.839  19.968   6.998  0.00  0.00     0.132 C 
BRANCH   6   7
HETATM    7  C   UNK N   1      26.654  20.693   6.381  0.00  0.00     0.020 C 
BRANCH   7   8
HETATM    8  C   UNK N   1      26.755  20.642   4.870  0.00  0.00    -0.003 C 
HETATM    9  C   UNK N   1      27.875  19.708   4.460  0.00  0.00     0.005 C 
ENDBRANCH   7   8
ENDBRANCH   6   7
ENDBRANCH   4   6
ENDBRANCH   1   4
BRANCH   1  10
HETATM   10  C   UNK N   1      29.955  17.541   7.815  0.00  0.00     0.079 A 
HETATM   11  C   UNK N   1      30.940  17.969   8.711  0.00  0.00     0.025 A 
HETATM   12  C   UNK N   1      32.290  17.915   8.344  0.00  0.00     0.002 A 
HETATM   13  C   UNK N   1      32.654  17.437   7.081  0.00  0.00     0.000 A 
HETATM   14  C   UNK N   1      31.670  17.009   6.187  0.00  0.00     0.002 A 
HETATM   15  C   UNK N   1      30.320  17.062   6.552  0.00  0.00     0.025 A 
ENDBRANCH   1  10
TORSDOF 5
ENDMDL
MODEL 3
REMARK VINA RESULT:      -5.1      1.610      4.826
REMARK  5 active torsions:
REMARK  status: ('A' for Active; 'I' for Inactive)
REMARK    1  A    between atoms: C_2  and  C_3 
REMARK    2  A    between atoms: C_3  and  C_4 
REMARK    3  A    between atoms: C_4  and  N_5 
REMARK    4  A    between atoms: N_5  and  S_6 
REMARK    5  A    between atoms: S_6  and  C_9 
ROOT
HETATM    1  S   UNK N   1      34.219  17.665   8.431  0.00  0.00     0.258 S 
HETATM    2  O   UNK N   1      34.882  19.032   8.182  0.00  0.00    -0.201 OA
HETATM    3  O   UNK N   1      35.108  16.750   7.577  0.00  0.00    -0.201 OA
ENDROOT
BRANCH   1   4
HETATM    4  N   UNK N   1      34.584  17.202  10.107  0.00  0.00    -0.315 N 
HETATM    5  H   UNK N   1      34.422  17.790  10.924  0.00  0.00     0.172 HD
BRANCH   4   6
HETATM    6  C   UNK N   1      35.148  15.859  10.144  0.00  0.00     0.132 C 
BRANCH   6   7
HETATM    7  C   UNK N   1      34.081  14.858  10.556  0.00  0.00     0.020 C 
BRANCH   7   8
HETATM    8  C   UNK N   1      33.884  13.838   9.452  0.00  0.00    -0.003 C 
HETATM    9  C   UNK N   1      32.590  14.121   8.716  0.00  0.00     0.005 C 
ENDBRANCH   7   8
ENDBRANCH   6   7
ENDBRANCH   4   6
ENDBRANCH   1   4
BRANCH   1  10
HETATM   10  C   UNK N   1      32.518  17.614   7.860  0.00  0.00     0.079 A 
HETATM   11  C   UNK N   1      31.478  17.953   8.731  0.00  0.00     0.025 A 
HETATM   12  C   UNK N   1      30.148  17.871   8.299  0.00  0.00     0.002 A 
HETATM   13  C   UNK N   1      29.860  17.446   6.998  0.00  0.00     0.000 A 
HETATM   14  C   UNK N   1      30.900  17.108   6.128  0.00  0.00     0.002 A 
HETATM   15  C   UNK N   1      32.229  17.190   6.559  0.00  0.00     0.025 A 
ENDBRANCH   1  10
TORSDOF 5
ENDMDL
MODEL 4
REMARK VINA RESULT:      -5.1     11.240     12.594
REMARK  5 active torsions:
REMARK  status: ('A' for Active; 'I' for Inactive)
REMARK    1  A    between atoms: C_2  and  C_3 
REMARK    2  A    between atoms: C_3  and  C_4 
REMARK    3  A    between atoms: C_4  and  N_5 
REMARK    4  A    between atoms: N_5  and  S_6 
REMARK    5  A    between atoms: S_6  and  C_9 
ROOT
HETATM    1  S   UNK N   1      21.095  13.682   8.799  0.00  0.00     0.258 S 
HETATM    2  O   UNK N   1      19.768  13.775   9.572  0.00  0.00    -0.201 OA
HETATM    3  O   UNK N   1      20.728  12.665   7.709  0.00  0.00    -0.201 OA
ENDROOT
BRANCH   1   4
HETATM    4  N   UNK N   1      21.302  15.216   7.924  0.00  0.00    -0.315 N 
HETATM    5  H   UNK N   1      22.163  15.517   7.469  0.00  0.00     0.172 HD
BRANCH   4   6
HETATM    6  C   UNK N   1      20.061  15.979   7.952  0.00  0.00     0.132 C 
BRANCH   6   7
HETATM    7  C   UNK N   1      20.241  17.236   8.788  0.00  0.00     0.020 C 
BRANCH   7   8
HETATM    8  C   UNK N   1      18.888  17.848   9.088  0.00  0.00    -0.003 C 
HETATM    9  C   UNK N   1      17.866  16.752   9.314  0.00  0.00     0.005 C 
ENDBRANCH   7   8
ENDBRANCH   6   7
ENDBRANCH   4   6
ENDBRANCH   1   4
BRANCH   1  10
HETATM   10  C   UNK N   1      22.440  13.067   9.816  0.00  0.00     0.079 A 
HETATM   11  C   UNK N   1      23.761  13.184   9.374  0.00  0.00     0.025 A 
HETATM   12  C   UNK N   1      24.807  12.665  10.147  0.00  0.00     0.002 A 
HETATM   13  C   UNK N   1      24.530  12.026  11.359  0.00  0.00     0.000 A 
HETATM   14  C   UNK N   1      23.209  11.909  11.801  0.00  0.00     0.002 A 
HETATM   15  C   UNK N   1      22.164  12.428  11.030  0.00  0.00     0.025 A 
ENDBRANCH   1  10
TORSDOF 5
ENDMDL
MODEL 5
REMARK VINA RESULT:      -5.1      7.188      8.609
REMARK  5 active torsions:
REMARK  status: ('A' for Active; 'I' for Inactive)
REMARK    1  A    between atoms: C_2  and  C_3 
REMARK    2  A    between atoms: C_3  and  C_4 
REMARK    3  A    between atoms: C_4  and  N_5 
REMARK    4  A    between atoms: N_5  and  S_6 
REMARK    5  A    between atoms: S_6  and  C_9 
ROOT
HETATM    1  S   UNK N   1      36.234  13.479  14.364  0.00  0.00     0.258 S 
HETATM    2  O   UNK N   1      36.802  14.905  14.484  0.00  0.00    -0.201 OA
HETATM    3  O   UNK N   1      34.911  13.751  13.634  0.00  0.00    -0.201 OA
ENDROOT
BRANCH   1   4
HETATM    4  N   UNK N   1      37.230  12.616  13.171  0.00  0.00    -0.315 N 
HETATM    5  H   UNK N   1      38.247  12.553  13.196  0.00  0.00     0.172 HD
BRANCH   4   6
HETATM    6  C   UNK N   1      36.380  12.010  12.155  0.00  0.00     0.132 C 
BRANCH   6   7
HETATM    7  C   UNK N   1      35.983  10.605  12.578  0.00  0.00     0.020 C 
BRANCH   7   8
HETATM    8  C   UNK N   1      34.487  10.426  12.410  0.00  0.00    -0.003 C 
HETATM    9  C   UNK N   1      33.805  10.503  13.761  0.00  0.00     0.005 C 
ENDBRANCH   7   8
ENDBRANCH   6   7
ENDBRANCH   4   6
ENDBRANCH   1   4
BRANCH   1  10
HETATM   10  C   UNK N   1      35.935  12.724  15.965  0.00  0.00     0.079 A 
HETATM   11  C   UNK N   1      36.245  11.376  16.171  0.00  0.00     0.025 A 
HETATM   12  C   UNK N   1      35.970  10.776  17.406  0.00  0.00     0.002 A 
HETATM   13  C   UNK N   1      35.383  11.522  18.432  0.00  0.00     0.000 A 
HETATM   14  C   UNK N   1      35.074  12.869  18.226  0.00  0.00     0.002 A 
HETATM   15  C   UNK N   1      35.348  13.470  16.992  0.00  0.00     0.025 A 
ENDBRANCH   1  10
TORSDOF 5
ENDMDL
MODEL 6
REMARK VINA RESULT:      -5.1     13.868     15.342
REMARK  5 active torsions:
REMARK  status: ('A' for Active; 'I' for Inactive)
REMARK    1  A    between atoms: C_2  and  C_3 
REMARK    2  A    between atoms: C_3  and  C_4 
REMARK    3  A    between atoms: C_4  and  N_5 
REMARK    4  A    between atoms: N_5  and  S_6 
REMARK    5  A    between atoms: S_6  and  C_9 
ROOT
HETATM    1  S   UNK N   1      29.786  23.343  -2.792  0.00  0.00     0.258 S 
HETATM    2  O   UNK N   1      30.480  24.701  -3.003  0.00  0.00    -0.201 OA
HETATM    3  O   UNK N   1      30.313  22.958  -1.403  0.00  0.00    -0.201 OA
ENDROOT
BRANCH   1   4
HETATM    4  N   UNK N   1      28.058  23.671  -2.537  0.00  0.00    -0.315 N 
HETATM    5  H   UNK N   1      27.479  23.228  -1.825  0.00  0.00     0.172 HD
BRANCH   4   6
HETATM    6  C   UNK N   1      27.591  24.666  -3.494  0.00  0.00     0.132 C 
BRANCH   6   7
HETATM    7  C   UNK N   1      26.318  24.183  -4.169  0.00  0.00     0.020 C 
BRANCH   7   8
HETATM    8  C   UNK N   1      26.466  24.289  -5.673  0.00  0.00    -0.003 C 
HETATM    9  C   UNK N   1      25.883  23.058  -6.336  0.00  0.00     0.005 C 
ENDBRANCH   7   8
ENDBRANCH   6   7
ENDBRANCH   4   6
ENDBRANCH   1   4
BRANCH   1  10
HETATM   10  C   UNK N   1      30.274  22.126  -4.018  0.00  0.00     0.079 A 
HETATM   11  C   UNK N   1      29.706  22.154  -5.296  0.00  0.00     0.025 A 
HETATM   12  C   UNK N   1      30.054  21.178  -6.238  0.00  0.00     0.002 A 
HETATM   13  C   UNK N   1      30.965  20.173  -5.900  0.00  0.00     0.000 A 
HETATM   14  C   UNK N   1      31.533  20.145  -4.624  0.00  0.00     0.002 A 
HETATM   15  C   UNK N   1      31.187  21.120  -3.682  0.00  0.00     0.025 A 
ENDBRANCH   1  10
TORSDOF 5
ENDMDL
MODEL 7
REMARK VINA RESULT:      -5.1     11.368     12.325
REMARK  5 active torsions:
REMARK  status: ('A' for Active; 'I' for Inactive)
REMARK    1  A    between atoms: C_2  and  C_3 
REMARK    2  A    between atoms: C_3  and  C_4 
REMARK    3  A    between atoms: C_4  and  N_5 
REMARK    4  A    between atoms: N_5  and  S_6 
REMARK    5  A    between atoms: S_6  and  C_9 
ROOT
HETATM    1  S   UNK N   1      20.758  14.163   9.143  0.00  0.00     0.258 S 
HETATM    2  O   UNK N   1      19.484  13.934   9.976  0.00  0.00    -0.201 OA
HETATM    3  O   UNK N   1      20.364  13.498   7.817  0.00  0.00    -0.201 OA
ENDROOT
BRANCH   1   4
HETATM    4  N   UNK N   1      20.833  15.898   8.765  0.00  0.00    -0.315 N 
HETATM    5  H   UNK N   1      21.144  16.624   9.410  0.00  0.00     0.172 HD
BRANCH   4   6
HETATM    6  C   UNK N   1      20.388  16.132   7.398  0.00  0.00     0.132 C 
BRANCH   6   7
HETATM    7  C   UNK N   1      21.467  16.863   6.616  0.00  0.00     0.020 C 
BRANCH   7   8
HETATM    8  C   UNK N   1      22.679  15.967   6.459  0.00  0.00    -0.003 C 
HETATM    9  C   UNK N   1      22.451  14.987   5.326  0.00  0.00     0.005 C 
ENDBRANCH   7   8
ENDBRANCH   6   7
ENDBRANCH   4   6
ENDBRANCH   1   4
BRANCH   1  10
HETATM   10  C   UNK N   1      22.197  13.360   9.856  0.00  0.00     0.079 A 
HETATM   11  C   UNK N   1      23.451  13.510   9.255  0.00  0.00     0.025 A 
HETATM   12  C   UNK N   1      24.564  12.847   9.786  0.00  0.00     0.002 A 
HETATM   13  C   UNK N   1      24.423  12.034  10.914  0.00  0.00     0.000 A 
HETATM   14  C   UNK N   1      23.170  11.885  11.515  0.00  0.00     0.002 A 
HETATM   15  C   UNK N   1      22.056  12.546  10.985  0.00  0.00     0.025 A 
ENDBRANCH   1  10
TORSDOF 5
ENDMDL
MODEL 8
REMARK VINA RESULT:      -5.1      1.143      2.197
REMARK  5 active torsions:
REMARK  status: ('A' for Active; 'I' for Inactive)
REMARK    1  A    between atoms: C_2  and  C_3 
REMARK    2  A    between atoms: C_3  and  C_4 
REMARK    3  A    between atoms: C_4  and  N_5 
REMARK    4  A    between atoms: N_5  and  S_6 
REMARK    5  A    between atoms: S_6  and  C_9 
ROOT
HETATM    1  S   UNK N   1      34.300  17.904   8.177  0.00  0.00     0.258 S 
HETATM    2  O   UNK N   1      34.560  17.685   6.676  0.00  0.00    -0.201 OA
HETATM    3  O   UNK N   1      35.083  19.202   8.423  0.00  0.00    -0.201 OA
ENDROOT
BRANCH   1   4
HETATM    4  N   UNK N   1      32.595  18.374   8.352  0.00  0.00    -0.315 N 
HETATM    5  H   UNK N   1      32.255  19.334   8.396  0.00  0.00     0.172 HD
BRANCH   4   6
HETATM    6  C   UNK N   1      31.754  17.186   8.423  0.00  0.00     0.132 C 
BRANCH   6   7
HETATM    7  C   UNK N   1      30.793  17.159   7.246  0.00  0.00     0.020 C 
BRANCH   7   8
HETATM    8  C   UNK N   1      31.282  16.166   6.210  0.00  0.00    -0.003 C 
HETATM    9  C   UNK N   1      31.834  14.934   6.899  0.00  0.00     0.005 C 
ENDBRANCH   7   8
ENDBRANCH   6   7
ENDBRANCH   4   6
ENDBRANCH   1   4
BRANCH   1  10
HETATM   10  C   UNK N   1      34.948  16.568   9.186  0.00  0.00     0.079 A 
HETATM   11  C   UNK N   1      35.080  15.285   8.647  0.00  0.00     0.025 A 
HETATM   12  C   UNK N   1      35.543  14.234   9.448  0.00  0.00     0.002 A 
HETATM   13  C   UNK N   1      35.870  14.466  10.787  0.00  0.00     0.000 A 
HETATM   14  C   UNK N   1      35.738  15.748  11.326  0.00  0.00     0.002 A 
HETATM   15  C   UNK N   1      35.275  16.800  10.527  0.00  0.00     0.025 A 
ENDBRANCH   1  10
TORSDOF 5
ENDMDL
MODEL 9
REMARK VINA RESULT:      -4.9     14.757     16.432
REMARK  5 active torsions:
REMARK  status: ('A' for Active; 'I' for Inactive)
REMARK    1  A    between atoms: C_2  and  C_3 
REMARK    2  A    between atoms: C_3  and  C_4 
REMARK    3  A    between atoms: C_4  and  N_5 
REMARK    4  A    between atoms: N_5  and  S_6 
REMARK    5  A    between atoms: S_6  and  C_9 
ROOT
HETATM    1  S   UNK N   1      27.559  24.375  -3.791  0.00  0.00     0.258 S 
HETATM    2  O   UNK N   1      26.703  24.053  -2.553  0.00  0.00    -0.201 OA
HETATM    3  O   UNK N   1      26.623  23.921  -4.920  0.00  0.00    -0.201 OA
ENDROOT
BRANCH   1   4
HETATM    4  N   UNK N   1      27.615  26.145  -3.945  0.00  0.00    -0.315 N 
HETATM    5  H   UNK N   1      28.431  26.680  -4.240  0.00  0.00     0.172 HD
BRANCH   4   6
HETATM    6  C   UNK N   1      26.325  26.719  -3.588  0.00  0.00     0.132 C 
BRANCH   6   7
HETATM    7  C   UNK N   1      25.890  27.720  -4.646  0.00  0.00     0.020 C 
BRANCH   7   8
HETATM    8  C   UNK N   1      24.887  27.072  -5.580  0.00  0.00    -0.003 C 
HETATM    9  C   UNK N   1      25.581  26.629  -6.852  0.00  0.00     0.005 C 
ENDBRANCH   7   8
ENDBRANCH   6   7
ENDBRANCH   4   6
ENDBRANCH   1   4
BRANCH   1  10
HETATM   10  C   UNK N   1      29.094  23.445  -3.824  0.00  0.00     0.079 A 
HETATM   11  C   UNK N   1      29.469  22.755  -4.981  0.00  0.00     0.025 A 
HETATM   12  C   UNK N   1      30.644  21.993  -4.992  0.00  0.00     0.002 A 
HETATM   13  C   UNK N   1      31.441  21.920  -3.845  0.00  0.00     0.000 A 
HETATM   14  C   UNK N   1      31.067  22.610  -2.690  0.00  0.00     0.002 A 
HETATM   15  C   UNK N   1      29.892  23.371  -2.677  0.00  0.00     0.025 A 
ENDBRANCH   1  10
TORSDOF 5
ENDMDL
