MODEL 1
REMARK VINA RESULT:      -5.1      0.000      0.000
REMARK  4 active torsions:
REMARK  status: ('A' for Active; 'I' for Inactive)
REMARK    1  A    between atoms: C_4  and  N_8 
REMARK    2  A    between atoms: C_5  and  C_6 
REMARK    3  A    between atoms: O_10  and  C_6 
REMARK    4  A    between atoms: O_11  and  N_8 
ROOT
HETATM    1  C   UNK N   1      20.420  12.280  11.463  0.00  0.00     0.012 C 
HETATM    2  C   UNK N   1      22.861  11.884  11.023  0.00  0.00     0.055 C 
HETATM    3  C   UNK N   1      21.536  12.275  10.434  0.00  0.00     0.018 C 
HETATM    4  C   UNK N   1      23.830  12.381   9.957  0.00  0.00     0.199 C 
HETATM    5  C   UNK N   1      21.882  13.655   9.895  0.00  0.00     0.181 C 
HETATM    6  N   UNK N   1      23.179  13.488   9.246  0.00  0.00    -0.386 N 
HETATM    7  H   UNK N   1      23.552  14.026   8.464  0.00  0.00     0.156 HD
ENDROOT
BRANCH   4   8
HETATM    8  N   UNK N   1      25.062  12.853  10.583  0.00  0.00    -0.282 N 
HETATM    9  H   UNK N   1      25.721  13.516  10.173  0.00  0.00     0.189 HD
BRANCH   8  10
HETATM   10  O   UNK N   1      25.184  12.265  11.798  0.00  0.00    -0.293 OA
HETATM   11  H   UNK N   1      24.528  11.732  12.274  0.00  0.00     0.244 HD
ENDBRANCH   8  10
ENDBRANCH   4   8
BRANCH   5  12
HETATM   12  C   UNK N   1      20.874  14.243   8.943  0.00  0.00     0.163 C 
HETATM   13  O   UNK N   1      20.392  13.570   8.044  0.00  0.00    -0.648 OA
BRANCH  12  14
HETATM   14  O   UNK N   1      20.490  15.525   9.089  0.00  0.00    -0.775 OA
HETATM   15  H   UNK N   1      20.232  15.848   9.930  0.00  0.00     0.167 HD
ENDBRANCH  12  14
ENDBRANCH   5  12
TORSDOF 4
ENDMDL
MODEL 2
REMARK VINA RESULT:      -4.9     10.896     12.077
REMARK  4 active torsions:
REMARK  status: ('A' for Active; 'I' for Inactive)
REMARK    1  A    between atoms: C_4  and  N_8 
REMARK    2  A    between atoms: C_5  and  C_6 
REMARK    3  A    between atoms: O_10  and  C_6 
REMARK    4  A    between atoms: O_11  and  N_8 
ROOT
HETATM    1  C   UNK N   1      31.308  17.280   7.932  0.00  0.00     0.012 C 
HETATM    2  C   UNK N   1      32.353  15.198   8.872  0.00  0.00     0.055 C 
HETATM    3  C   UNK N   1      32.541  16.395   7.984  0.00  0.00     0.018 C 
HETATM    4  C   UNK N   1      33.794  14.759   9.104  0.00  0.00     0.199 C 
HETATM    5  C   UNK N   1      33.737  17.045   8.663  0.00  0.00     0.181 C 
HETATM    6  N   UNK N   1      34.649  15.942   8.947  0.00  0.00    -0.386 N 
HETATM    7  H   UNK N   1      35.666  15.984   9.020  0.00  0.00     0.156 HD
ENDROOT
BRANCH   4   8
HETATM    8  N   UNK N   1      33.940  14.220  10.453  0.00  0.00    -0.282 N 
HETATM    9  H   UNK N   1      34.532  13.432  10.718  0.00  0.00     0.189 HD
BRANCH   8  10
HETATM   10  O   UNK N   1      33.160  14.941  11.296  0.00  0.00    -0.293 OA
HETATM   11  H   UNK N   1      33.243  15.032  12.258  0.00  0.00     0.244 HD
ENDBRANCH   8  10
ENDBRANCH   4   8
BRANCH   5  12
HETATM   12  C   UNK N   1      34.423  18.120   7.861  0.00  0.00     0.163 C 
HETATM   13  O   UNK N   1      35.018  19.032   8.413  0.00  0.00    -0.648 OA
BRANCH  12  14
HETATM   14  O   UNK N   1      34.386  18.070   6.516  0.00  0.00    -0.775 OA
HETATM   15  H   UNK N   1      34.522  18.847   6.010  0.00  0.00     0.167 HD
ENDBRANCH  12  14
ENDBRANCH   5  12
TORSDOF 4
ENDMDL
MODEL 3
REMARK VINA RESULT:      -4.8      9.274     10.148
REMARK  4 active torsions:
REMARK  status: ('A' for Active; 'I' for Inactive)
REMARK    1  A    between atoms: C_4  and  N_8 
REMARK    2  A    between atoms: C_5  and  C_6 
REMARK    3  A    between atoms: O_10  and  C_6 
REMARK    4  A    between atoms: O_11  and  N_8 
ROOT
HETATM    1  C   UNK N   1      22.790  18.147   4.087  0.00  0.00     0.012 C 
HETATM    2  C   UNK N   1      21.124  16.931   2.653  0.00  0.00     0.055 C 
HETATM    3  C   UNK N   1      21.386  18.138   3.508  0.00  0.00     0.018 C 
HETATM    4  C   UNK N   1      19.894  17.372   1.869  0.00  0.00     0.199 C 
HETATM    5  C   UNK N   1      21.132  19.243   2.493  0.00  0.00     0.181 C 
HETATM    6  N   UNK N   1      19.914  18.839   1.799  0.00  0.00    -0.386 N 
HETATM    7  H   UNK N   1      19.223  19.446   1.360  0.00  0.00     0.156 HD
ENDROOT
BRANCH   4   8
HETATM    8  N   UNK N   1      19.935  16.814   0.520  0.00  0.00    -0.282 N 
HETATM    9  H   UNK N   1      19.713  15.850   0.268  0.00  0.00     0.189 HD
BRANCH   8  10
HETATM   10  O   UNK N   1      20.317  17.788  -0.342  0.00  0.00    -0.293 OA
HETATM   11  H   UNK N   1      20.810  18.600  -0.147  0.00  0.00     0.244 HD
ENDBRANCH   8  10
ENDBRANCH   4   8
BRANCH   5  12
HETATM   12  C   UNK N   1      20.990  20.626   3.073  0.00  0.00     0.163 C 
HETATM   13  O   UNK N   1      20.134  20.871   3.910  0.00  0.00    -0.648 OA
BRANCH  12  14
HETATM   14  O   UNK N   1      21.823  21.604   2.671  0.00  0.00    -0.775 OA
HETATM   15  H   UNK N   1      22.318  21.508   1.881  0.00  0.00     0.167 HD
ENDBRANCH  12  14
ENDBRANCH   5  12
TORSDOF 4
ENDMDL
MODEL 4
REMARK VINA RESULT:      -4.8     10.350     12.158
REMARK  4 active torsions:
REMARK  status: ('A' for Active; 'I' for Inactive)
REMARK    1  A    between atoms: C_4  and  N_8 
REMARK    2  A    between atoms: C_5  and  C_6 
REMARK    3  A    between atoms: O_10  and  C_6 
REMARK    4  A    between atoms: O_11  and  N_8 
ROOT
HETATM    1  C   UNK N   1      33.459  17.548   5.534  0.00  0.00     0.012 C 
HETATM    2  C   UNK N   1      31.403  17.053   6.890  0.00  0.00     0.055 C 
HETATM    3  C   UNK N   1      32.905  17.076   6.866  0.00  0.00     0.018 C 
HETATM    4  C   UNK N   1      31.121  16.999   8.386  0.00  0.00     0.199 C 
HETATM    5  C   UNK N   1      33.174  18.032   8.018  0.00  0.00     0.181 C 
HETATM    6  N   UNK N   1      32.265  17.607   9.077  0.00  0.00    -0.386 N 
HETATM    7  H   UNK N   1      32.397  17.710  10.083  0.00  0.00     0.156 HD
ENDROOT
BRANCH   4   8
HETATM    8  N   UNK N   1      29.905  17.748   8.692  0.00  0.00    -0.282 N 
HETATM    9  H   UNK N   1      29.039  17.722   8.154  0.00  0.00     0.189 HD
BRANCH   8  10
HETATM   10  O   UNK N   1      30.119  18.484   9.811  0.00  0.00    -0.293 OA
HETATM   11  H   UNK N   1      30.182  18.174  10.728  0.00  0.00     0.244 HD
ENDBRANCH   8  10
ENDBRANCH   4   8
BRANCH   5  12
HETATM   12  C   UNK N   1      34.599  18.059   8.508  0.00  0.00     0.163 C 
HETATM   13  O   UNK N   1      35.126  17.056   8.963  0.00  0.00    -0.648 OA
BRANCH  12  14
HETATM   14  O   UNK N   1      35.304  19.204   8.436  0.00  0.00    -0.775 OA
HETATM   15  H   UNK N   1      35.568  19.647   9.219  0.00  0.00     0.167 HD
ENDBRANCH  12  14
ENDBRANCH   5  12
TORSDOF 4
ENDMDL
MODEL 5
REMARK VINA RESULT:      -4.7     12.417     13.059
REMARK  4 active torsions:
REMARK  status: ('A' for Active; 'I' for Inactive)
REMARK    1  A    between atoms: C_4  and  N_8 
REMARK    2  A    between atoms: C_5  and  C_6 
REMARK    3  A    between atoms: O_10  and  C_6 
REMARK    4  A    between atoms: O_11  and  N_8 
ROOT
HETATM    1  C   UNK N   1      34.954  15.090   6.858  0.00  0.00     0.012 C 
HETATM    2  C   UNK N   1      35.179  14.761   9.338  0.00  0.00     0.055 C 
HETATM    3  C   UNK N   1      35.339  15.714   8.188  0.00  0.00     0.018 C 
HETATM    4  C   UNK N   1      35.181  15.714  10.527  0.00  0.00     0.199 C 
HETATM    5  C   UNK N   1      34.410  16.831   8.636  0.00  0.00     0.181 C 
HETATM    6  N   UNK N   1      34.709  17.020  10.052  0.00  0.00    -0.386 N 
HETATM    7  H   UNK N   1      34.612  17.877  10.595  0.00  0.00     0.156 HD
ENDROOT
BRANCH   4   8
HETATM    8  N   UNK N   1      34.287  15.215  11.568  0.00  0.00    -0.282 N 
HETATM    9  H   UNK N   1      34.546  15.033  12.539  0.00  0.00     0.189 HD
BRANCH   8  10
HETATM   10  O   UNK N   1      33.055  15.033  11.032  0.00  0.00    -0.293 OA
HETATM   11  H   UNK N   1      32.269  15.589  11.138  0.00  0.00     0.244 HD
ENDBRANCH   8  10
ENDBRANCH   4   8
BRANCH   5  12
HETATM   12  C   UNK N   1      34.551  18.125   7.878  0.00  0.00     0.163 C 
HETATM   13  O   UNK N   1      35.017  19.119   8.412  0.00  0.00    -0.648 OA
BRANCH  12  14
HETATM   14  O   UNK N   1      34.166  18.184   6.588  0.00  0.00    -0.775 OA
HETATM   15  H   UNK N   1      33.719  17.460   6.195  0.00  0.00     0.167 HD
ENDBRANCH  12  14
ENDBRANCH   5  12
TORSDOF 4
ENDMDL
MODEL 6
REMARK VINA RESULT:      -4.7      9.049     10.781
REMARK  4 active torsions:
REMARK  status: ('A' for Active; 'I' for Inactive)
REMARK    1  A    between atoms: C_4  and  N_8 
REMARK    2  A    between atoms: C_5  and  C_6 
REMARK    3  A    between atoms: O_10  and  C_6 
REMARK    4  A    between atoms: O_11  and  N_8 
ROOT
HETATM    1  C   UNK N   1      31.332  17.032   5.759  0.00  0.00     0.012 C 
HETATM    2  C   UNK N   1      29.566  17.251   7.531  0.00  0.00     0.055 C 
HETATM    3  C   UNK N   1      31.007  16.944   7.240  0.00  0.00     0.018 C 
HETATM    4  C   UNK N   1      29.609  17.535   9.028  0.00  0.00     0.199 C 
HETATM    5  C   UNK N   1      31.683  18.014   8.083  0.00  0.00     0.181 C 
HETATM    6  N   UNK N   1      30.964  17.997   9.353  0.00  0.00    -0.386 N 
HETATM    7  H   UNK N   1      31.327  18.252  10.272  0.00  0.00     0.156 HD
ENDROOT
BRANCH   4   8
HETATM    8  N   UNK N   1      28.639  18.572   9.367  0.00  0.00    -0.282 N 
HETATM    9  H   UNK N   1      28.857  19.551   9.559  0.00  0.00     0.189 HD
BRANCH   8  10
HETATM   10  O   UNK N   1      27.401  18.020   9.385  0.00  0.00    -0.293 OA
HETATM   11  H   UNK N   1      26.690  18.165  10.028  0.00  0.00     0.244 HD
ENDBRANCH   8  10
ENDBRANCH   4   8
BRANCH   5  12
HETATM   12  C   UNK N   1      33.161  17.821   8.298  0.00  0.00     0.163 C 
HETATM   13  O   UNK N   1      33.977  18.334   7.547  0.00  0.00    -0.648 OA
BRANCH  12  14
HETATM   14  O   UNK N   1      33.591  17.080   9.337  0.00  0.00    -0.775 OA
HETATM   15  H   UNK N   1      33.253  16.217   9.473  0.00  0.00     0.167 HD
ENDBRANCH  12  14
ENDBRANCH   5  12
TORSDOF 4
ENDMDL
MODEL 7
REMARK VINA RESULT:      -4.6     12.808     13.599
REMARK  4 active torsions:
REMARK  status: ('A' for Active; 'I' for Inactive)
REMARK    1  A    between atoms: C_4  and  N_8 
REMARK    2  A    between atoms: C_5  and  C_6 
REMARK    3  A    between atoms: O_10  and  C_6 
REMARK    4  A    between atoms: O_11  and  N_8 
ROOT
HETATM    1  C   UNK N   1      35.481  13.690   8.818  0.00  0.00     0.012 C 
HETATM    2  C   UNK N   1      34.580  15.969   8.270  0.00  0.00     0.055 C 
HETATM    3  C   UNK N   1      34.717  14.902   9.319  0.00  0.00     0.018 C 
HETATM    4  C   UNK N   1      34.212  17.183   9.115  0.00  0.00     0.199 C 
HETATM    5  C   UNK N   1      35.445  15.685  10.401  0.00  0.00     0.181 C 
HETATM    6  N   UNK N   1      34.754  16.968  10.462  0.00  0.00    -0.386 N 
HETATM    7  H   UNK N   1      34.667  17.585  11.269  0.00  0.00     0.156 HD
ENDROOT
BRANCH   4   8
HETATM    8  N   UNK N   1      34.794  18.390   8.535  0.00  0.00    -0.282 N 
HETATM    9  H   UNK N   1      35.220  19.156   9.057  0.00  0.00     0.189 HD
BRANCH   8  10
HETATM   10  O   UNK N   1      34.675  18.323   7.185  0.00  0.00    -0.293 OA
HETATM   11  H   UNK N   1      34.615  17.532   6.628  0.00  0.00     0.244 HD
ENDBRANCH   8  10
ENDBRANCH   4   8
BRANCH   5  12
HETATM   12  C   UNK N   1      35.480  15.025  11.755  0.00  0.00     0.163 C 
HETATM   13  O   UNK N   1      34.555  14.326  12.137  0.00  0.00    -0.648 OA
BRANCH  12  14
HETATM   14  O   UNK N   1      36.551  15.202  12.552  0.00  0.00    -0.775 OA
HETATM   15  H   UNK N   1      37.413  15.235  12.185  0.00  0.00     0.167 HD
ENDBRANCH  12  14
ENDBRANCH   5  12
TORSDOF 4
ENDMDL
MODEL 8
REMARK VINA RESULT:      -4.5     14.500     15.363
REMARK  4 active torsions:
REMARK  status: ('A' for Active; 'I' for Inactive)
REMARK    1  A    between atoms: C_4  and  N_8 
REMARK    2  A    between atoms: C_5  and  C_6 
REMARK    3  A    between atoms: O_10  and  C_6 
REMARK    4  A    between atoms: O_11  and  N_8 
ROOT
HETATM    1  C   UNK N   1      35.182  10.234  16.829  0.00  0.00     0.012 C 
HETATM    2  C   UNK N   1      35.231  11.210  19.142  0.00  0.00     0.055 C 
HETATM    3  C   UNK N   1      35.643  11.383  17.708  0.00  0.00     0.018 C 
HETATM    4  C   UNK N   1      35.395  12.626  19.681  0.00  0.00     0.199 C 
HETATM    5  C   UNK N   1      34.965  12.708  17.394  0.00  0.00     0.181 C 
HETATM    6  N   UNK N   1      35.242  13.552  18.552  0.00  0.00    -0.386 N 
HETATM    7  H   UNK N   1      35.314  14.569  18.572  0.00  0.00     0.156 HD
ENDROOT
BRANCH   4   8
HETATM    8  N   UNK N   1      34.373  12.900  20.686  0.00  0.00    -0.282 N 
HETATM    9  H   UNK N   1      33.838  12.197  21.198  0.00  0.00     0.189 HD
BRANCH   8  10
HETATM   10  O   UNK N   1      34.251  14.243  20.827  0.00  0.00    -0.293 OA
HETATM   11  H   UNK N   1      34.932  14.881  21.090  0.00  0.00     0.244 HD
ENDBRANCH   8  10
ENDBRANCH   4   8
BRANCH   5  12
HETATM   12  C   UNK N   1      35.417  13.373  16.121  0.00  0.00     0.163 C 
HETATM   13  O   UNK N   1      36.453  14.019  16.082  0.00  0.00    -0.648 OA
BRANCH  12  14
HETATM   14  O   UNK N   1      34.673  13.247  15.005  0.00  0.00    -0.775 OA
HETATM   15  H   UNK N   1      34.053  12.548  14.927  0.00  0.00     0.167 HD
ENDBRANCH  12  14
ENDBRANCH   5  12
TORSDOF 4
ENDMDL
MODEL 9
REMARK VINA RESULT:      -4.5     18.750     20.209
REMARK  4 active torsions:
REMARK  status: ('A' for Active; 'I' for Inactive)
REMARK    1  A    between atoms: C_4  and  N_8 
REMARK    2  A    between atoms: C_5  and  C_6 
REMARK    3  A    between atoms: O_10  and  C_6 
REMARK    4  A    between atoms: O_11  and  N_8 
ROOT
HETATM    1  C   UNK N   1      25.804  25.785  -6.744  0.00  0.00     0.012 C 
HETATM    2  C   UNK N   1      25.288  27.641  -5.134  0.00  0.00     0.055 C 
HETATM    3  C   UNK N   1      25.524  26.167  -5.302  0.00  0.00     0.018 C 
HETATM    4  C   UNK N   1      25.484  27.813  -3.632  0.00  0.00     0.199 C 
HETATM    5  C   UNK N   1      26.714  25.980  -4.373  0.00  0.00     0.181 C 
HETATM    6  N   UNK N   1      26.374  26.738  -3.174  0.00  0.00    -0.386 N 
HETATM    7  H   UNK N   1      26.687  26.559  -2.220  0.00  0.00     0.156 HD
ENDROOT
BRANCH   4   8
HETATM    8  N   UNK N   1      26.093  29.110  -3.353  0.00  0.00    -0.282 N 
HETATM    9  H   UNK N   1      25.822  29.998  -3.777  0.00  0.00     0.189 HD
BRANCH   8  10
HETATM   10  O   UNK N   1      27.078  28.939  -2.437  0.00  0.00    -0.293 OA
HETATM   11  H   UNK N   1      27.103  28.316  -1.695  0.00  0.00     0.244 HD
ENDBRANCH   8  10
ENDBRANCH   4   8
BRANCH   5  12
HETATM   12  C   UNK N   1      27.041  24.550  -4.033  0.00  0.00     0.163 C 
HETATM   13  O   UNK N   1      27.871  23.925  -4.675  0.00  0.00    -0.648 OA
BRANCH  12  14
HETATM   14  O   UNK N   1      26.417  23.954  -2.999  0.00  0.00    -0.775 OA
HETATM   15  H   UNK N   1      25.641  23.448  -3.143  0.00  0.00     0.167 HD
ENDBRANCH  12  14
ENDBRANCH   5  12
TORSDOF 4
ENDMDL
