MODEL 1
REMARK VINA RESULT:      -4.2      0.000      0.000
REMARK  4 active torsions:
REMARK  status: ('A' for Active; 'I' for Inactive)
REMARK    1  A    between atoms: O_2  and  Fe_3 
REMARK    2  A    between atoms: Fe_3  and  N_4 
REMARK    3  A    between atoms: N_4  and  N_6 
REMARK    4  A    between atoms: N_6  and  N_7 
ROOT
HETATM    1  N   UNK N   1      43.603  23.947   3.752  0.00  0.00    -0.130 N 
ATOM      2  HN  UNK N   1      42.906  23.299   3.386  1.00  0.00     0.228 HD
ENDROOT
BRANCH   1   3
HETATM    3 Fe   UNK N   1      43.234  25.016   5.367  0.00  0.00     0.000 Fe
BRANCH   3   4
HETATM    4  O   UNK N   1      43.641  23.522   6.476  0.00  0.00     0.000 OA
HETATM    5 Fe   UNK N   1      45.055  22.678   5.513  0.00  0.00     0.000 Fe
ENDBRANCH   3   4
ENDBRANCH   1   3
BRANCH   1   6
HETATM    6  N   UNK N   1      44.679  24.077   3.199  0.00  0.00    -0.226 NA
BRANCH   6   7
HETATM    7  N   UNK N   1      45.754  24.191   2.640  0.00  0.00    -0.259 N 
HETATM    8  H   UNK N   1      46.520  24.581   3.120  0.00  0.00     0.193 HD
ATOM      9  HN  UNK N   1      45.861  23.884   1.672  1.00  0.00     0.193 HD
ENDBRANCH   6   7
ENDBRANCH   1   6
TORSDOF 4
ENDMDL
MODEL 2
REMARK VINA RESULT:      -3.8      2.542      3.258
REMARK  4 active torsions:
REMARK  status: ('A' for Active; 'I' for Inactive)
REMARK    1  A    between atoms: O_2  and  Fe_3 
REMARK    2  A    between atoms: Fe_3  and  N_4 
REMARK    3  A    between atoms: N_4  and  N_6 
REMARK    4  A    between atoms: N_6  and  N_7 
ROOT
HETATM    1  N   UNK N   1      45.803  22.367   4.222  0.00  0.00    -0.130 N 
ATOM      2  HN  UNK N   1      46.430  21.664   4.612  1.00  0.00     0.228 HD
ENDROOT
BRANCH   1   3
HETATM    3 Fe   UNK N   1      46.521  24.006   3.393  0.00  0.00     0.000 Fe
BRANCH   3   4
HETATM    4  O   UNK N   1      44.777  24.508   2.818  0.00  0.00     0.000 OA
HETATM    5 Fe   UNK N   1      43.896  24.871   4.471  0.00  0.00     0.000 Fe
ENDBRANCH   3   4
ENDBRANCH   1   3
BRANCH   1   6
HETATM    6  N   UNK N   1      44.597  22.212   4.259  0.00  0.00    -0.226 NA
BRANCH   6   7
HETATM    7  N   UNK N   1      43.392  22.043   4.289  0.00  0.00    -0.259 N 
HETATM    8  H   UNK N   1      42.983  21.553   5.039  0.00  0.00     0.193 HD
ATOM      9  HN  UNK N   1      42.806  22.408   3.538  1.00  0.00     0.193 HD
ENDBRANCH   6   7
ENDBRANCH   1   6
TORSDOF 4
ENDMDL
MODEL 3
REMARK VINA RESULT:      -3.7      0.995      2.323
REMARK  4 active torsions:
REMARK  status: ('A' for Active; 'I' for Inactive)
REMARK    1  A    between atoms: O_2  and  Fe_3 
REMARK    2  A    between atoms: Fe_3  and  N_4 
REMARK    3  A    between atoms: N_4  and  N_6 
REMARK    4  A    between atoms: N_6  and  N_7 
ROOT
HETATM    1  N   UNK N   1      45.160  23.435   3.186  0.00  0.00    -0.130 N 
ATOM      2  HN  UNK N   1      45.867  23.721   2.509  1.00  0.00     0.228 HD
ENDROOT
BRANCH   1   3
HETATM    3 Fe   UNK N   1      45.685  22.673   4.927  0.00  0.00     0.000 Fe
BRANCH   3   4
HETATM    4  O   UNK N   1      43.877  22.730   5.524  0.00  0.00     0.000 OA
HETATM    5 Fe   UNK N   1      43.444  24.577   5.321  0.00  0.00     0.000 Fe
ENDBRANCH   3   4
ENDBRANCH   1   3
BRANCH   1   6
HETATM    6  N   UNK N   1      43.976  23.556   2.935  0.00  0.00    -0.226 NA
BRANCH   6   7
HETATM    7  N   UNK N   1      42.795  23.683   2.669  0.00  0.00    -0.259 N 
HETATM    8  H   UNK N   1      42.360  23.053   2.050  0.00  0.00     0.193 HD
ATOM      9  HN  UNK N   1      42.256  24.441   3.088  1.00  0.00     0.193 HD
ENDBRANCH   6   7
ENDBRANCH   1   6
TORSDOF 4
ENDMDL
MODEL 4
REMARK VINA RESULT:      -3.7      2.559      2.917
REMARK  4 active torsions:
REMARK  status: ('A' for Active; 'I' for Inactive)
REMARK    1  A    between atoms: O_2  and  Fe_3 
REMARK    2  A    between atoms: Fe_3  and  N_4 
REMARK    3  A    between atoms: N_4  and  N_6 
REMARK    4  A    between atoms: N_6  and  N_7 
ROOT
HETATM    1  N   UNK N   1      43.647  22.938   4.976  0.00  0.00    -0.130 N 
ATOM      2  HN  UNK N   1      43.112  22.478   5.712  1.00  0.00     0.228 HD
ENDROOT
BRANCH   1   3
HETATM    3 Fe   UNK N   1      43.019  24.631   4.185  0.00  0.00     0.000 Fe
BRANCH   3   4
HETATM    4  O   UNK N   1      44.577  24.728   3.095  0.00  0.00     0.000 OA
HETATM    5 Fe   UNK N   1      44.920  26.604   3.048  0.00  0.00     0.000 Fe
ENDBRANCH   3   4
ENDBRANCH   1   3
BRANCH   1   6
HETATM    6  N   UNK N   1      44.685  22.454   4.569  0.00  0.00    -0.226 NA
BRANCH   6   7
HETATM    7  N   UNK N   1      45.724  21.979   4.148  0.00  0.00    -0.259 N 
HETATM    8  H   UNK N   1      46.559  22.499   4.197  0.00  0.00     0.193 HD
ATOM      9  HN  UNK N   1      45.730  21.041   3.744  1.00  0.00     0.193 HD
ENDBRANCH   6   7
ENDBRANCH   1   6
TORSDOF 4
ENDMDL
MODEL 5
REMARK VINA RESULT:      -3.6     24.430     24.784
REMARK  4 active torsions:
REMARK  status: ('A' for Active; 'I' for Inactive)
REMARK    1  A    between atoms: O_2  and  Fe_3 
REMARK    2  A    between atoms: Fe_3  and  N_4 
REMARK    3  A    between atoms: N_4  and  N_6 
REMARK    4  A    between atoms: N_6  and  N_7 
ROOT
HETATM    1  N   UNK N   1      19.845  19.003   1.831  0.00  0.00    -0.130 N 
ATOM      2  HN  UNK N   1      19.287  18.277   2.280  1.00  0.00     0.228 HD
ENDROOT
BRANCH   1   3
HETATM    3 Fe   UNK N   1      20.338  18.857  -0.073  0.00  0.00     0.000 Fe
BRANCH   3   4
HETATM    4  O   UNK N   1      21.030  20.631  -0.054  0.00  0.00     0.000 OA
HETATM    5 Fe   UNK N   1      19.494  21.657   0.424  0.00  0.00     0.000 Fe
ENDBRANCH   3   4
ENDBRANCH   1   3
BRANCH   1   6
HETATM    6  N   UNK N   1      20.220  19.974   2.458  0.00  0.00    -0.226 NA
BRANCH   6   7
HETATM    7  N   UNK N   1      20.611  20.946   3.078  0.00  0.00    -0.259 N 
HETATM    8  H   UNK N   1      20.910  21.751   2.596  0.00  0.00     0.193 HD
ATOM      9  HN  UNK N   1      20.628  20.927   4.099  1.00  0.00     0.193 HD
ENDBRANCH   6   7
ENDBRANCH   1   6
TORSDOF 4
ENDMDL
MODEL 6
REMARK VINA RESULT:      -3.6      2.542      2.648
REMARK  4 active torsions:
REMARK  status: ('A' for Active; 'I' for Inactive)
REMARK    1  A    between atoms: O_2  and  Fe_3 
REMARK    2  A    between atoms: Fe_3  and  N_4 
REMARK    3  A    between atoms: N_4  and  N_6 
REMARK    4  A    between atoms: N_6  and  N_7 
ROOT
HETATM    1  N   UNK N   1      43.522  23.908   4.385  0.00  0.00    -0.130 N 
ATOM      2  HN  UNK N   1      42.647  24.081   4.880  1.00  0.00     0.228 HD
ENDROOT
BRANCH   1   3
HETATM    3 Fe   UNK N   1      44.588  25.408   3.675  0.00  0.00     0.000 Fe
BRANCH   3   4
HETATM    4  O   UNK N   1      45.726  24.192   2.752  0.00  0.00     0.000 OA
HETATM    5 Fe   UNK N   1      46.528  23.222   4.186  0.00  0.00     0.000 Fe
ENDBRANCH   3   4
ENDBRANCH   1   3
BRANCH   1   6
HETATM    6  N   UNK N   1      43.928  22.774   4.221  0.00  0.00    -0.226 NA
BRANCH   6   7
HETATM    7  N   UNK N   1      44.320  21.633   4.062  0.00  0.00    -0.259 N 
HETATM    8  H   UNK N   1      45.213  21.467   3.682  0.00  0.00     0.193 HD
ATOM      9  HN  UNK N   1      43.723  20.847   4.322  1.00  0.00     0.193 HD
ENDBRANCH   6   7
ENDBRANCH   1   6
TORSDOF 4
ENDMDL
MODEL 7
REMARK VINA RESULT:      -3.6      3.140      3.372
REMARK  4 active torsions:
REMARK  status: ('A' for Active; 'I' for Inactive)
REMARK    1  A    between atoms: O_2  and  Fe_3 
REMARK    2  A    between atoms: Fe_3  and  N_4 
REMARK    3  A    between atoms: N_4  and  N_6 
REMARK    4  A    between atoms: N_6  and  N_7 
ROOT
HETATM    1  N   UNK N   1      43.520  23.881   3.783  0.00  0.00    -0.130 N 
ATOM      2  HN  UNK N   1      43.467  23.571   4.753  1.00  0.00     0.228 HD
ENDROOT
BRANCH   1   3
HETATM    3 Fe   UNK N   1      41.878  24.260   2.758  0.00  0.00     0.000 Fe
BRANCH   3   4
HETATM    4  O   UNK N   1      42.873  24.302   1.135  0.00  0.00     0.000 OA
HETATM    5 Fe   UNK N   1      43.894  25.902   1.329  0.00  0.00     0.000 Fe
ENDBRANCH   3   4
ENDBRANCH   1   3
BRANCH   1   6
HETATM    6  N   UNK N   1      44.596  24.025   3.235  0.00  0.00    -0.226 NA
BRANCH   6   7
HETATM    7  N   UNK N   1      45.680  24.171   2.702  0.00  0.00    -0.259 N 
HETATM    8  H   UNK N   1      46.307  24.851   3.040  0.00  0.00     0.193 HD
ATOM      9  HN  UNK N   1      45.939  23.590   1.904  1.00  0.00     0.193 HD
ENDBRANCH   6   7
ENDBRANCH   1   6
TORSDOF 4
ENDMDL
MODEL 8
REMARK VINA RESULT:      -3.4     24.378     24.736
REMARK  4 active torsions:
REMARK  status: ('A' for Active; 'I' for Inactive)
REMARK    1  A    between atoms: O_2  and  Fe_3 
REMARK    2  A    between atoms: Fe_3  and  N_4 
REMARK    3  A    between atoms: N_4  and  N_6 
REMARK    4  A    between atoms: N_6  and  N_7 
ROOT
HETATM    1  N   UNK N   1      20.520  20.841   0.260  0.00  0.00    -0.130 N 
ATOM      2  HN  UNK N   1      20.439  21.585  -0.433  1.00  0.00     0.228 HD
ENDROOT
BRANCH   1   3
HETATM    3 Fe   UNK N   1      20.262  18.956  -0.255  0.00  0.00     0.000 Fe
BRANCH   3   4
HETATM    4  O   UNK N   1      20.133  18.448   1.576  0.00  0.00     0.000 OA
HETATM    5 Fe   UNK N   1      18.705  19.550   2.199  0.00  0.00     0.000 Fe
ENDBRANCH   3   4
ENDBRANCH   1   3
BRANCH   1   6
HETATM    6  N   UNK N   1      20.778  21.099   1.420  0.00  0.00    -0.226 NA
BRANCH   6   7
HETATM    7  N   UNK N   1      21.020  21.362   2.584  0.00  0.00    -0.259 N 
HETATM    8  H   UNK N   1      20.950  20.661   3.272  0.00  0.00     0.193 HD
ATOM      9  HN  UNK N   1      21.294  22.309   2.846  1.00  0.00     0.193 HD
ENDBRANCH   6   7
ENDBRANCH   1   6
TORSDOF 4
ENDMDL
MODEL 9
REMARK VINA RESULT:      -3.4     26.068     26.676
REMARK  4 active torsions:
REMARK  status: ('A' for Active; 'I' for Inactive)
REMARK    1  A    between atoms: O_2  and  Fe_3 
REMARK    2  A    between atoms: Fe_3  and  N_4 
REMARK    3  A    between atoms: N_4  and  N_6 
REMARK    4  A    between atoms: N_6  and  N_7 
ROOT
HETATM    1  N   UNK N   1      17.430  18.370   9.896  0.00  0.00    -0.130 N 
ATOM      2  HN  UNK N   1      16.438  18.172  10.029  1.00  0.00     0.228 HD
ENDROOT
BRANCH   1   3
HETATM    3 Fe   UNK N   1      18.180  20.123  10.398  0.00  0.00     0.000 Fe
BRANCH   3   4
HETATM    4  O   UNK N   1      19.949  19.464  10.149  0.00  0.00     0.000 OA
HETATM    5 Fe   UNK N   1      20.025  19.218   8.258  0.00  0.00     0.000 Fe
ENDBRANCH   3   4
ENDBRANCH   1   3
BRANCH   1   6
HETATM    6  N   UNK N   1      18.172  17.531   9.425  0.00  0.00    -0.226 NA
BRANCH   6   7
HETATM    7  N   UNK N   1      18.904  16.679   8.954  0.00  0.00    -0.259 N 
HETATM    8  H   UNK N   1      18.631  16.188   8.146  0.00  0.00     0.193 HD
ATOM      9  HN  UNK N   1      19.800  16.474   9.398  1.00  0.00     0.193 HD
ENDBRANCH   6   7
ENDBRANCH   1   6
TORSDOF 4
ENDMDL
