REMARK  4 active torsions:
REMARK  status: ('A' for Active; 'I' for Inactive)
REMARK    1  A    between atoms: C_2  and  O_3 
REMARK    2  A    between atoms: C_2  and  C_4 
REMARK    3  A    between atoms: C_4  and  C_5 
REMARK    4  A    between atoms: C_5  and  O_6 
ROOT
HETATM    1  C   UNK N   1       3.085  -2.362  -0.000  0.00  0.00     0.039 C 
HETATM    2  C   UNK N   1       2.396  -1.013   0.000  0.00  0.00     0.116 C 
ENDROOT
BRANCH   2   3
HETATM    3  O   UNK N   1       3.196   0.130  -0.000  0.00  0.00    -0.396 OA
HETATM    4  H   UNK N   1       4.162   0.045  -0.000  0.00  0.00     0.210 HD
ENDBRANCH   2   3
BRANCH   2   5
HETATM    5  C   UNK N   1       0.878  -0.880  -0.000  0.00  0.00     0.057 C 
BRANCH   5   6
HETATM    6  C   UNK N   1       0.456   0.579   0.000  0.00  0.00     0.166 C 
BRANCH   6   7
HETATM    7  O   UNK N   1      -0.935   0.669  -0.000  0.00  0.00    -0.401 OA
HETATM    8  H   UNK N   1      -1.365   1.539  -0.000  0.00  0.00     0.209 HD
ENDBRANCH   6   7
ENDBRANCH   5   6
ENDBRANCH   2   5
TORSDOF 4
