MODEL 1
REMARK VINA RESULT:      -3.2      0.000      0.000
REMARK  4 active torsions:
REMARK  status: ('A' for Active; 'I' for Inactive)
REMARK    1  A    between atoms: C_2  and  C_3 
REMARK    2  A    between atoms: C_3  and  C_4 
REMARK    3  A    between atoms: C_4  and  C_5 
REMARK    4  A    between atoms: C_5  and  N_6 
ROOT
HETATM    1  C   UNK N   1      23.050  11.979  11.542  0.00  0.00     0.019 C 
ENDROOT
BRANCH   1   2
HETATM    2  C   UNK N   1      21.630  12.227  11.090  0.00  0.00     0.001 C 
BRANCH   2   3
HETATM    3  C   UNK N   1      21.645  12.981   9.780  0.00  0.00    -0.004 C 
HETATM    4  C   UNK N   1      20.533  14.006   9.792  0.00  0.00     0.005 C 
ENDBRANCH   2   3
ENDBRANCH   1   2
BRANCH   1   5
HETATM    5  C   UNK N   1      23.989  12.323  10.411  0.00  0.00     0.111 C 
BRANCH   5   6
HETATM    6  N   UNK N   1      25.243  12.805  10.960  0.00  0.00    -0.430 N 
HETATM    7  H   UNK N   1      26.109  12.692  10.432  0.00  0.00     0.149 HD
HETATM    8  H   UNK N   1      25.259  13.258  11.875  0.00  0.00     0.149 HD
ENDBRANCH   5   6
ENDBRANCH   1   5
TORSDOF 4
ENDMDL
MODEL 2
REMARK VINA RESULT:      -2.9      1.598      2.113
REMARK  4 active torsions:
REMARK  status: ('A' for Active; 'I' for Inactive)
REMARK    1  A    between atoms: C_2  and  C_3 
REMARK    2  A    between atoms: C_3  and  C_4 
REMARK    3  A    between atoms: C_4  and  C_5 
REMARK    4  A    between atoms: C_5  and  N_6 
ROOT
HETATM    1  C   UNK N   1      21.511  12.453  10.717  0.00  0.00     0.019 C 
ENDROOT
BRANCH   1   2
HETATM    2  C   UNK N   1      21.725  13.655   9.828  0.00  0.00     0.001 C 
BRANCH   2   3
HETATM    3  C   UNK N   1      20.393  14.302   9.528  0.00  0.00    -0.004 C 
HETATM    4  C   UNK N   1      20.634  15.634   8.856  0.00  0.00     0.005 C 
ENDBRANCH   2   3
ENDBRANCH   1   2
BRANCH   1   5
HETATM    5  C   UNK N   1      22.846  12.006  11.264  0.00  0.00     0.111 C 
BRANCH   5   6
HETATM    6  N   UNK N   1      22.687  11.611  12.652  0.00  0.00    -0.430 N 
HETATM    7  H   UNK N   1      23.503  11.352  13.205  0.00  0.00     0.149 HD
HETATM    8  H   UNK N   1      21.757  11.592  13.073  0.00  0.00     0.149 HD
ENDBRANCH   5   6
ENDBRANCH   1   5
TORSDOF 4
ENDMDL
MODEL 3
REMARK VINA RESULT:      -2.9     13.835     14.445
REMARK  4 active torsions:
REMARK  status: ('A' for Active; 'I' for Inactive)
REMARK    1  A    between atoms: C_2  and  C_3 
REMARK    2  A    between atoms: C_3  and  C_4 
REMARK    3  A    between atoms: C_4  and  C_5 
REMARK    4  A    between atoms: C_5  and  N_6 
ROOT
HETATM    1  C   UNK N   1      36.203  13.227  15.715  0.00  0.00     0.019 C 
ENDROOT
BRANCH   1   2
HETATM    2  C   UNK N   1      34.995  13.081  16.611  0.00  0.00     0.001 C 
BRANCH   2   3
HETATM    3  C   UNK N   1      35.222  13.855  17.889  0.00  0.00    -0.004 C 
HETATM    4  C   UNK N   1      35.198  12.893  19.055  0.00  0.00     0.005 C 
ENDBRANCH   2   3
ENDBRANCH   1   2
BRANCH   1   5
HETATM    5  C   UNK N   1      35.740  13.601  14.328  0.00  0.00     0.111 C 
BRANCH   5   6
HETATM    6  N   UNK N   1      36.722  14.476  13.714  0.00  0.00    -0.430 N 
HETATM    7  H   UNK N   1      37.717  14.274  13.812  0.00  0.00     0.149 HD
HETATM    8  H   UNK N   1      36.417  15.294  13.185  0.00  0.00     0.149 HD
ENDBRANCH   5   6
ENDBRANCH   1   5
TORSDOF 4
ENDMDL
MODEL 4
REMARK VINA RESULT:      -2.9     14.061     14.838
REMARK  4 active torsions:
REMARK  status: ('A' for Active; 'I' for Inactive)
REMARK    1  A    between atoms: C_2  and  C_3 
REMARK    2  A    between atoms: C_3  and  C_4 
REMARK    3  A    between atoms: C_4  and  C_5 
REMARK    4  A    between atoms: C_5  and  N_6 
ROOT
HETATM    1  C   UNK N   1      35.214  13.842  18.125  0.00  0.00     0.019 C 
ENDROOT
BRANCH   1   2
HETATM    2  C   UNK N   1      34.767  13.214  16.826  0.00  0.00     0.001 C 
BRANCH   2   3
HETATM    3  C   UNK N   1      35.723  12.106  16.450  0.00  0.00    -0.004 C 
HETATM    4  C   UNK N   1      36.625  12.593  15.339  0.00  0.00     0.005 C 
ENDBRANCH   2   3
ENDBRANCH   1   2
BRANCH   1   5
HETATM    5  C   UNK N   1      35.256  12.776  19.194  0.00  0.00     0.111 C 
BRANCH   5   6
HETATM    6  N   UNK N   1      34.741  13.322  20.436  0.00  0.00    -0.430 N 
HETATM    7  H   UNK N   1      34.494  12.697  21.204  0.00  0.00     0.149 HD
HETATM    8  H   UNK N   1      34.625  14.331  20.541  0.00  0.00     0.149 HD
ENDBRANCH   5   6
ENDBRANCH   1   5
TORSDOF 4
ENDMDL
MODEL 5
REMARK VINA RESULT:      -2.9     20.652     21.510
REMARK  4 active torsions:
REMARK  status: ('A' for Active; 'I' for Inactive)
REMARK    1  A    between atoms: C_2  and  C_3 
REMARK    2  A    between atoms: C_3  and  C_4 
REMARK    3  A    between atoms: C_4  and  C_5 
REMARK    4  A    between atoms: C_5  and  N_6 
ROOT
HETATM    1  C   UNK N   1      25.670  26.591  -6.779  0.00  0.00     0.019 C 
ENDROOT
BRANCH   1   2
HETATM    2  C   UNK N   1      24.855  27.049  -5.593  0.00  0.00     0.001 C 
BRANCH   2   3
HETATM    3  C   UNK N   1      25.650  28.059  -4.798  0.00  0.00    -0.004 C 
HETATM    4  C   UNK N   1      25.840  27.537  -3.392  0.00  0.00     0.005 C 
ENDBRANCH   2   3
ENDBRANCH   1   2
BRANCH   1   5
HETATM    5  C   UNK N   1      25.817  25.089  -6.718  0.00  0.00     0.111 C 
BRANCH   5   6
HETATM    6  N   UNK N   1      25.152  24.589  -5.529  0.00  0.00    -0.430 N 
HETATM    7  H   UNK N   1      24.977  25.214  -4.742  0.00  0.00     0.149 HD
HETATM    8  H   UNK N   1      24.859  23.613  -5.481  0.00  0.00     0.149 HD
ENDBRANCH   5   6
ENDBRANCH   1   5
TORSDOF 4
ENDMDL
MODEL 6
REMARK VINA RESULT:      -2.8     14.283     14.778
REMARK  4 active torsions:
REMARK  status: ('A' for Active; 'I' for Inactive)
REMARK    1  A    between atoms: C_2  and  C_3 
REMARK    2  A    between atoms: C_3  and  C_4 
REMARK    3  A    between atoms: C_4  and  C_5 
REMARK    4  A    between atoms: C_5  and  N_6 
ROOT
HETATM    1  C   UNK N   1      35.613  12.610  16.518  0.00  0.00     0.019 C 
ENDROOT
BRANCH   1   2
HETATM    2  C   UNK N   1      35.066  13.554  17.562  0.00  0.00     0.001 C 
BRANCH   2   3
HETATM    3  C   UNK N   1      35.247  12.946  18.934  0.00  0.00    -0.004 C 
HETATM    4  C   UNK N   1      35.382  11.447  18.791  0.00  0.00     0.005 C 
ENDBRANCH   2   3
ENDBRANCH   1   2
BRANCH   1   5
HETATM    5  C   UNK N   1      35.858  13.381  15.243  0.00  0.00     0.111 C 
BRANCH   5   6
HETATM    6  N   UNK N   1      37.277  13.366  14.938  0.00  0.00    -0.430 N 
HETATM    7  H   UNK N   1      37.852  12.575  15.227  0.00  0.00     0.149 HD
HETATM    8  H   UNK N   1      37.698  14.146  14.433  0.00  0.00     0.149 HD
ENDBRANCH   5   6
ENDBRANCH   1   5
TORSDOF 4
ENDMDL
MODEL 7
REMARK VINA RESULT:      -2.8      2.440      3.625
REMARK  4 active torsions:
REMARK  status: ('A' for Active; 'I' for Inactive)
REMARK    1  A    between atoms: C_2  and  C_3 
REMARK    2  A    between atoms: C_3  and  C_4 
REMARK    3  A    between atoms: C_4  and  C_5 
REMARK    4  A    between atoms: C_5  and  N_6 
ROOT
HETATM    1  C   UNK N   1      20.996  13.085  10.264  0.00  0.00     0.019 C 
ENDROOT
BRANCH   1   2
HETATM    2  C   UNK N   1      22.505  13.053  10.322  0.00  0.00     0.001 C 
BRANCH   2   3
HETATM    3  C   UNK N   1      22.956  11.745  10.930  0.00  0.00    -0.004 C 
HETATM    4  C   UNK N   1      23.036  11.904  12.432  0.00  0.00     0.005 C 
ENDBRANCH   2   3
ENDBRANCH   1   2
BRANCH   1   5
HETATM    5  C   UNK N   1      20.562  14.334   9.534  0.00  0.00     0.111 C 
BRANCH   5   6
HETATM    6  N   UNK N   1      20.652  14.109   8.103  0.00  0.00    -0.430 N 
HETATM    7  H   UNK N   1      21.182  13.315   7.744  0.00  0.00     0.149 HD
HETATM    8  H   UNK N   1      20.185  14.745   7.456  0.00  0.00     0.149 HD
ENDBRANCH   5   6
ENDBRANCH   1   5
TORSDOF 4
ENDMDL
MODEL 8
REMARK VINA RESULT:      -2.7     11.774     12.524
REMARK  4 active torsions:
REMARK  status: ('A' for Active; 'I' for Inactive)
REMARK    1  A    between atoms: C_2  and  C_3 
REMARK    2  A    between atoms: C_3  and  C_4 
REMARK    3  A    between atoms: C_4  and  C_5 
REMARK    4  A    between atoms: C_5  and  N_6 
ROOT
HETATM    1  C   UNK N   1      32.851  17.913   8.126  0.00  0.00     0.019 C 
ENDROOT
BRANCH   1   2
HETATM    2  C   UNK N   1      32.427  17.290   6.817  0.00  0.00     0.001 C 
BRANCH   2   3
HETATM    3  C   UNK N   1      33.538  17.443   5.804  0.00  0.00    -0.004 C 
HETATM    4  C   UNK N   1      32.931  17.553   4.424  0.00  0.00     0.005 C 
ENDBRANCH   2   3
ENDBRANCH   1   2
BRANCH   1   5
HETATM    5  C   UNK N   1      34.349  18.103   8.113  0.00  0.00     0.111 C 
BRANCH   5   6
HETATM    6  N   UNK N   1      34.900  17.660   9.381  0.00  0.00    -0.430 N 
HETATM    7  H   UNK N   1      35.910  17.624   9.513  0.00  0.00     0.149 HD
HETATM    8  H   UNK N   1      34.275  17.384  10.139  0.00  0.00     0.149 HD
ENDBRANCH   5   6
ENDBRANCH   1   5
TORSDOF 4
ENDMDL
MODEL 9
REMARK VINA RESULT:      -2.7      8.698     10.039
REMARK  4 active torsions:
REMARK  status: ('A' for Active; 'I' for Inactive)
REMARK    1  A    between atoms: C_2  and  C_3 
REMARK    2  A    between atoms: C_3  and  C_4 
REMARK    3  A    between atoms: C_4  and  C_5 
REMARK    4  A    between atoms: C_5  and  N_6 
ROOT
HETATM    1  C   UNK N   1      29.198  17.291   7.607  0.00  0.00     0.019 C 
ENDROOT
BRANCH   1   2
HETATM    2  C   UNK N   1      30.686  17.261   7.345  0.00  0.00     0.001 C 
BRANCH   2   3
HETATM    3  C   UNK N   1      31.415  17.865   8.523  0.00  0.00    -0.004 C 
HETATM    4  C   UNK N   1      32.876  18.021   8.168  0.00  0.00     0.005 C 
ENDBRANCH   2   3
ENDBRANCH   1   2
BRANCH   1   5
HETATM    5  C   UNK N   1      28.834  18.631   8.199  0.00  0.00     0.111 C 
BRANCH   5   6
HETATM    6  N   UNK N   1      27.696  18.470   9.086  0.00  0.00    -0.430 N 
HETATM    7  H   UNK N   1      27.714  18.883  10.018  0.00  0.00     0.149 HD
HETATM    8  H   UNK N   1      26.878  17.944   8.776  0.00  0.00     0.149 HD
ENDBRANCH   5   6
ENDBRANCH   1   5
TORSDOF 4
ENDMDL
