MODEL 1
REMARK VINA RESULT:      -4.9      0.000      0.000
REMARK  5 active torsions:
REMARK  status: ('A' for Active; 'I' for Inactive)
REMARK    1  A    between atoms: C_2  and  C_1 
REMARK    2  A    between atoms: O_8  and  C_1 
REMARK    3  A    between atoms: C_4  and  O_9 
REMARK    4  A    between atoms: C_5  and  O_10 
REMARK    5  A    between atoms: C_6  and  O_11 
ROOT
HETATM    1  C   UNK N   1      21.005  19.440   2.278  0.00  0.00     0.179 C 
HETATM    2  C   UNK N   1      20.333  17.440   4.225  0.00  0.00     0.256 C 
HETATM    3  C   UNK N   1      20.112  18.246   1.860  0.00  0.00     0.180 C 
HETATM    4  C   UNK N   1      20.447  17.039   2.749  0.00  0.00     0.188 C 
HETATM    5  C   UNK N   1      21.229  18.665   4.466  0.00  0.00     0.294 C 
HETATM    6  F   UNK N   1      20.729  16.388   5.033  0.00  0.00    -0.241 F 
HETATM    7  O   UNK N   1      20.810  19.747   3.652  0.00  0.00    -0.348 OA
ENDROOT
BRANCH   1   8
HETATM    8  C   UNK N   1      20.667  20.687   1.465  0.00  0.00     0.198 C 
BRANCH   8   9
HETATM    9  O   UNK N   1      20.550  20.380   0.109  0.00  0.00    -0.398 OA
HETATM   10  H   UNK N   1      19.759  20.226  -0.430  0.00  0.00     0.209 HD
ENDBRANCH   8   9
ENDBRANCH   1   8
BRANCH   3  11
HETATM   11  O   UNK N   1      18.762  18.586   2.006  0.00  0.00    -0.390 OA
HETATM   12  H   UNK N   1      17.923  19.057   2.130  0.00  0.00     0.210 HD
ENDBRANCH   3  11
BRANCH   4  13
HETATM   13  O   UNK N   1      19.590  15.971   2.467  0.00  0.00    -0.390 OA
HETATM   14  H   UNK N   1      19.744  15.091   2.844  0.00  0.00     0.210 HD
ENDBRANCH   4  13
BRANCH   5  15
HETATM   15  O   UNK N   1      21.131  19.049   5.805  0.00  0.00    -0.368 OA
HETATM   16  H   UNK N   1      21.851  19.302   6.402  0.00  0.00     0.212 HD
ENDBRANCH   5  15
TORSDOF 5
ENDMDL
MODEL 2
REMARK VINA RESULT:      -4.8     14.567     16.030
REMARK  5 active torsions:
REMARK  status: ('A' for Active; 'I' for Inactive)
REMARK    1  A    between atoms: C_2  and  C_1 
REMARK    2  A    between atoms: O_8  and  C_1 
REMARK    3  A    between atoms: C_4  and  O_9 
REMARK    4  A    between atoms: C_5  and  O_10 
REMARK    5  A    between atoms: C_6  and  O_11 
ROOT
HETATM    1  C   UNK N   1      34.770  16.276  10.171  0.00  0.00     0.179 C 
HETATM    2  C   UNK N   1      34.360  17.161   7.472  0.00  0.00     0.256 C 
HETATM    3  C   UNK N   1      34.594  15.224   9.050  0.00  0.00     0.180 C 
HETATM    4  C   UNK N   1      33.740  15.834   7.926  0.00  0.00     0.188 C 
HETATM    5  C   UNK N   1      34.521  18.068   8.701  0.00  0.00     0.294 C 
HETATM    6  F   UNK N   1      33.544  17.765   6.530  0.00  0.00    -0.241 F 
HETATM    7  O   UNK N   1      35.371  17.455   9.655  0.00  0.00    -0.348 OA
ENDROOT
BRANCH   1   8
HETATM    8  C   UNK N   1      35.666  15.742  11.287  0.00  0.00     0.198 C 
BRANCH   8   9
HETATM    9  O   UNK N   1      37.010  15.997  11.010  0.00  0.00    -0.398 OA
HETATM   10  H   UNK N   1      37.423  16.751  10.562  0.00  0.00     0.209 HD
ENDBRANCH   8   9
ENDBRANCH   1   8
BRANCH   3  11
HETATM   11  O   UNK N   1      35.844  14.849   8.546  0.00  0.00    -0.390 OA
HETATM   12  H   UNK N   1      36.776  14.824   8.277  0.00  0.00     0.210 HD
ENDBRANCH   3  11
BRANCH   4  13
HETATM   13  O   UNK N   1      33.643  14.948   6.850  0.00  0.00    -0.390 OA
HETATM   14  H   UNK N   1      33.837  15.234   5.944  0.00  0.00     0.210 HD
ENDBRANCH   4  13
BRANCH   5  15
HETATM   15  O   UNK N   1      35.092  19.280   8.305  0.00  0.00    -0.368 OA
HETATM   16  H   UNK N   1      35.827  19.414   7.686  0.00  0.00     0.212 HD
ENDBRANCH   5  15
TORSDOF 5
ENDMDL
MODEL 3
REMARK VINA RESULT:      -4.7     13.790     15.547
REMARK  5 active torsions:
REMARK  status: ('A' for Active; 'I' for Inactive)
REMARK    1  A    between atoms: C_2  and  C_1 
REMARK    2  A    between atoms: O_8  and  C_1 
REMARK    3  A    between atoms: C_4  and  O_9 
REMARK    4  A    between atoms: C_5  and  O_10 
REMARK    5  A    between atoms: C_6  and  O_11 
ROOT
HETATM    1  C   UNK N   1      34.457  15.248   9.500  0.00  0.00     0.179 C 
HETATM    2  C   UNK N   1      33.156  17.648   8.612  0.00  0.00     0.256 C 
HETATM    3  C   UNK N   1      35.182  16.606   9.664  0.00  0.00     0.180 C 
HETATM    4  C   UNK N   1      34.687  17.568   8.572  0.00  0.00     0.188 C 
HETATM    5  C   UNK N   1      32.592  16.224   8.496  0.00  0.00     0.294 C 
HETATM    6  F   UNK N   1      32.697  18.434   7.570  0.00  0.00    -0.241 F 
HETATM    7  O   UNK N   1      33.049  15.426   9.575  0.00  0.00    -0.348 OA
ENDROOT
BRANCH   1   8
HETATM    8  C   UNK N   1      34.866  14.273  10.601  0.00  0.00     0.198 C 
BRANCH   8   9
HETATM    9  O   UNK N   1      34.009  14.374  11.699  0.00  0.00    -0.398 OA
HETATM   10  H   UNK N   1      33.550  15.146  12.063  0.00  0.00     0.209 HD
ENDBRANCH   8   9
ENDBRANCH   1   8
BRANCH   3  11
HETATM   11  O   UNK N   1      34.912  17.141  10.928  0.00  0.00    -0.390 OA
HETATM   12  H   UNK N   1      34.928  17.659  11.749  0.00  0.00     0.210 HD
ENDBRANCH   3  11
BRANCH   4  13
HETATM   13  O   UNK N   1      35.246  18.836   8.749  0.00  0.00    -0.390 OA
HETATM   14  H   UNK N   1      36.206  18.958   8.812  0.00  0.00     0.210 HD
ENDBRANCH   4  13
BRANCH   5  15
HETATM   15  O   UNK N   1      31.197  16.278   8.538  0.00  0.00    -0.368 OA
HETATM   16  H   UNK N   1      30.598  15.717   9.055  0.00  0.00     0.212 HD
ENDBRANCH   5  15
TORSDOF 5
ENDMDL
MODEL 4
REMARK VINA RESULT:      -4.7     14.261     15.501
REMARK  5 active torsions:
REMARK  status: ('A' for Active; 'I' for Inactive)
REMARK    1  A    between atoms: C_2  and  C_1 
REMARK    2  A    between atoms: O_8  and  C_1 
REMARK    3  A    between atoms: C_4  and  O_9 
REMARK    4  A    between atoms: C_5  and  O_10 
REMARK    5  A    between atoms: C_6  and  O_11 
ROOT
HETATM    1  C   UNK N   1      34.579  17.004   8.712  0.00  0.00     0.179 C 
HETATM    2  C   UNK N   1      34.092  15.007  10.715  0.00  0.00     0.256 C 
HETATM    3  C   UNK N   1      33.274  16.175   8.651  0.00  0.00     0.180 C 
HETATM    4  C   UNK N   1      33.523  14.807   9.305  0.00  0.00     0.188 C 
HETATM    5  C   UNK N   1      35.344  15.891  10.612  0.00  0.00     0.294 C 
HETATM    6  F   UNK N   1      34.413  13.781  11.273  0.00  0.00    -0.241 F 
HETATM    7  O   UNK N   1      35.010  17.152  10.058  0.00  0.00    -0.348 OA
ENDROOT
BRANCH   1   8
HETATM    8  C   UNK N   1      34.368  18.400   8.131  0.00  0.00     0.198 C 
BRANCH   8   9
HETATM    9  O   UNK N   1      35.358  19.279   8.575  0.00  0.00    -0.398 OA
HETATM   10  H   UNK N   1      35.561  20.184   8.294  0.00  0.00     0.209 HD
ENDBRANCH   8   9
ENDBRANCH   1   8
BRANCH   3  11
HETATM   11  O   UNK N   1      32.250  16.847   9.329  0.00  0.00    -0.390 OA
HETATM   12  H   UNK N   1      31.730  17.474   9.855  0.00  0.00     0.210 HD
ENDBRANCH   3  11
BRANCH   4  13
HETATM   13  O   UNK N   1      32.338  14.067   9.359  0.00  0.00    -0.390 OA
HETATM   14  H   UNK N   1      31.817  13.896   8.559  0.00  0.00     0.210 HD
ENDBRANCH   4  13
BRANCH   5  15
HETATM   15  O   UNK N   1      35.872  16.089  11.890  0.00  0.00    -0.368 OA
HETATM   16  H   UNK N   1      36.762  16.397  12.122  0.00  0.00     0.212 HD
ENDBRANCH   5  15
TORSDOF 5
ENDMDL
MODEL 5
REMARK VINA RESULT:      -4.6     22.259     23.069
REMARK  5 active torsions:
REMARK  status: ('A' for Active; 'I' for Inactive)
REMARK    1  A    between atoms: C_2  and  C_1 
REMARK    2  A    between atoms: O_8  and  C_1 
REMARK    3  A    between atoms: C_4  and  O_9 
REMARK    4  A    between atoms: C_5  and  O_10 
REMARK    5  A    between atoms: C_6  and  O_11 
ROOT
HETATM    1  C   UNK N   1      43.852  21.707   2.943  0.00  0.00     0.179 C 
HETATM    2  C   UNK N   1      41.443  22.843   1.872  0.00  0.00     0.256 C 
HETATM    3  C   UNK N   1      43.847  23.190   2.499  0.00  0.00     0.180 C 
HETATM    4  C   UNK N   1      42.799  23.374   1.391  0.00  0.00     0.188 C 
HETATM    5  C   UNK N   1      41.626  21.388   2.328  0.00  0.00     0.294 C 
HETATM    6  F   UNK N   1      40.517  22.913   0.845  0.00  0.00    -0.241 F 
HETATM    7  O   UNK N   1      42.561  21.320   3.391  0.00  0.00    -0.348 OA
ENDROOT
BRANCH   1   8
HETATM    8  C   UNK N   1      44.835  21.483   4.090  0.00  0.00     0.198 C 
BRANCH   8   9
HETATM    9  O   UNK N   1      45.826  22.465   4.096  0.00  0.00    -0.398 OA
HETATM   10  H   UNK N   1      45.932  23.241   4.668  0.00  0.00     0.209 HD
ENDBRANCH   8   9
ENDBRANCH   1   8
BRANCH   3  11
HETATM   11  O   UNK N   1      43.538  24.013   3.588  0.00  0.00    -0.390 OA
HETATM   12  H   UNK N   1      43.290  24.758   4.158  0.00  0.00     0.210 HD
ENDBRANCH   3  11
BRANCH   4  13
HETATM   13  O   UNK N   1      42.696  24.721   1.034  0.00  0.00    -0.390 OA
HETATM   14  H   UNK N   1      43.447  25.198   0.648  0.00  0.00     0.210 HD
ENDBRANCH   4  13
BRANCH   5  15
HETATM   15  O   UNK N   1      40.400  20.890   2.777  0.00  0.00    -0.368 OA
HETATM   16  H   UNK N   1      39.571  20.824   2.280  0.00  0.00     0.212 HD
ENDBRANCH   5  15
TORSDOF 5
ENDMDL
MODEL 6
REMARK VINA RESULT:      -4.5     20.811     21.517
REMARK  5 active torsions:
REMARK  status: ('A' for Active; 'I' for Inactive)
REMARK    1  A    between atoms: C_2  and  C_1 
REMARK    2  A    between atoms: O_8  and  C_1 
REMARK    3  A    between atoms: C_4  and  O_9 
REMARK    4  A    between atoms: C_5  and  O_10 
REMARK    5  A    between atoms: C_6  and  O_11 
ROOT
HETATM    1  C   UNK N   1      42.888  21.992   2.420  0.00  0.00     0.179 C 
HETATM    2  C   UNK N   1      40.145  21.209   2.097  0.00  0.00     0.256 C 
HETATM    3  C   UNK N   1      41.971  22.816   1.483  0.00  0.00     0.180 C 
HETATM    4  C   UNK N   1      40.868  21.898   0.933  0.00  0.00     0.188 C 
HETATM    5  C   UNK N   1      41.191  20.487   2.960  0.00  0.00     0.294 C 
HETATM    6  F   UNK N   1      39.217  20.305   1.609  0.00  0.00    -0.241 F 
HETATM    7  O   UNK N   1      42.129  21.417   3.474  0.00  0.00    -0.348 OA
ENDROOT
BRANCH   1   8
HETATM    8  C   UNK N   1      43.966  22.874   3.044  0.00  0.00     0.198 C 
BRANCH   8   9
HETATM    9  O   UNK N   1      43.427  23.689   4.041  0.00  0.00    -0.398 OA
HETATM   10  H   UNK N   1      43.667  24.590   4.309  0.00  0.00     0.209 HD
ENDBRANCH   8   9
ENDBRANCH   1   8
BRANCH   3  11
HETATM   11  O   UNK N   1      41.397  23.878   2.190  0.00  0.00    -0.390 OA
HETATM   12  H   UNK N   1      40.875  24.425   2.799  0.00  0.00     0.210 HD
ENDBRANCH   3  11
BRANCH   4  13
HETATM   13  O   UNK N   1      39.962  22.630   0.162  0.00  0.00    -0.390 OA
HETATM   14  H   UNK N   1      39.281  23.182   0.576  0.00  0.00     0.210 HD
ENDBRANCH   4  13
BRANCH   5  15
HETATM   15  O   UNK N   1      40.549  19.859   4.030  0.00  0.00    -0.368 OA
HETATM   16  H   UNK N   1      40.041  20.277   4.742  0.00  0.00     0.212 HD
ENDBRANCH   5  15
TORSDOF 5
ENDMDL
MODEL 7
REMARK VINA RESULT:      -4.5     12.732     14.040
REMARK  5 active torsions:
REMARK  status: ('A' for Active; 'I' for Inactive)
REMARK    1  A    between atoms: C_2  and  C_1 
REMARK    2  A    between atoms: O_8  and  C_1 
REMARK    3  A    between atoms: C_4  and  O_9 
REMARK    4  A    between atoms: C_5  and  O_10 
REMARK    5  A    between atoms: C_6  and  O_11 
ROOT
HETATM    1  C   UNK N   1      32.511  16.858   7.209  0.00  0.00     0.179 C 
HETATM    2  C   UNK N   1      34.240  17.116   9.486  0.00  0.00     0.256 C 
HETATM    3  C   UNK N   1      32.207  16.037   8.486  0.00  0.00     0.180 C 
HETATM    4  C   UNK N   1      33.523  15.783   9.238  0.00  0.00     0.188 C 
HETATM    5  C   UNK N   1      34.415  17.831   8.137  0.00  0.00     0.294 C 
HETATM    6  F   UNK N   1      35.472  16.887  10.074  0.00  0.00    -0.241 F 
HETATM    7  O   UNK N   1      33.152  18.080   7.546  0.00  0.00    -0.348 OA
ENDROOT
BRANCH   1   8
HETATM    8  C   UNK N   1      31.226  17.194   6.455  0.00  0.00     0.198 C 
BRANCH   8   9
HETATM    9  O   UNK N   1      30.283  16.175   6.602  0.00  0.00    -0.398 OA
HETATM   10  H   UNK N   1      30.009  15.688   7.394  0.00  0.00     0.209 HD
ENDBRANCH   8   9
ENDBRANCH   1   8
BRANCH   3  11
HETATM   11  O   UNK N   1      31.319  16.743   9.306  0.00  0.00    -0.390 OA
HETATM   12  H   UNK N   1      30.910  17.377   9.915  0.00  0.00     0.210 HD
ENDBRANCH   3  11
BRANCH   4  13
HETATM   13  O   UNK N   1      33.276  15.130  10.448  0.00  0.00    -0.390 OA
HETATM   14  H   UNK N   1      33.932  14.533  10.840  0.00  0.00     0.210 HD
ENDBRANCH   4  13
BRANCH   5  15
HETATM   15  O   UNK N   1      35.061  19.052   8.346  0.00  0.00    -0.368 OA
HETATM   16  H   UNK N   1      35.858  19.383   7.904  0.00  0.00     0.212 HD
ENDBRANCH   5  15
TORSDOF 5
ENDMDL
MODEL 8
REMARK VINA RESULT:      -4.5     11.057     12.352
REMARK  5 active torsions:
REMARK  status: ('A' for Active; 'I' for Inactive)
REMARK    1  A    between atoms: C_2  and  C_1 
REMARK    2  A    between atoms: O_8  and  C_1 
REMARK    3  A    between atoms: C_4  and  O_9 
REMARK    4  A    between atoms: C_5  and  O_10 
REMARK    5  A    between atoms: C_6  and  O_11 
ROOT
HETATM    1  C   UNK N   1      26.749  27.039  -4.621  0.00  0.00     0.179 C 
HETATM    2  C   UNK N   1      25.863  24.363  -5.160  0.00  0.00     0.256 C 
HETATM    3  C   UNK N   1      25.898  26.765  -5.884  0.00  0.00     0.180 C 
HETATM    4  C   UNK N   1      26.129  25.314  -6.334  0.00  0.00     0.188 C 
HETATM    5  C   UNK N   1      26.736  24.799  -3.974  0.00  0.00     0.294 C 
HETATM    6  F   UNK N   1      26.164  23.063  -5.527  0.00  0.00    -0.241 F 
HETATM    7  O   UNK N   1      26.412  26.124  -3.588  0.00  0.00    -0.348 OA
ENDROOT
BRANCH   1   8
HETATM    8  C   UNK N   1      26.507  28.452  -4.094  0.00  0.00     0.198 C 
BRANCH   8   9
HETATM    9  O   UNK N   1      25.403  28.482  -3.241  0.00  0.00    -0.398 OA
HETATM   10  H   UNK N   1      25.219  27.968  -2.440  0.00  0.00     0.209 HD
ENDBRANCH   8   9
ENDBRANCH   1   8
BRANCH   3  11
HETATM   11  O   UNK N   1      24.542  26.964  -5.599  0.00  0.00    -0.390 OA
HETATM   12  H   UNK N   1      23.692  27.135  -5.163  0.00  0.00     0.210 HD
ENDBRANCH   3  11
BRANCH   4  13
HETATM   13  O   UNK N   1      25.300  24.998  -7.414  0.00  0.00    -0.390 OA
HETATM   14  H   UNK N   1      24.345  24.882  -7.297  0.00  0.00     0.210 HD
ENDBRANCH   4  13
BRANCH   5  15
HETATM   15  O   UNK N   1      26.499  23.947  -2.892  0.00  0.00    -0.368 OA
HETATM   16  H   UNK N   1      25.765  23.982  -2.261  0.00  0.00     0.212 HD
ENDBRANCH   5  15
TORSDOF 5
ENDMDL
MODEL 9
REMARK VINA RESULT:      -4.5     17.272     19.014
REMARK  5 active torsions:
REMARK  status: ('A' for Active; 'I' for Inactive)
REMARK    1  A    between atoms: C_2  and  C_1 
REMARK    2  A    between atoms: O_8  and  C_1 
REMARK    3  A    between atoms: C_4  and  O_9 
REMARK    4  A    between atoms: C_5  and  O_10 
REMARK    5  A    between atoms: C_6  and  O_11 
ROOT
HETATM    1  C   UNK N   1      35.091  12.539  12.735  0.00  0.00     0.179 C 
HETATM    2  C   UNK N   1      36.369  14.533  11.113  0.00  0.00     0.256 C 
HETATM    3  C   UNK N   1      36.636  12.558  12.636  0.00  0.00     0.180 C 
HETATM    4  C   UNK N   1      37.041  13.165  11.284  0.00  0.00     0.188 C 
HETATM    5  C   UNK N   1      34.854  14.356  11.293  0.00  0.00     0.294 C 
HETATM    6  F   UNK N   1      36.648  15.043   9.856  0.00  0.00    -0.241 F 
HETATM    7  O   UNK N   1      34.569  13.852  12.587  0.00  0.00    -0.348 OA
ENDROOT
BRANCH   1   8
HETATM    8  C   UNK N   1      34.636  12.002  14.089  0.00  0.00     0.198 C 
BRANCH   8   9
HETATM    9  O   UNK N   1      34.446  13.043  14.999  0.00  0.00    -0.398 OA
HETATM   10  H   UNK N   1      35.096  13.592  15.464  0.00  0.00     0.209 HD
ENDBRANCH   8   9
ENDBRANCH   1   8
BRANCH   3  11
HETATM   11  O   UNK N   1      37.171  13.322  13.680  0.00  0.00    -0.390 OA
HETATM   12  H   UNK N   1      37.433  13.669  14.547  0.00  0.00     0.210 HD
ENDBRANCH   3  11
BRANCH   4  13
HETATM   13  O   UNK N   1      38.430  13.291  11.201  0.00  0.00    -0.390 OA
HETATM   14  H   UNK N   1      39.019  12.640  11.612  0.00  0.00     0.210 HD
ENDBRANCH   4  13
BRANCH   5  15
HETATM   15  O   UNK N   1      34.226  15.595  11.147  0.00  0.00    -0.368 OA
HETATM   16  H   UNK N   1      33.392  15.887  11.546  0.00  0.00     0.212 HD
ENDBRANCH   5  15
TORSDOF 5
ENDMDL
