MODEL 1
REMARK VINA RESULT:      -6.2      0.000      0.000
REMARK  9 active torsions:
REMARK  status: ('A' for Active; 'I' for Inactive)
REMARK    1  A    between atoms: C_6  and  C_1 
REMARK    2  A    between atoms: C_8  and  C_1 
REMARK    3  A    between atoms: C_9  and  C_3 
REMARK    4  A    between atoms: N_18  and  C_3 
REMARK    5  A    between atoms: C_7  and  C_4 
REMARK    6  A    between atoms: O_19  and  C_4 
REMARK    7  A    between atoms: C_10  and  C_7 
REMARK    8  A    between atoms: C_7  and  N_12 
REMARK    9  A    between atoms: O_21  and  C_9 
ROOT
HETATM    1  C   UNK N   1      34.808  15.148  11.048  0.00  0.00     0.081 A 
HETATM    2  C   UNK N   1      33.111  15.128   9.541  0.00  0.00     0.212 A 
HETATM    3  C   UNK N   1      34.792  16.424  10.376  0.00  0.00     0.268 A 
HETATM    4  N   UNK N   1      33.861  14.421  10.579  0.00  0.00    -0.365 N 
ATOM      5  HN  UNK N   1      33.658  13.471  10.891  1.00  0.00     0.161 HD
HETATM    6  N   UNK N   1      33.794  16.417   9.478  0.00  0.00    -0.314 N 
HETATM    7  O   UNK N   1      35.527  17.375  10.587  0.00  0.00    -0.266 OA
ENDROOT
BRANCH   1   8
HETATM    8  C   UNK N   1      35.695  14.667  12.168  0.00  0.00     0.121 C 
BRANCH   8   9
HETATM    9  C   UNK N   1      36.720  13.646  11.787  0.00  0.00     0.031 A 
HETATM   10  C   UNK N   1      36.779  12.347  12.231  0.00  0.00     0.114 A 
HETATM   11  N   UNK N   1      37.817  11.753  11.615  0.00  0.00    -0.360 N 
HETATM   12  C   UNK N   1      38.356  12.691  10.806  0.00  0.00     0.180 A 
ATOM     13  HN  UNK N   1      38.133  10.790  11.734  1.00  0.00     0.166 HD
HETATM   14  N   UNK N   1      37.695  13.863  10.892  0.00  0.00    -0.354 N 
HETATM   15  H   UNK N   1      37.886  14.696  10.404  0.00  0.00     0.166 HD
ENDBRANCH   8   9
ENDBRANCH   1   8
BRANCH   6  16
HETATM   16  C   UNK N   1      33.351  17.544   8.674  0.00  0.00     0.238 C 
BRANCH  16  17
HETATM   17  C   UNK N   1      34.441  18.157   7.846  0.00  0.00     0.158 C 
HETATM   18  O   UNK N   1      34.563  17.849   6.673  0.00  0.00    -0.649 OA
BRANCH  17  19
HETATM   19  O   UNK N   1      35.210  19.134   8.363  0.00  0.00    -0.775 OA
HETATM   20  H   UNK N   1      35.003  19.502   9.200  0.00  0.00     0.167 HD
ENDBRANCH  17  19
ENDBRANCH  16  17
ENDBRANCH   6  16
BRANCH   2  21
HETATM   21  C   UNK N   1      33.143  14.350   8.208  0.00  0.00     0.140 C 
BRANCH  21  22
HETATM   22  C   UNK N   1      33.393  12.858   8.438  0.00  0.00     0.192 C 
BRANCH  22  23
HETATM   23  O   UNK N   1      32.396  12.290   9.235  0.00  0.00    -0.399 OA
HETATM   24  H   UNK N   1      31.641  12.805   9.560  0.00  0.00     0.209 HD
ENDBRANCH  22  23
ENDBRANCH  21  22
BRANCH  21  25
HETATM   25  N   UNK N   1      31.866  14.482   7.528  0.00  0.00    -0.421 N 
HETATM   26  H   UNK N   1      31.415  15.393   7.443  0.00  0.00     0.150 HD
HETATM   27  H   UNK N   1      31.416  13.657   7.131  0.00  0.00     0.150 HD
ENDBRANCH  21  25
ENDBRANCH   2  21
TORSDOF 9
ENDMDL
MODEL 2
REMARK VINA RESULT:      -6.0      1.864      2.166
REMARK  9 active torsions:
REMARK  status: ('A' for Active; 'I' for Inactive)
REMARK    1  A    between atoms: C_6  and  C_1 
REMARK    2  A    between atoms: C_8  and  C_1 
REMARK    3  A    between atoms: C_9  and  C_3 
REMARK    4  A    between atoms: N_18  and  C_3 
REMARK    5  A    between atoms: C_7  and  C_4 
REMARK    6  A    between atoms: O_19  and  C_4 
REMARK    7  A    between atoms: C_10  and  C_7 
REMARK    8  A    between atoms: C_7  and  N_12 
REMARK    9  A    between atoms: O_21  and  C_9 
ROOT
HETATM    1  C   UNK N   1      35.139  14.360  10.022  0.00  0.00     0.081 A 
HETATM    2  C   UNK N   1      33.377  14.916   8.702  0.00  0.00     0.212 A 
HETATM    3  C   UNK N   1      35.096  15.798   9.915  0.00  0.00     0.268 A 
HETATM    4  N   UNK N   1      34.171  13.866   9.342  0.00  0.00    -0.365 N 
ATOM      5  HN  UNK N   1      33.980  12.867   9.257  1.00  0.00     0.161 HD
HETATM    6  N   UNK N   1      34.060  16.133   9.130  0.00  0.00    -0.314 N 
HETATM    7  O   UNK N   1      35.842  16.598  10.457  0.00  0.00    -0.266 OA
ENDROOT
BRANCH   1   8
HETATM    8  C   UNK N   1      36.073  13.487  10.820  0.00  0.00     0.121 C 
BRANCH   8   9
HETATM    9  C   UNK N   1      36.018  13.667  12.303  0.00  0.00     0.031 A 
HETATM   10  C   UNK N   1      35.309  12.894  13.192  0.00  0.00     0.114 A 
HETATM   11  N   UNK N   1      35.567  13.356  14.429  0.00  0.00    -0.360 N 
HETATM   12  C   UNK N   1      36.429  14.383  14.270  0.00  0.00     0.180 A 
ATOM     13  HN  UNK N   1      35.188  13.003  15.308  1.00  0.00     0.166 HD
HETATM   14  N   UNK N   1      36.725  14.590  12.971  0.00  0.00    -0.354 N 
HETATM   15  H   UNK N   1      37.328  15.272  12.595  0.00  0.00     0.166 HD
ENDBRANCH   8   9
ENDBRANCH   1   8
BRANCH   6  16
HETATM   16  C   UNK N   1      33.585  17.481   8.861  0.00  0.00     0.238 C 
BRANCH  16  17
HETATM   17  C   UNK N   1      34.507  18.280   7.989  0.00  0.00     0.158 C 
HETATM   18  O   UNK N   1      34.446  18.173   6.776  0.00  0.00    -0.649 OA
BRANCH  17  19
HETATM   19  O   UNK N   1      35.319  19.203   8.538  0.00  0.00    -0.775 OA
HETATM   20  H   UNK N   1      36.213  18.993   8.724  0.00  0.00     0.167 HD
ENDBRANCH  17  19
ENDBRANCH  16  17
ENDBRANCH   6  16
BRANCH   2  21
HETATM   21  C   UNK N   1      33.350  14.732   7.170  0.00  0.00     0.140 C 
BRANCH  21  22
HETATM   22  C   UNK N   1      34.741  14.414   6.620  0.00  0.00     0.192 C 
BRANCH  22  23
HETATM   23  O   UNK N   1      35.316  15.529   6.005  0.00  0.00    -0.399 OA
HETATM   24  H   UNK N   1      36.143  15.923   6.323  0.00  0.00     0.209 HD
ENDBRANCH  22  23
ENDBRANCH  21  22
BRANCH  21  25
HETATM   25  N   UNK N   1      32.475  13.626   6.821  0.00  0.00    -0.421 N 
HETATM   26  H   UNK N   1      32.679  12.680   7.144  0.00  0.00     0.150 HD
HETATM   27  H   UNK N   1      31.649  13.796   6.247  0.00  0.00     0.150 HD
ENDBRANCH  21  25
ENDBRANCH   2  21
TORSDOF 9
ENDMDL
MODEL 3
REMARK VINA RESULT:      -5.9     11.529     13.934
REMARK  9 active torsions:
REMARK  status: ('A' for Active; 'I' for Inactive)
REMARK    1  A    between atoms: C_6  and  C_1 
REMARK    2  A    between atoms: C_8  and  C_1 
REMARK    3  A    between atoms: C_9  and  C_3 
REMARK    4  A    between atoms: N_18  and  C_3 
REMARK    5  A    between atoms: C_7  and  C_4 
REMARK    6  A    between atoms: O_19  and  C_4 
REMARK    7  A    between atoms: C_10  and  C_7 
REMARK    8  A    between atoms: C_7  and  N_12 
REMARK    9  A    between atoms: O_21  and  C_9 
ROOT
HETATM    1  C   UNK N   1      24.376  19.170   3.851  0.00  0.00     0.081 A 
HETATM    2  C   UNK N   1      22.149  18.763   4.019  0.00  0.00     0.212 A 
HETATM    3  C   UNK N   1      23.682  20.133   3.031  0.00  0.00     0.268 A 
HETATM    4  N   UNK N   1      23.513  18.402   4.407  0.00  0.00    -0.365 N 
ATOM      5  HN  UNK N   1      23.748  17.636   5.039  1.00  0.00     0.161 HD
HETATM    6  N   UNK N   1      22.364  19.893   3.121  0.00  0.00    -0.314 N 
HETATM    7  O   UNK N   1      24.179  21.038   2.381  0.00  0.00    -0.266 OA
ENDROOT
BRANCH   1   8
HETATM    8  C   UNK N   1      25.851  19.037   4.131  0.00  0.00     0.121 C 
BRANCH   8   9
HETATM    9  C   UNK N   1      26.394  19.951   5.183  0.00  0.00     0.031 A 
HETATM   10  C   UNK N   1      27.570  20.660   5.119  0.00  0.00     0.114 A 
HETATM   11  N   UNK N   1      27.665  21.395   6.242  0.00  0.00    -0.360 N 
HETATM   12  C   UNK N   1      26.549  21.129   6.955  0.00  0.00     0.180 A 
ATOM     13  HN  UNK N   1      28.425  22.023   6.502  1.00  0.00     0.166 HD
HETATM   14  N   UNK N   1      25.750  20.246   6.322  0.00  0.00    -0.354 N 
HETATM   15  H   UNK N   1      24.883  19.896   6.629  0.00  0.00     0.166 HD
ENDBRANCH   8   9
ENDBRANCH   1   8
BRANCH   6  16
HETATM   16  C   UNK N   1      21.302  20.705   2.550  0.00  0.00     0.238 C 
BRANCH  16  17
HETATM   17  C   UNK N   1      20.968  20.349   1.133  0.00  0.00     0.158 C 
HETATM   18  O   UNK N   1      21.417  21.013   0.214  0.00  0.00    -0.649 OA
BRANCH  17  19
HETATM   19  O   UNK N   1      20.273  19.227   0.867  0.00  0.00    -0.775 OA
HETATM   20  H   UNK N   1      20.415  18.764   0.065  0.00  0.00     0.167 HD
ENDBRANCH  17  19
ENDBRANCH  16  17
ENDBRANCH   6  16
BRANCH   2  21
HETATM   21  C   UNK N   1      21.432  17.572   3.347  0.00  0.00     0.140 C 
BRANCH  21  22
HETATM   22  C   UNK N   1      21.955  16.235   3.874  0.00  0.00     0.192 C 
BRANCH  22  23
HETATM   23  O   UNK N   1      22.927  15.696   3.027  0.00  0.00    -0.399 OA
HETATM   24  H   UNK N   1      23.725  15.265   3.369  0.00  0.00     0.209 HD
ENDBRANCH  22  23
ENDBRANCH  21  22
BRANCH  21  25
HETATM   25  N   UNK N   1      20.008  17.630   3.631  0.00  0.00    -0.421 N 
HETATM   26  H   UNK N   1      19.610  18.423   4.134  0.00  0.00     0.150 HD
HETATM   27  H   UNK N   1      19.400  16.870   3.325  0.00  0.00     0.150 HD
ENDBRANCH  21  25
ENDBRANCH   2  21
TORSDOF 9
ENDMDL
MODEL 4
REMARK VINA RESULT:      -5.8     14.158     15.745
REMARK  9 active torsions:
REMARK  status: ('A' for Active; 'I' for Inactive)
REMARK    1  A    between atoms: C_6  and  C_1 
REMARK    2  A    between atoms: C_8  and  C_1 
REMARK    3  A    between atoms: C_9  and  C_3 
REMARK    4  A    between atoms: N_18  and  C_3 
REMARK    5  A    between atoms: C_7  and  C_4 
REMARK    6  A    between atoms: O_19  and  C_4 
REMARK    7  A    between atoms: C_10  and  C_7 
REMARK    8  A    between atoms: C_7  and  N_12 
REMARK    9  A    between atoms: O_21  and  C_9 
ROOT
HETATM    1  C   UNK N   1      21.287  17.097   4.604  0.00  0.00     0.081 A 
HETATM    2  C   UNK N   1      19.809  17.244   2.887  0.00  0.00     0.212 A 
HETATM    3  C   UNK N   1      21.268  18.465   4.146  0.00  0.00     0.268 A 
HETATM    4  N   UNK N   1      20.465  16.412   3.897  0.00  0.00    -0.365 N 
ATOM      5  HN  UNK N   1      20.291  15.415   4.023  1.00  0.00     0.161 HD
HETATM    6  N   UNK N   1      20.401  18.557   3.125  0.00  0.00    -0.314 N 
HETATM    7  O   UNK N   1      21.899  19.402   4.606  0.00  0.00    -0.266 OA
ENDROOT
BRANCH   1   8
HETATM    8  C   UNK N   1      22.051  16.481   5.748  0.00  0.00     0.121 C 
BRANCH   8   9
HETATM    9  C   UNK N   1      21.292  16.336   7.028  0.00  0.00     0.031 A 
HETATM   10  C   UNK N   1      21.380  15.287   7.913  0.00  0.00     0.114 A 
HETATM   11  N   UNK N   1      20.576  15.566   8.956  0.00  0.00    -0.360 N 
HETATM   12  C   UNK N   1      20.030  16.772   8.692  0.00  0.00     0.180 A 
ATOM     13  HN  UNK N   1      20.412  14.984   9.777  1.00  0.00     0.166 HD
HETATM   14  N   UNK N   1      20.459  17.268   7.514  0.00  0.00    -0.354 N 
HETATM   15  H   UNK N   1      20.214  18.127   7.100  0.00  0.00     0.166 HD
ENDBRANCH   8   9
ENDBRANCH   1   8
BRANCH   6  16
HETATM   16  C   UNK N   1      19.988  19.779   2.455  0.00  0.00     0.238 C 
BRANCH  16  17
HETATM   17  C   UNK N   1      20.901  20.189   1.338  0.00  0.00     0.158 C 
HETATM   18  O   UNK N   1      21.950  20.759   1.585  0.00  0.00    -0.649 OA
BRANCH  17  19
HETATM   19  O   UNK N   1      20.622  19.823   0.073  0.00  0.00    -0.775 OA
HETATM   20  H   UNK N   1      21.283  19.424  -0.458  0.00  0.00     0.167 HD
ENDBRANCH  17  19
ENDBRANCH  16  17
ENDBRANCH   6  16
BRANCH   2  21
HETATM   21  C   UNK N   1      20.073  16.700   1.466  0.00  0.00     0.140 C 
BRANCH  21  22
HETATM   22  C   UNK N   1      20.104  15.170   1.451  0.00  0.00     0.192 C 
BRANCH  22  23
HETATM   23  O   UNK N   1      18.905  14.629   1.923  0.00  0.00    -0.399 OA
HETATM   24  H   UNK N   1      18.430  15.013   2.676  0.00  0.00     0.209 HD
ENDBRANCH  22  23
ENDBRANCH  21  22
BRANCH  21  25
HETATM   25  N   UNK N   1      19.013  17.128   0.569  0.00  0.00    -0.421 N 
HETATM   26  H   UNK N   1      18.049  17.189   0.896  0.00  0.00     0.150 HD
HETATM   27  H   UNK N   1      19.235  17.369  -0.397  0.00  0.00     0.150 HD
ENDBRANCH  21  25
ENDBRANCH   2  21
TORSDOF 9
ENDMDL
MODEL 5
REMARK VINA RESULT:      -5.7     14.382     16.041
REMARK  9 active torsions:
REMARK  status: ('A' for Active; 'I' for Inactive)
REMARK    1  A    between atoms: C_6  and  C_1 
REMARK    2  A    between atoms: C_8  and  C_1 
REMARK    3  A    between atoms: C_9  and  C_3 
REMARK    4  A    between atoms: N_18  and  C_3 
REMARK    5  A    between atoms: C_7  and  C_4 
REMARK    6  A    between atoms: O_19  and  C_4 
REMARK    7  A    between atoms: C_10  and  C_7 
REMARK    8  A    between atoms: C_7  and  N_12 
REMARK    9  A    between atoms: O_21  and  C_9 
ROOT
HETATM    1  C   UNK N   1      21.767  17.441   5.407  0.00  0.00     0.081 A 
HETATM    2  C   UNK N   1      21.137  15.506   6.416  0.00  0.00     0.212 A 
HETATM    3  C   UNK N   1      21.147  17.773   6.666  0.00  0.00     0.268 A 
HETATM    4  N   UNK N   1      21.763  16.166   5.269  0.00  0.00    -0.365 N 
ATOM      5  HN  UNK N   1      22.147  15.675   4.461  1.00  0.00     0.161 HD
HETATM    6  N   UNK N   1      20.766  16.634   7.265  0.00  0.00    -0.314 N 
HETATM    7  O   UNK N   1      21.006  18.888   7.143  0.00  0.00    -0.266 OA
ENDROOT
BRANCH   1   8
HETATM    8  C   UNK N   1      22.403  18.346   4.384  0.00  0.00     0.121 C 
BRANCH   8   9
HETATM    9  C   UNK N   1      21.459  19.020   3.441  0.00  0.00     0.031 A 
HETATM   10  C   UNK N   1      20.227  18.553   3.048  0.00  0.00     0.114 A 
HETATM   11  N   UNK N   1      19.680  19.477   2.237  0.00  0.00    -0.360 N 
HETATM   12  C   UNK N   1      20.577  20.484   2.164  0.00  0.00     0.180 A 
ATOM     13  HN  UNK N   1      18.774  19.427   1.772  1.00  0.00     0.166 HD
HETATM   14  N   UNK N   1      21.677  20.227   2.900  0.00  0.00    -0.354 N 
HETATM   15  H   UNK N   1      22.469  20.802   3.014  0.00  0.00     0.166 HD
ENDBRANCH   8   9
ENDBRANCH   1   8
BRANCH   6  16
HETATM   16  C   UNK N   1      20.213  16.509   8.603  0.00  0.00     0.238 C 
BRANCH  16  17
HETATM   17  C   UNK N   1      18.848  17.112   8.748  0.00  0.00     0.158 C 
HETATM   18  O   UNK N   1      17.858  16.454   8.477  0.00  0.00    -0.649 OA
BRANCH  17  19
HETATM   19  O   UNK N   1      18.708  18.336   9.291  0.00  0.00    -0.775 OA
HETATM   20  H   UNK N   1      17.854  18.702   9.414  0.00  0.00     0.167 HD
ENDBRANCH  17  19
ENDBRANCH  16  17
ENDBRANCH   6  16
BRANCH   2  21
HETATM   21  C   UNK N   1      19.934  14.648   5.971  0.00  0.00     0.140 C 
BRANCH  21  22
HETATM   22  C   UNK N   1      19.374  15.124   4.630  0.00  0.00     0.192 C 
BRANCH  22  23
HETATM   23  O   UNK N   1      18.470  16.177   4.796  0.00  0.00    -0.399 OA
HETATM   24  H   UNK N   1      17.581  16.157   4.409  0.00  0.00     0.209 HD
ENDBRANCH  22  23
ENDBRANCH  21  22
BRANCH  21  25
HETATM   25  N   UNK N   1      20.346  13.264   5.810  0.00  0.00    -0.421 N 
HETATM   26  H   UNK N   1      19.755  12.504   6.146  0.00  0.00     0.150 HD
HETATM   27  H   UNK N   1      21.236  13.052   5.358  0.00  0.00     0.150 HD
ENDBRANCH  21  25
ENDBRANCH   2  21
TORSDOF 9
ENDMDL
MODEL 6
REMARK VINA RESULT:      -5.7      5.333      8.838
REMARK  9 active torsions:
REMARK  status: ('A' for Active; 'I' for Inactive)
REMARK    1  A    between atoms: C_6  and  C_1 
REMARK    2  A    between atoms: C_8  and  C_1 
REMARK    3  A    between atoms: C_9  and  C_3 
REMARK    4  A    between atoms: N_18  and  C_3 
REMARK    5  A    between atoms: C_7  and  C_4 
REMARK    6  A    between atoms: O_19  and  C_4 
REMARK    7  A    between atoms: C_10  and  C_7 
REMARK    8  A    between atoms: C_7  and  N_12 
REMARK    9  A    between atoms: O_21  and  C_9 
ROOT
HETATM    1  C   UNK N   1      29.558  17.198   5.443  0.00  0.00     0.081 A 
HETATM    2  C   UNK N   1      29.942  17.027   7.674  0.00  0.00     0.212 A 
HETATM    3  C   UNK N   1      30.982  17.095   5.645  0.00  0.00     0.268 A 
HETATM    4  N   UNK N   1      28.974  17.158   6.584  0.00  0.00    -0.365 N 
ATOM      5  HN  UNK N   1      27.963  17.211   6.714  1.00  0.00     0.161 HD
HETATM    6  N   UNK N   1      31.217  17.000   6.964  0.00  0.00    -0.314 N 
HETATM    7  O   UNK N   1      31.846  17.066   4.784  0.00  0.00    -0.266 OA
ENDROOT
BRANCH   1   8
HETATM    8  C   UNK N   1      28.777  17.278   4.156  0.00  0.00     0.121 C 
BRANCH   8   9
HETATM    9  C   UNK N   1      27.719  18.333   4.107  0.00  0.00     0.031 A 
HETATM   10  C   UNK N   1      26.377  18.154   4.348  0.00  0.00     0.114 A 
HETATM   11  N   UNK N   1      25.781  19.356   4.251  0.00  0.00    -0.360 N 
HETATM   12  C   UNK N   1      26.765  20.236   3.966  0.00  0.00     0.180 A 
ATOM     13  HN  UNK N   1      24.789  19.561   4.366  1.00  0.00     0.166 HD
HETATM   14  N   UNK N   1      27.966  19.631   3.877  0.00  0.00    -0.354 N 
HETATM   15  H   UNK N   1      28.836  20.050   3.686  0.00  0.00     0.166 HD
ENDBRANCH   8   9
ENDBRANCH   1   8
BRANCH   6  16
HETATM   16  C   UNK N   1      32.504  16.756   7.593  0.00  0.00     0.238 C 
BRANCH  16  17
HETATM   17  C   UNK N   1      33.452  17.913   7.490  0.00  0.00     0.158 C 
HETATM   18  O   UNK N   1      33.536  18.717   8.404  0.00  0.00    -0.649 OA
BRANCH  17  19
HETATM   19  O   UNK N   1      34.296  18.000   6.445  0.00  0.00    -0.775 OA
HETATM   20  H   UNK N   1      34.204  18.694   5.822  0.00  0.00     0.167 HD
ENDBRANCH  17  19
ENDBRANCH  16  17
ENDBRANCH   6  16
BRANCH   2  21
HETATM   21  C   UNK N   1      29.817  18.202   8.668  0.00  0.00     0.140 C 
BRANCH  21  22
HETATM   22  C   UNK N   1      28.437  18.857   8.588  0.00  0.00     0.192 C 
BRANCH  22  23
HETATM   23  O   UNK N   1      27.485  18.137   9.314  0.00  0.00    -0.399 OA
HETATM   24  H   UNK N   1      26.613  17.923   8.948  0.00  0.00     0.209 HD
ENDBRANCH  22  23
ENDBRANCH  21  22
BRANCH  21  25
HETATM   25  N   UNK N   1      29.996  17.719  10.027  0.00  0.00    -0.421 N 
HETATM   26  H   UNK N   1      29.190  17.483  10.605  0.00  0.00     0.150 HD
HETATM   27  H   UNK N   1      30.938  17.616  10.406  0.00  0.00     0.150 HD
ENDBRANCH  21  25
ENDBRANCH   2  21
TORSDOF 9
ENDMDL
MODEL 7
REMARK VINA RESULT:      -5.6      3.024      7.162
REMARK  9 active torsions:
REMARK  status: ('A' for Active; 'I' for Inactive)
REMARK    1  A    between atoms: C_6  and  C_1 
REMARK    2  A    between atoms: C_8  and  C_1 
REMARK    3  A    between atoms: C_9  and  C_3 
REMARK    4  A    between atoms: N_18  and  C_3 
REMARK    5  A    between atoms: C_7  and  C_4 
REMARK    6  A    between atoms: O_19  and  C_4 
REMARK    7  A    between atoms: C_10  and  C_7 
REMARK    8  A    between atoms: C_7  and  N_12 
REMARK    9  A    between atoms: O_21  and  C_9 
ROOT
HETATM    1  C   UNK N   1      31.583  16.565   7.484  0.00  0.00     0.081 A 
HETATM    2  C   UNK N   1      33.267  16.226   8.969  0.00  0.00     0.212 A 
HETATM    3  C   UNK N   1      32.246  15.332   7.136  0.00  0.00     0.268 A 
HETATM    4  N   UNK N   1      32.156  17.066   8.516  0.00  0.00    -0.365 N 
ATOM      5  HN  UNK N   1      31.874  17.938   8.963  1.00  0.00     0.161 HD
HETATM    6  N   UNK N   1      33.247  15.129   8.006  0.00  0.00    -0.314 N 
HETATM    7  O   UNK N   1      31.951  14.570   6.229  0.00  0.00    -0.266 OA
ENDROOT
BRANCH   1   8
HETATM    8  C   UNK N   1      30.376  17.214   6.856  0.00  0.00     0.121 C 
BRANCH   8   9
HETATM    9  C   UNK N   1      29.325  17.684   7.809  0.00  0.00     0.031 A 
HETATM   10  C   UNK N   1      28.522  18.789   7.656  0.00  0.00     0.114 A 
HETATM   11  N   UNK N   1      27.681  18.830   8.706  0.00  0.00    -0.360 N 
HETATM   12  C   UNK N   1      27.980  17.752   9.463  0.00  0.00     0.180 A 
ATOM     13  HN  UNK N   1      26.965  19.532   8.893  1.00  0.00     0.166 HD
HETATM   14  N   UNK N   1      28.985  17.030   8.929  0.00  0.00    -0.354 N 
HETATM   15  H   UNK N   1      29.383  16.202   9.284  0.00  0.00     0.166 HD
ENDBRANCH   8   9
ENDBRANCH   1   8
BRANCH   6  16
HETATM   16  C   UNK N   1      34.088  13.946   8.090  0.00  0.00     0.238 C 
BRANCH  16  17
HETATM   17  C   UNK N   1      33.723  13.028   9.218  0.00  0.00     0.158 C 
HETATM   18  O   UNK N   1      34.512  12.835  10.127  0.00  0.00    -0.649 OA
BRANCH  17  19
HETATM   19  O   UNK N   1      32.482  12.512   9.290  0.00  0.00    -0.775 OA
HETATM   20  H   UNK N   1      32.357  11.622   9.555  0.00  0.00     0.167 HD
ENDBRANCH  17  19
ENDBRANCH  16  17
ENDBRANCH   6  16
BRANCH   2  21
HETATM   21  C   UNK N   1      34.592  17.018   8.973  0.00  0.00     0.140 C 
BRANCH  21  22
HETATM   22  C   UNK N   1      34.452  18.346   8.227  0.00  0.00     0.192 C 
BRANCH  22  23
HETATM   23  O   UNK N   1      35.431  19.261   8.623  0.00  0.00    -0.399 OA
HETATM   24  H   UNK N   1      35.807  19.257   9.517  0.00  0.00     0.209 HD
ENDBRANCH  22  23
ENDBRANCH  21  22
BRANCH  21  25
HETATM   25  N   UNK N   1      34.983  17.319  10.340  0.00  0.00    -0.421 N 
HETATM   26  H   UNK N   1      35.813  16.890  10.749  0.00  0.00     0.150 HD
HETATM   27  H   UNK N   1      34.422  17.965  10.895  0.00  0.00     0.150 HD
ENDBRANCH  21  25
ENDBRANCH   2  21
TORSDOF 9
ENDMDL
MODEL 8
REMARK VINA RESULT:      -5.4      2.802      6.229
REMARK  9 active torsions:
REMARK  status: ('A' for Active; 'I' for Inactive)
REMARK    1  A    between atoms: C_6  and  C_1 
REMARK    2  A    between atoms: C_8  and  C_1 
REMARK    3  A    between atoms: C_9  and  C_3 
REMARK    4  A    between atoms: N_18  and  C_3 
REMARK    5  A    between atoms: C_7  and  C_4 
REMARK    6  A    between atoms: O_19  and  C_4 
REMARK    7  A    between atoms: C_10  and  C_7 
REMARK    8  A    between atoms: C_7  and  N_12 
REMARK    9  A    between atoms: O_21  and  C_9 
ROOT
HETATM    1  C   UNK N   1      32.737  17.364   8.377  0.00  0.00     0.081 A 
HETATM    2  C   UNK N   1      33.591  15.294   8.751  0.00  0.00     0.212 A 
HETATM    3  C   UNK N   1      33.784  17.131   7.413  0.00  0.00     0.268 A 
HETATM    4  N   UNK N   1      32.627  16.330   9.127  0.00  0.00    -0.365 N 
ATOM      5  HN  UNK N   1      31.955  16.242   9.889  1.00  0.00     0.161 HD
HETATM    6  N   UNK N   1      34.298  15.911   7.633  0.00  0.00    -0.314 N 
HETATM    7  O   UNK N   1      34.142  17.883   6.522  0.00  0.00    -0.266 OA
ENDROOT
BRANCH   1   8
HETATM    8  C   UNK N   1      31.821  18.551   8.527  0.00  0.00     0.121 C 
BRANCH   8   9
HETATM    9  C   UNK N   1      30.369  18.232   8.690  0.00  0.00     0.031 A 
HETATM   10  C   UNK N   1      29.565  18.604   9.741  0.00  0.00     0.114 A 
HETATM   11  N   UNK N   1      28.322  18.162   9.480  0.00  0.00    -0.360 N 
HETATM   12  C   UNK N   1      28.391  17.545   8.280  0.00  0.00     0.180 A 
ATOM     13  HN  UNK N   1      27.495  18.269  10.068  1.00  0.00     0.166 HD
HETATM   14  N   UNK N   1      29.640  17.579   7.773  0.00  0.00    -0.354 N 
HETATM   15  H   UNK N   1      29.948  17.206   6.915  0.00  0.00     0.166 HD
ENDBRANCH   8   9
ENDBRANCH   1   8
BRANCH   6  16
HETATM   16  C   UNK N   1      35.289  15.234   6.813  0.00  0.00     0.238 C 
BRANCH  16  17
HETATM   17  C   UNK N   1      34.716  14.594   5.583  0.00  0.00     0.158 C 
HETATM   18  O   UNK N   1      34.498  13.395   5.564  0.00  0.00    -0.649 OA
BRANCH  17  19
HETATM   19  O   UNK N   1      34.331  15.360   4.545  0.00  0.00    -0.775 OA
HETATM   20  H   UNK N   1      34.536  16.274   4.533  0.00  0.00     0.167 HD
ENDBRANCH  17  19
ENDBRANCH  16  17
ENDBRANCH   6  16
BRANCH   2  21
HETATM   21  C   UNK N   1      34.510  14.937   9.939  0.00  0.00     0.140 C 
BRANCH  21  22
HETATM   22  C   UNK N   1      35.544  16.035  10.195  0.00  0.00     0.192 C 
BRANCH  22  23
HETATM   23  O   UNK N   1      35.014  17.065  10.976  0.00  0.00    -0.399 OA
HETATM   24  H   UNK N   1      35.540  17.519  11.652  0.00  0.00     0.209 HD
ENDBRANCH  22  23
ENDBRANCH  21  22
BRANCH  21  25
HETATM   25  N   UNK N   1      33.718  14.787  11.148  0.00  0.00    -0.421 N 
HETATM   26  H   UNK N   1      33.267  13.899  11.367  0.00  0.00     0.150 HD
HETATM   27  H   UNK N   1      33.613  15.577  11.784  0.00  0.00     0.150 HD
ENDBRANCH  21  25
ENDBRANCH   2  21
TORSDOF 9
ENDMDL
MODEL 9
REMARK VINA RESULT:      -5.3      3.332      4.600
REMARK  9 active torsions:
REMARK  status: ('A' for Active; 'I' for Inactive)
REMARK    1  A    between atoms: C_6  and  C_1 
REMARK    2  A    between atoms: C_8  and  C_1 
REMARK    3  A    between atoms: C_9  and  C_3 
REMARK    4  A    between atoms: N_18  and  C_3 
REMARK    5  A    between atoms: C_7  and  C_4 
REMARK    6  A    between atoms: O_19  and  C_4 
REMARK    7  A    between atoms: C_10  and  C_7 
REMARK    8  A    between atoms: C_7  and  N_12 
REMARK    9  A    between atoms: O_21  and  C_9 
ROOT
HETATM    1  C   UNK N   1      36.335  12.720  13.357  0.00  0.00     0.081 A 
HETATM    2  C   UNK N   1      35.204  12.848  11.392  0.00  0.00     0.212 A 
HETATM    3  C   UNK N   1      36.064  14.111  13.086  0.00  0.00     0.268 A 
HETATM    4  N   UNK N   1      35.850  12.011  12.405  0.00  0.00    -0.365 N 
ATOM      5  HN  UNK N   1      35.908  10.993  12.359  1.00  0.00     0.161 HD
HETATM    6  N   UNK N   1      35.401  14.194  11.922  0.00  0.00    -0.314 N 
HETATM    7  O   UNK N   1      36.349  15.065  13.791  0.00  0.00    -0.266 OA
ENDROOT
BRANCH   1   8
HETATM    8  C   UNK N   1      37.006  12.090  14.550  0.00  0.00     0.121 C 
BRANCH   8   9
HETATM    9  C   UNK N   1      36.223  12.119  15.823  0.00  0.00     0.031 A 
HETATM   10  C   UNK N   1      35.986  11.054  16.659  0.00  0.00     0.114 A 
HETATM   11  N   UNK N   1      35.287  11.511  17.714  0.00  0.00    -0.360 N 
HETATM   12  C   UNK N   1      35.124  12.835  17.506  0.00  0.00     0.180 A 
ATOM     13  HN  UNK N   1      34.948  10.968  18.508  1.00  0.00     0.166 HD
HETATM   14  N   UNK N   1      35.695  13.233  16.351  0.00  0.00    -0.354 N 
HETATM   15  H   UNK N   1      35.720  14.144  15.977  0.00  0.00     0.166 HD
ENDBRANCH   8   9
ENDBRANCH   1   8
BRANCH   6  16
HETATM   16  C   UNK N   1      34.829  15.398  11.342  0.00  0.00     0.238 C 
BRANCH  16  17
HETATM   17  C   UNK N   1      35.848  16.315  10.734  0.00  0.00     0.158 C 
HETATM   18  O   UNK N   1      35.501  17.380  10.254  0.00  0.00    -0.649 OA
BRANCH  17  19
HETATM   19  O   UNK N   1      37.158  16.018  10.824  0.00  0.00    -0.775 OA
HETATM   20  H   UNK N   1      37.429  15.183  11.153  0.00  0.00     0.167 HD
ENDBRANCH  17  19
ENDBRANCH  16  17
ENDBRANCH   6  16
BRANCH   2  21
HETATM   21  C   UNK N   1      35.848  12.633  10.005  0.00  0.00     0.140 C 
BRANCH  21  22
HETATM   22  C   UNK N   1      37.346  12.348  10.123  0.00  0.00     0.192 C 
BRANCH  22  23
HETATM   23  O   UNK N   1      38.106  13.497   9.892  0.00  0.00    -0.399 OA
HETATM   24  H   UNK N   1      38.721  13.565   9.146  0.00  0.00     0.209 HD
ENDBRANCH  22  23
ENDBRANCH  21  22
BRANCH  21  25
HETATM   25  N   UNK N   1      35.232  11.494   9.347  0.00  0.00    -0.421 N 
HETATM   26  H   UNK N   1      34.548  11.631   8.603  0.00  0.00     0.150 HD
HETATM   27  H   UNK N   1      35.486  10.548   9.631  0.00  0.00     0.150 HD
ENDBRANCH  21  25
ENDBRANCH   2  21
TORSDOF 9
ENDMDL
