MODEL 1
REMARK VINA RESULT:      -9.1      0.000      0.000
REMARK  15 active torsions:
REMARK  status: ('A' for Active; 'I' for Inactive)
REMARK    1  A    between atoms: C_26  and  C_9 
REMARK    2  A    between atoms: C_30  and  C_10 
REMARK    3  A    between atoms: C_28  and  C_22 
REMARK    4  A    between atoms: C_32  and  C_22 
REMARK    5  A    between atoms: C_31  and  C_24 
REMARK    6  A    between atoms: C_41  and  C_24 
REMARK    7  A    between atoms: C_34  and  C_26 
REMARK    8  A    between atoms: C_37  and  C_28 
REMARK    9  A    between atoms: C_38  and  C_32 
REMARK   10  A    between atoms: C_32  and  O_45 
REMARK   11  A    between atoms: C_35  and  O_46 
REMARK   12  A    between atoms: C_36  and  O_47 
REMARK   13  A    between atoms: C_41  and  C_40 
REMARK   14  A    between atoms: O_49  and  C_40 
REMARK   15  A    between atoms: C_41  and  O_50 
ROOT
HETATM    1  C   UNK N   1      31.021  16.967   7.399  0.00  0.00     0.020 C 
HETATM    2  C   UNK N   1      34.230  10.972   7.556  0.00  0.00     0.041 C 
HETATM    3  C   UNK N   1      35.388  14.874   5.484  0.00  0.00     0.040 C 
HETATM    4  C   UNK N   1      33.338  11.961   6.853  0.00  0.00     0.071 C 
HETATM    5  C   UNK N   1      34.414  13.699   5.403  0.00  0.00     0.071 C 
HETATM    6  C   UNK N   1      32.341  16.918   7.179  0.00  0.00    -0.027 C 
HETATM    7  C   UNK N   1      35.299  11.832   8.183  0.00  0.00     0.148 C 
HETATM    8  C   UNK N   1      34.922  15.961   6.463  0.00  0.00     0.154 C 
HETATM    9  C   UNK N   1      33.296  16.540   8.277  0.00  0.00     0.180 C 
HETATM   10  C   UNK N   1      32.916  17.176   5.797  0.00  0.00     0.181 C 
HETATM   11  C   UNK N   1      34.178  15.419   7.736  0.00  0.00     0.187 C 
HETATM   12  C   UNK N   1      34.137  13.254   6.828  0.00  0.00     0.165 C 
HETATM   13  O   UNK N   1      34.327  17.045   5.757  0.00  0.00    -0.371 OA
HETATM   14  O   UNK N   1      35.384  13.020   7.459  0.00  0.00    -0.346 OA
HETATM   15  O   UNK N   1      33.383  14.270   7.475  0.00  0.00    -0.344 OA
ENDROOT
BRANCH   7  16
HETATM   16  C   UNK N   1      34.993  12.202   9.604  0.00  0.00     0.001 C 
HETATM   17  C   UNK N   1      35.956  12.668  10.409  0.00  0.00    -0.021 C 
BRANCH  17  18
HETATM   18  C   UNK N   1      35.671  13.167  11.806  0.00  0.00     0.033 C 
HETATM   19  C   UNK N   1      34.725  14.357  11.673  0.00  0.00     0.017 C 
BRANCH  18  20
HETATM   20  C   UNK N   1      34.994  12.082  12.696  0.00  0.00     0.136 C 
HETATM   21  C   UNK N   1      35.773  10.772  12.849  0.00  0.00     0.066 C 
HETATM   22  C   UNK N   1      36.694  10.774  14.018  0.00  0.00    -0.080 C 
HETATM   23  C   UNK N   1      37.790   9.769  14.101  0.00  0.00     0.043 C 
HETATM   24  C   UNK N   1      36.503  11.609  15.032  0.00  0.00     0.046 C 
HETATM   25  C   UNK N   1      35.382  12.633  15.069  0.00  0.00     0.211 C 
HETATM   26  C   UNK N   1      35.972  14.072  15.177  0.00  0.00     0.185 C 
HETATM   27  O   UNK N   1      34.522  12.340  16.179  0.00  0.00    -0.344 OA
HETATM   28  O   UNK N   1      34.516  12.594  13.933  0.00  0.00    -0.343 OA
HETATM   29  C   UNK N   1      36.619  14.298  16.522  0.00  0.00     0.040 C 
HETATM   30  C   UNK N   1      35.569  14.070  17.575  0.00  0.00     0.035 C 
HETATM   31  C   UNK N   1      35.039  12.641  17.473  0.00  0.00     0.129 C 
BRANCH  26  32
HETATM   32  O   UNK N   1      36.939  14.314  14.208  0.00  0.00    -0.390 OA
HETATM   33  H   UNK N   1      37.101  14.952  13.496  0.00  0.00     0.210 HD
ENDBRANCH  26  32
BRANCH  31  34
HETATM   34  C   UNK N   1      36.013  11.545  17.959  0.00  0.00     0.080 C 
BRANCH  34  35
HETATM   35  C   UNK N   1      35.418  10.185  18.363  0.00  0.00     0.141 C 
HETATM   36  C   UNK N   1      36.529   9.142  18.343  0.00  0.00     0.057 C 
BRANCH  35  37
HETATM   37  C   UNK N   1      34.724  10.232  19.708  0.00  0.00     0.175 C 
HETATM   38  O   UNK N   1      33.756   9.526  19.938  0.00  0.00    -0.648 OA
BRANCH  37  39
HETATM   39  O   UNK N   1      35.180  11.063  20.666  0.00  0.00    -0.774 OA
HETATM   40  H   UNK N   1      35.539  11.130  21.529  0.00  0.00     0.167 HD
ENDBRANCH  37  39
ENDBRANCH  35  37
BRANCH  35  41
HETATM   41  O   UNK N   1      34.484   9.820  17.396  0.00  0.00    -0.379 OA
HETATM   42  H   UNK N   1      34.227  10.387  16.652  0.00  0.00     0.211 HD
ENDBRANCH  35  41
ENDBRANCH  34  35
ENDBRANCH  31  34
ENDBRANCH  18  20
ENDBRANCH  17  18
ENDBRANCH   7  16
BRANCH   9  43
HETATM   43  O   UNK N   1      32.621  16.139   9.433  0.00  0.00    -0.388 OA
HETATM   44  H   UNK N   1      32.389  15.266   9.786  0.00  0.00     0.210 HD
ENDBRANCH   9  43
BRANCH  10  45
HETATM   45  C   UNK N   1      32.276  16.315   4.687  0.00  0.00     0.151 C 
BRANCH  45  46
HETATM   46  C   UNK N   1      30.869  16.817   4.329  0.00  0.00     0.041 C 
BRANCH  46  47
HETATM   47  C   UNK N   1      29.818  15.703   4.142  0.00  0.00     0.013 C 
HETATM   48  C   UNK N   1      30.317  14.499   4.925  0.00  0.00     0.012 C 
BRANCH  47  49
HETATM   49  C   UNK N   1      28.424  16.159   4.636  0.00  0.00     0.132 C 
HETATM   50  C   UNK N   1      27.253  15.428   3.915  0.00  0.00     0.011 C 
HETATM   51  C   UNK N   1      27.320  15.595   2.405  0.00  0.00     0.012 C 
HETATM   52  C   UNK N   1      25.896  15.966   4.377  0.00  0.00     0.012 C 
HETATM   53  C   UNK N   1      26.048  17.047   5.442  0.00  0.00     0.069 C 
HETATM   54  C   UNK N   1      27.087  18.106   5.006  0.00  0.00     0.164 C 
HETATM   55  C   UNK N   1      26.399  18.956   3.908  0.00  0.00     0.068 C 
HETATM   56  O   UNK N   1      27.417  18.849   6.179  0.00  0.00    -0.355 OA
HETATM   57  O   UNK N   1      28.287  17.561   4.450  0.00  0.00    -0.349 OA
HETATM   58  C   UNK N   1      25.483  19.990   4.556  0.00  0.00     0.007 C 
HETATM   59  C   UNK N   1      26.278  20.872   5.523  0.00  0.00     0.026 C 
HETATM   60  C   UNK N   1      27.612  20.218   5.895  0.00  0.00     0.171 C 
ENDBRANCH  47  49
ENDBRANCH  46  47
ENDBRANCH  45  46
BRANCH  45  61
HETATM   61  O   UNK N   1      33.075  16.324   3.539  0.00  0.00    -0.393 OA
HETATM   62  H   UNK N   1      34.034  16.451   3.462  0.00  0.00     0.210 HD
ENDBRANCH  45  61
ENDBRANCH  10  45
TORSDOF 15
ENDMDL
MODEL 2
REMARK VINA RESULT:      -8.7      2.180     12.862
REMARK  15 active torsions:
REMARK  status: ('A' for Active; 'I' for Inactive)
REMARK    1  A    between atoms: C_26  and  C_9 
REMARK    2  A    between atoms: C_30  and  C_10 
REMARK    3  A    between atoms: C_28  and  C_22 
REMARK    4  A    between atoms: C_32  and  C_22 
REMARK    5  A    between atoms: C_31  and  C_24 
REMARK    6  A    between atoms: C_41  and  C_24 
REMARK    7  A    between atoms: C_34  and  C_26 
REMARK    8  A    between atoms: C_37  and  C_28 
REMARK    9  A    between atoms: C_38  and  C_32 
REMARK   10  A    between atoms: C_32  and  O_45 
REMARK   11  A    between atoms: C_35  and  O_46 
REMARK   12  A    between atoms: C_36  and  O_47 
REMARK   13  A    between atoms: C_41  and  C_40 
REMARK   14  A    between atoms: O_49  and  C_40 
REMARK   15  A    between atoms: C_41  and  O_50 
ROOT
HETATM    1  C   UNK N   1      33.089  10.851   7.218  0.00  0.00     0.020 C 
HETATM    2  C   UNK N   1      31.441  17.337   8.429  0.00  0.00     0.041 C 
HETATM    3  C   UNK N   1      35.425  15.169   8.956  0.00  0.00     0.040 C 
HETATM    4  C   UNK N   1      31.687  15.935   8.921  0.00  0.00     0.071 C 
HETATM    5  C   UNK N   1      34.026  15.302   9.559  0.00  0.00     0.071 C 
HETATM    6  C   UNK N   1      34.047  11.785   7.224  0.00  0.00    -0.027 C 
HETATM    7  C   UNK N   1      32.521  17.554   7.398  0.00  0.00     0.148 C 
HETATM    8  C   UNK N   1      35.468  14.188   7.775  0.00  0.00     0.154 C 
HETATM    9  C   UNK N   1      34.102  12.847   6.161  0.00  0.00     0.180 C 
HETATM   10  C   UNK N   1      35.072  11.850   8.343  0.00  0.00     0.181 C 
HETATM   11  C   UNK N   1      34.180  14.192   6.874  0.00  0.00     0.187 C 
HETATM   12  C   UNK N   1      33.074  15.584   8.410  0.00  0.00     0.165 C 
HETATM   13  O   UNK N   1      35.981  12.928   8.193  0.00  0.00    -0.371 OA
HETATM   14  O   UNK N   1      33.579  16.695   7.690  0.00  0.00    -0.346 OA
HETATM   15  O   UNK N   1      32.983  14.413   7.609  0.00  0.00    -0.344 OA
ENDROOT
BRANCH   7  16
HETATM   16  C   UNK N   1      32.070  17.240   6.003  0.00  0.00     0.001 C 
HETATM   17  C   UNK N   1      30.779  17.344   5.664  0.00  0.00    -0.021 C 
BRANCH  17  18
HETATM   18  C   UNK N   1      30.297  17.157   4.245  0.00  0.00     0.033 C 
HETATM   19  C   UNK N   1      31.375  16.367   3.507  0.00  0.00     0.017 C 
BRANCH  18  20
HETATM   20  C   UNK N   1      28.955  16.366   4.175  0.00  0.00     0.136 C 
HETATM   21  C   UNK N   1      28.437  15.824   5.510  0.00  0.00     0.066 C 
HETATM   22  C   UNK N   1      27.531  16.774   6.213  0.00  0.00    -0.080 C 
HETATM   23  C   UNK N   1      27.247  16.594   7.663  0.00  0.00     0.043 C 
HETATM   24  C   UNK N   1      26.906  17.737   5.545  0.00  0.00     0.046 C 
HETATM   25  C   UNK N   1      27.085  17.969   4.054  0.00  0.00     0.211 C 
HETATM   26  C   UNK N   1      27.645  19.401   3.798  0.00  0.00     0.185 C 
HETATM   27  O   UNK N   1      25.822  17.781   3.401  0.00  0.00    -0.344 OA
HETATM   28  O   UNK N   1      27.955  17.033   3.416  0.00  0.00    -0.343 OA
HETATM   29  C   UNK N   1      26.622  20.457   4.138  0.00  0.00     0.040 C 
HETATM   30  C   UNK N   1      25.404  20.199   3.292  0.00  0.00     0.035 C 
HETATM   31  C   UNK N   1      24.852  18.808   3.595  0.00  0.00     0.129 C 
BRANCH  26  32
HETATM   32  O   UNK N   1      28.778  19.663   4.560  0.00  0.00    -0.390 OA
HETATM   33  H   UNK N   1      29.039  19.639   5.494  0.00  0.00     0.210 HD
ENDBRANCH  26  32
BRANCH  31  34
HETATM   34  C   UNK N   1      24.148  18.665   4.961  0.00  0.00     0.080 C 
BRANCH  34  35
HETATM   35  C   UNK N   1      22.941  17.714   5.051  0.00  0.00     0.141 C 
HETATM   36  C   UNK N   1      23.378  16.438   5.759  0.00  0.00     0.057 C 
BRANCH  35  37
HETATM   37  C   UNK N   1      21.751  18.351   5.736  0.00  0.00     0.175 C 
HETATM   38  O   UNK N   1      21.163  19.291   5.225  0.00  0.00    -0.648 OA
BRANCH  37  39
HETATM   39  O   UNK N   1      21.331  17.875   6.926  0.00  0.00    -0.774 OA
HETATM   40  H   UNK N   1      21.448  17.219   7.584  0.00  0.00     0.167 HD
ENDBRANCH  37  39
ENDBRANCH  35  37
BRANCH  35  41
HETATM   41  O   UNK N   1      22.571  17.366   3.753  0.00  0.00    -0.379 OA
HETATM   42  H   UNK N   1      22.958  17.762   2.957  0.00  0.00     0.211 HD
ENDBRANCH  35  41
ENDBRANCH  34  35
ENDBRANCH  31  34
ENDBRANCH  18  20
ENDBRANCH  17  18
ENDBRANCH   7  16
BRANCH   9  43
HETATM   43  O   UNK N   1      32.992  12.787   5.314  0.00  0.00    -0.388 OA
HETATM   44  H   UNK N   1      32.068  12.529   5.463  0.00  0.00     0.210 HD
ENDBRANCH   9  43
BRANCH  10  45
HETATM   45  C   UNK N   1      34.450  11.881   9.756  0.00  0.00     0.151 C 
BRANCH  45  46
HETATM   46  C   UNK N   1      35.489  12.278  10.817  0.00  0.00     0.041 C 
BRANCH  46  47
HETATM   47  C   UNK N   1      36.419  11.132  11.265  0.00  0.00     0.013 C 
HETATM   48  C   UNK N   1      37.813  11.485  10.771  0.00  0.00     0.012 C 
BRANCH  47  49
HETATM   49  C   UNK N   1      36.393  10.957  12.803  0.00  0.00     0.132 C 
HETATM   50  C   UNK N   1      35.417   9.837  13.272  0.00  0.00     0.011 C 
HETATM   51  C   UNK N   1      33.998  10.074  12.778  0.00  0.00     0.012 C 
HETATM   52  C   UNK N   1      35.364   9.753  14.800  0.00  0.00     0.012 C 
HETATM   53  C   UNK N   1      36.304  10.761  15.456  0.00  0.00     0.069 C 
HETATM   54  C   UNK N   1      36.114  12.169  14.844  0.00  0.00     0.164 C 
HETATM   55  C   UNK N   1      34.771  12.703  15.405  0.00  0.00     0.068 C 
HETATM   56  O   UNK N   1      37.246  12.936  15.249  0.00  0.00    -0.355 OA
HETATM   57  O   UNK N   1      36.029  12.185  13.416  0.00  0.00    -0.349 OA
HETATM   58  C   UNK N   1      34.982  13.244  16.816  0.00  0.00     0.007 C 
HETATM   59  C   UNK N   1      36.055  14.338  16.810  0.00  0.00     0.026 C 
HETATM   60  C   UNK N   1      36.898  14.275  15.533  0.00  0.00     0.171 C 
ENDBRANCH  47  49
ENDBRANCH  46  47
ENDBRANCH  45  46
BRANCH  45  61
HETATM   61  O   UNK N   1      33.380  12.781   9.800  0.00  0.00    -0.393 OA
HETATM   62  H   UNK N   1      33.217  13.507  10.423  0.00  0.00     0.210 HD
ENDBRANCH  45  61
ENDBRANCH  10  45
TORSDOF 15
ENDMDL
MODEL 3
REMARK VINA RESULT:      -8.6      1.726      2.827
REMARK  15 active torsions:
REMARK  status: ('A' for Active; 'I' for Inactive)
REMARK    1  A    between atoms: C_26  and  C_9 
REMARK    2  A    between atoms: C_30  and  C_10 
REMARK    3  A    between atoms: C_28  and  C_22 
REMARK    4  A    between atoms: C_32  and  C_22 
REMARK    5  A    between atoms: C_31  and  C_24 
REMARK    6  A    between atoms: C_41  and  C_24 
REMARK    7  A    between atoms: C_34  and  C_26 
REMARK    8  A    between atoms: C_37  and  C_28 
REMARK    9  A    between atoms: C_38  and  C_32 
REMARK   10  A    between atoms: C_32  and  O_45 
REMARK   11  A    between atoms: C_35  and  O_46 
REMARK   12  A    between atoms: C_36  and  O_47 
REMARK   13  A    between atoms: C_41  and  C_40 
REMARK   14  A    between atoms: O_49  and  C_40 
REMARK   15  A    between atoms: C_41  and  O_50 
ROOT
HETATM    1  C   UNK N   1      31.610  16.350   8.687  0.00  0.00     0.020 C 
HETATM    2  C   UNK N   1      33.942  10.716   5.677  0.00  0.00     0.041 C 
HETATM    3  C   UNK N   1      35.691  14.933   5.781  0.00  0.00     0.040 C 
HETATM    4  C   UNK N   1      33.217  12.034   5.605  0.00  0.00     0.071 C 
HETATM    5  C   UNK N   1      34.564  14.101   5.169  0.00  0.00     0.071 C 
HETATM    6  C   UNK N   1      32.915  16.241   8.412  0.00  0.00    -0.027 C 
HETATM    7  C   UNK N   1      35.104  10.992   6.599  0.00  0.00     0.148 C 
HETATM    8  C   UNK N   1      35.356  15.434   7.193  0.00  0.00     0.154 C 
HETATM    9  C   UNK N   1      33.778  15.239   9.127  0.00  0.00     0.180 C 
HETATM   10  C   UNK N   1      33.558  17.076   7.318  0.00  0.00     0.181 C 
HETATM   11  C   UNK N   1      34.509  14.433   8.058  0.00  0.00     0.187 C 
HETATM   12  C   UNK N   1      34.189  13.043   6.192  0.00  0.00     0.165 C 
HETATM   13  O   UNK N   1      34.937  16.794   7.152  0.00  0.00    -0.371 OA
HETATM   14  O   UNK N   1      35.373  12.359   6.562  0.00  0.00    -0.346 OA
HETATM   15  O   UNK N   1      33.567  13.689   7.295  0.00  0.00    -0.344 OA
ENDROOT
BRANCH   7  16
HETATM   16  C   UNK N   1      34.814  10.637   8.027  0.00  0.00     0.001 C 
HETATM   17  C   UNK N   1      35.706   9.952   8.753  0.00  0.00    -0.021 C 
BRANCH  17  18
HETATM   18  C   UNK N   1      35.511   9.679  10.226  0.00  0.00     0.033 C 
HETATM   19  C   UNK N   1      35.395   8.165  10.389  0.00  0.00     0.017 C 
BRANCH  18  20
HETATM   20  C   UNK N   1      36.706  10.189  11.087  0.00  0.00     0.136 C 
HETATM   21  C   UNK N   1      37.110  11.647  10.857  0.00  0.00     0.066 C 
HETATM   22  C   UNK N   1      36.403  12.598  11.758  0.00  0.00    -0.080 C 
HETATM   23  C   UNK N   1      36.373  14.051  11.429  0.00  0.00     0.043 C 
HETATM   24  C   UNK N   1      35.864  12.182  12.898  0.00  0.00     0.046 C 
HETATM   25  C   UNK N   1      35.890  10.731  13.350  0.00  0.00     0.211 C 
HETATM   26  C   UNK N   1      34.436  10.197  13.520  0.00  0.00     0.185 C 
HETATM   27  O   UNK N   1      36.622  10.643  14.580  0.00  0.00    -0.344 OA
HETATM   28  O   UNK N   1      36.584   9.853  12.463  0.00  0.00    -0.343 OA
HETATM   29  C   UNK N   1      33.743  10.856  14.687  0.00  0.00     0.040 C 
HETATM   30  C   UNK N   1      34.562  10.577  15.918  0.00  0.00     0.035 C 
HETATM   31  C   UNK N   1      35.967  11.149  15.742  0.00  0.00     0.129 C 
BRANCH  26  32
HETATM   32  O   UNK N   1      33.658  10.432  12.391  0.00  0.00    -0.390 OA
HETATM   33  H   UNK N   1      32.967   9.977  11.885  0.00  0.00     0.210 HD
ENDBRANCH  26  32
BRANCH  31  34
HETATM   34  C   UNK N   1      36.062  12.688  15.815  0.00  0.00     0.080 C 
BRANCH  34  35
HETATM   35  C   UNK N   1      35.383  13.393  17.002  0.00  0.00     0.141 C 
HETATM   36  C   UNK N   1      35.312  12.421  18.172  0.00  0.00     0.057 C 
BRANCH  35  37
HETATM   37  C   UNK N   1      36.082  14.679  17.389  0.00  0.00     0.175 C 
HETATM   38  O   UNK N   1      35.816  15.245  18.437  0.00  0.00    -0.648 OA
BRANCH  37  39
HETATM   39  O   UNK N   1      37.013  15.207  16.569  0.00  0.00    -0.774 OA
HETATM   40  H   UNK N   1      37.665  15.871  16.462  0.00  0.00     0.167 HD
ENDBRANCH  37  39
ENDBRANCH  35  37
BRANCH  35  41
HETATM   41  O   UNK N   1      34.074  13.696  16.630  0.00  0.00    -0.379 OA
HETATM   42  H   UNK N   1      33.779  14.582  16.369  0.00  0.00     0.211 HD
ENDBRANCH  35  41
ENDBRANCH  34  35
ENDBRANCH  31  34
ENDBRANCH  18  20
ENDBRANCH  17  18
ENDBRANCH   7  16
BRANCH   9  43
HETATM   43  O   UNK N   1      33.022  14.408   9.958  0.00  0.00    -0.388 OA
HETATM   44  H   UNK N   1      32.097  14.437  10.248  0.00  0.00     0.210 HD
ENDBRANCH   9  43
BRANCH  10  45
HETATM   45  C   UNK N   1      32.835  16.983   5.958  0.00  0.00     0.151 C 
BRANCH  45  46
HETATM   46  C   UNK N   1      31.320  17.188   6.113  0.00  0.00     0.041 C 
BRANCH  46  47
HETATM   47  C   UNK N   1      30.455  16.316   5.180  0.00  0.00     0.013 C 
HETATM   48  C   UNK N   1      30.642  14.876   5.632  0.00  0.00     0.012 C 
BRANCH  47  49
HETATM   49  C   UNK N   1      28.967  16.737   5.238  0.00  0.00     0.132 C 
HETATM   50  C   UNK N   1      28.097  16.055   4.140  0.00  0.00     0.011 C 
HETATM   51  C   UNK N   1      28.631  16.325   2.742  0.00  0.00     0.012 C 
HETATM   52  C   UNK N   1      26.653  16.560   4.186  0.00  0.00     0.012 C 
HETATM   53  C   UNK N   1      26.439  17.566   5.312  0.00  0.00     0.069 C 
HETATM   54  C   UNK N   1      27.539  18.654   5.295  0.00  0.00     0.164 C 
HETATM   55  C   UNK N   1      27.212  19.576   4.093  0.00  0.00     0.068 C 
HETATM   56  O   UNK N   1      27.468  19.315   6.557  0.00  0.00    -0.355 OA
HETATM   57  O   UNK N   1      28.865  18.148   5.110  0.00  0.00    -0.349 OA
HETATM   58  C   UNK N   1      26.116  20.562   4.485  0.00  0.00     0.007 C 
HETATM   59  C   UNK N   1      26.549  21.377   5.708  0.00  0.00     0.026 C 
HETATM   60  C   UNK N   1      27.712  20.700   6.438  0.00  0.00     0.171 C 
ENDBRANCH  47  49
ENDBRANCH  46  47
ENDBRANCH  45  46
BRANCH  45  61
HETATM   61  O   UNK N   1      33.339  17.937   5.069  0.00  0.00    -0.393 OA
HETATM   62  H   UNK N   1      33.061  18.134   4.160  0.00  0.00     0.210 HD
ENDBRANCH  45  61
ENDBRANCH  10  45
TORSDOF 15
ENDMDL
MODEL 4
REMARK VINA RESULT:      -8.4      2.270     12.845
REMARK  15 active torsions:
REMARK  status: ('A' for Active; 'I' for Inactive)
REMARK    1  A    between atoms: C_26  and  C_9 
REMARK    2  A    between atoms: C_30  and  C_10 
REMARK    3  A    between atoms: C_28  and  C_22 
REMARK    4  A    between atoms: C_32  and  C_22 
REMARK    5  A    between atoms: C_31  and  C_24 
REMARK    6  A    between atoms: C_41  and  C_24 
REMARK    7  A    between atoms: C_34  and  C_26 
REMARK    8  A    between atoms: C_37  and  C_28 
REMARK    9  A    between atoms: C_38  and  C_32 
REMARK   10  A    between atoms: C_32  and  O_45 
REMARK   11  A    between atoms: C_35  and  O_46 
REMARK   12  A    between atoms: C_36  and  O_47 
REMARK   13  A    between atoms: C_41  and  C_40 
REMARK   14  A    between atoms: O_49  and  C_40 
REMARK   15  A    between atoms: C_41  and  O_50 
ROOT
HETATM    1  C   UNK N   1      34.675  18.012   8.285  0.00  0.00     0.020 C 
HETATM    2  C   UNK N   1      33.606  12.561   4.361  0.00  0.00     0.041 C 
HETATM    3  C   UNK N   1      33.095  13.085   8.868  0.00  0.00     0.040 C 
HETATM    4  C   UNK N   1      34.473  13.334   5.319  0.00  0.00     0.071 C 
HETATM    5  C   UNK N   1      34.154  12.949   7.774  0.00  0.00     0.071 C 
HETATM    6  C   UNK N   1      33.836  17.055   8.699  0.00  0.00    -0.027 C 
HETATM    7  C   UNK N   1      32.213  12.735   4.913  0.00  0.00     0.148 C 
HETATM    8  C   UNK N   1      32.578  14.523   9.015  0.00  0.00     0.154 C 
HETATM    9  C   UNK N   1      32.532  16.809   7.993  0.00  0.00     0.180 C 
HETATM   10  C   UNK N   1      34.202  16.137   9.853  0.00  0.00     0.181 C 
HETATM   11  C   UNK N   1      32.474  15.321   7.665  0.00  0.00     0.187 C 
HETATM   12  C   UNK N   1      33.584  13.594   6.523  0.00  0.00     0.165 C 
HETATM   13  O   UNK N   1      33.203  15.167  10.120  0.00  0.00    -0.371 OA
HETATM   14  O   UNK N   1      32.316  13.012   6.275  0.00  0.00    -0.346 OA
HETATM   15  O   UNK N   1      33.505  14.996   6.741  0.00  0.00    -0.344 OA
ENDROOT
BRANCH   7  16
HETATM   16  C   UNK N   1      31.473  13.879   4.285  0.00  0.00     0.001 C 
HETATM   17  C   UNK N   1      30.377  14.381   4.867  0.00  0.00    -0.021 C 
BRANCH  17  18
HETATM   18  C   UNK N   1      29.670  15.607   4.337  0.00  0.00     0.033 C 
HETATM   19  C   UNK N   1      30.445  16.075   3.109  0.00  0.00     0.017 C 
BRANCH  18  20
HETATM   20  C   UNK N   1      28.198  15.308   3.921  0.00  0.00     0.136 C 
HETATM   21  C   UNK N   1      27.311  14.708   5.016  0.00  0.00     0.066 C 
HETATM   22  C   UNK N   1      26.594  15.739   5.816  0.00  0.00    -0.080 C 
HETATM   23  C   UNK N   1      26.007  15.378   7.136  0.00  0.00     0.043 C 
HETATM   24  C   UNK N   1      26.398  16.960   5.332  0.00  0.00     0.046 C 
HETATM   25  C   UNK N   1      26.908  17.410   3.974  0.00  0.00     0.211 C 
HETATM   26  C   UNK N   1      27.884  18.614   4.139  0.00  0.00     0.185 C 
HETATM   27  O   UNK N   1      25.787  17.760   3.151  0.00  0.00    -0.344 OA
HETATM   28  O   UNK N   1      27.583  16.390   3.235  0.00  0.00    -0.343 OA
HETATM   29  C   UNK N   1      27.153  19.851   4.602  0.00  0.00     0.040 C 
HETATM   30  C   UNK N   1      26.090  20.159   3.582  0.00  0.00     0.035 C 
HETATM   31  C   UNK N   1      25.124  18.981   3.473  0.00  0.00     0.129 C 
BRANCH  26  32
HETATM   32  O   UNK N   1      28.883  18.352   5.069  0.00  0.00    -0.390 OA
HETATM   33  H   UNK N   1      29.298  17.578   5.482  0.00  0.00     0.210 HD
ENDBRANCH  26  32
BRANCH  31  34
HETATM   34  C   UNK N   1      24.168  18.804   4.671  0.00  0.00     0.080 C 
BRANCH  34  35
HETATM   35  C   UNK N   1      22.841  18.065   4.428  0.00  0.00     0.141 C 
HETATM   36  C   UNK N   1      22.183  17.788   5.773  0.00  0.00     0.057 C 
BRANCH  35  37
HETATM   37  C   UNK N   1      21.916  18.825   3.502  0.00  0.00     0.175 C 
HETATM   38  O   UNK N   1      21.128  18.235   2.779  0.00  0.00    -0.648 OA
BRANCH  37  39
HETATM   39  O   UNK N   1      21.956  20.173   3.475  0.00  0.00    -0.774 OA
HETATM   40  H   UNK N   1      21.462  20.965   3.542  0.00  0.00     0.167 HD
ENDBRANCH  37  39
ENDBRANCH  35  37
BRANCH  35  41
HETATM   41  O   UNK N   1      23.135  16.833   3.845  0.00  0.00    -0.379 OA
HETATM   42  H   UNK N   1      22.864  16.582   2.948  0.00  0.00     0.211 HD
ENDBRANCH  35  41
ENDBRANCH  34  35
ENDBRANCH  31  34
ENDBRANCH  18  20
ENDBRANCH  17  18
ENDBRANCH   7  16
BRANCH   9  43
HETATM   43  O   UNK N   1      32.415  17.587   6.838  0.00  0.00    -0.388 OA
HETATM   44  H   UNK N   1      31.648  17.946   6.365  0.00  0.00     0.210 HD
ENDBRANCH   9  43
BRANCH  10  45
HETATM   45  C   UNK N   1      35.573  15.448   9.689  0.00  0.00     0.151 C 
BRANCH  45  46
HETATM   46  C   UNK N   1      35.749  14.303  10.698  0.00  0.00     0.041 C 
BRANCH  46  47
HETATM   47  C   UNK N   1      36.942  13.368  10.408  0.00  0.00     0.013 C 
HETATM   48  C   UNK N   1      38.127  14.264  10.084  0.00  0.00     0.012 C 
BRANCH  47  49
HETATM   49  C   UNK N   1      37.242  12.450  11.617  0.00  0.00     0.132 C 
HETATM   50  C   UNK N   1      37.194  10.935  11.259  0.00  0.00     0.011 C 
HETATM   51  C   UNK N   1      35.857  10.534  10.656  0.00  0.00     0.012 C 
HETATM   52  C   UNK N   1      37.418  10.066  12.498  0.00  0.00     0.012 C 
HETATM   53  C   UNK N   1      37.664  10.909  13.746  0.00  0.00     0.069 C 
HETATM   54  C   UNK N   1      36.595  12.019  13.878  0.00  0.00     0.164 C 
HETATM   55  C   UNK N   1      35.292  11.310  14.328  0.00  0.00     0.068 C 
HETATM   56  O   UNK N   1      37.100  12.948  14.836  0.00  0.00    -0.355 OA
HETATM   57  O   UNK N   1      36.315  12.716  12.660  0.00  0.00    -0.349 OA
HETATM   58  C   UNK N   1      35.341  11.052  15.831  0.00  0.00     0.007 C 
HETATM   59  C   UNK N   1      35.547  12.368  16.589  0.00  0.00     0.026 C 
HETATM   60  C   UNK N   1      36.073  13.463  15.658  0.00  0.00     0.171 C 
ENDBRANCH  47  49
ENDBRANCH  46  47
ENDBRANCH  45  46
BRANCH  45  61
HETATM   61  O   UNK N   1      35.716  14.944   8.392  0.00  0.00    -0.393 OA
HETATM   62  H   UNK N   1      36.343  14.283   8.058  0.00  0.00     0.210 HD
ENDBRANCH  45  61
ENDBRANCH  10  45
TORSDOF 15
ENDMDL
MODEL 5
REMARK VINA RESULT:      -8.3      3.007     13.091
REMARK  15 active torsions:
REMARK  status: ('A' for Active; 'I' for Inactive)
REMARK    1  A    between atoms: C_26  and  C_9 
REMARK    2  A    between atoms: C_30  and  C_10 
REMARK    3  A    between atoms: C_28  and  C_22 
REMARK    4  A    between atoms: C_32  and  C_22 
REMARK    5  A    between atoms: C_31  and  C_24 
REMARK    6  A    between atoms: C_41  and  C_24 
REMARK    7  A    between atoms: C_34  and  C_26 
REMARK    8  A    between atoms: C_37  and  C_28 
REMARK    9  A    between atoms: C_38  and  C_32 
REMARK   10  A    between atoms: C_32  and  O_45 
REMARK   11  A    between atoms: C_35  and  O_46 
REMARK   12  A    between atoms: C_36  and  O_47 
REMARK   13  A    between atoms: C_41  and  C_40 
REMARK   14  A    between atoms: O_49  and  C_40 
REMARK   15  A    between atoms: C_41  and  O_50 
ROOT
HETATM    1  C   UNK N   1      33.987  15.326  10.587  0.00  0.00     0.020 C 
HETATM    2  C   UNK N   1      32.794  17.593   4.287  0.00  0.00     0.041 C 
HETATM    3  C   UNK N   1      33.838  13.396   5.753  0.00  0.00     0.040 C 
HETATM    4  C   UNK N   1      33.757  17.191   5.373  0.00  0.00     0.071 C 
HETATM    5  C   UNK N   1      34.435  14.784   5.520  0.00  0.00     0.071 C 
HETATM    6  C   UNK N   1      33.584  14.468   9.642  0.00  0.00    -0.027 C 
HETATM    7  C   UNK N   1      31.691  16.569   4.385  0.00  0.00     0.148 C 
HETATM    8  C   UNK N   1      33.107  13.285   7.099  0.00  0.00     0.154 C 
HETATM    9  C   UNK N   1      32.200  14.551   9.060  0.00  0.00     0.180 C 
HETATM   10  C   UNK N   1      34.530  13.425   9.074  0.00  0.00     0.181 C 
HETATM   11  C   UNK N   1      32.354  14.591   7.543  0.00  0.00     0.187 C 
HETATM   12  C   UNK N   1      33.327  15.791   5.774  0.00  0.00     0.165 C 
HETATM   13  O   UNK N   1      33.931  12.635   8.061  0.00  0.00    -0.371 OA
HETATM   14  O   UNK N   1      32.215  15.421   4.978  0.00  0.00    -0.346 OA
HETATM   15  O   UNK N   1      33.027  15.784   7.163  0.00  0.00    -0.344 OA
ENDROOT
BRANCH   7  16
HETATM   16  C   UNK N   1      30.545  17.023   5.239  0.00  0.00     0.001 C 
HETATM   17  C   UNK N   1      29.291  16.658   4.945  0.00  0.00    -0.021 C 
BRANCH  17  18
HETATM   18  C   UNK N   1      28.121  16.990   5.841  0.00  0.00     0.033 C 
HETATM   19  C   UNK N   1      28.634  17.951   6.910  0.00  0.00     0.017 C 
BRANCH  18  20
HETATM   20  C   UNK N   1      26.955  17.675   5.065  0.00  0.00     0.136 C 
HETATM   21  C   UNK N   1      26.891  17.370   3.566  0.00  0.00     0.066 C 
HETATM   22  C   UNK N   1      26.049  16.184   3.248  0.00  0.00    -0.080 C 
HETATM   23  C   UNK N   1      26.177  15.517   1.923  0.00  0.00     0.043 C 
HETATM   24  C   UNK N   1      25.124  15.758   4.101  0.00  0.00     0.046 C 
HETATM   25  C   UNK N   1      24.877  16.405   5.453  0.00  0.00     0.211 C 
HETATM   26  C   UNK N   1      25.109  15.368   6.593  0.00  0.00     0.185 C 
HETATM   27  O   UNK N   1      23.539  16.919   5.484  0.00  0.00    -0.344 OA
HETATM   28  O   UNK N   1      25.699  17.543   5.717  0.00  0.00    -0.343 OA
HETATM   29  C   UNK N   1      24.046  14.296   6.583  0.00  0.00     0.040 C 
HETATM   30  C   UNK N   1      22.713  14.977   6.741  0.00  0.00     0.035 C 
HETATM   31  C   UNK N   1      22.494  15.954   5.588  0.00  0.00     0.129 C 
BRANCH  26  32
HETATM   32  O   UNK N   1      26.339  14.730   6.478  0.00  0.00    -0.390 OA
HETATM   33  H   UNK N   1      26.778  13.943   6.835  0.00  0.00     0.210 HD
ENDBRANCH  26  32
BRANCH  31  34
HETATM   34  C   UNK N   1      22.194  15.301   4.222  0.00  0.00     0.080 C 
BRANCH  34  35
HETATM   35  C   UNK N   1      21.270  16.057   3.252  0.00  0.00     0.141 C 
HETATM   36  C   UNK N   1      21.457  15.483   1.853  0.00  0.00     0.057 C 
BRANCH  35  37
HETATM   37  C   UNK N   1      19.819  16.013   3.681  0.00  0.00     0.175 C 
HETATM   38  O   UNK N   1      19.318  14.978   4.091  0.00  0.00    -0.648 OA
BRANCH  37  39
HETATM   39  O   UNK N   1      19.067  17.130   3.615  0.00  0.00    -0.774 OA
HETATM   40  H   UNK N   1      18.212  17.497   3.715  0.00  0.00     0.167 HD
ENDBRANCH  37  39
ENDBRANCH  35  37
BRANCH  35  41
HETATM   41  O   UNK N   1      21.680  17.389   3.217  0.00  0.00    -0.379 OA
HETATM   42  H   UNK N   1      22.608  17.665   3.158  0.00  0.00     0.211 HD
ENDBRANCH  35  41
ENDBRANCH  34  35
ENDBRANCH  31  34
ENDBRANCH  18  20
ENDBRANCH  17  18
ENDBRANCH   7  16
BRANCH   9  43
HETATM   43  O   UNK N   1      31.509  15.672   9.528  0.00  0.00    -0.388 OA
HETATM   44  H   UNK N   1      30.678  16.091   9.253  0.00  0.00     0.210 HD
ENDBRANCH   9  43
BRANCH  10  45
HETATM   45  C   UNK N   1      35.866  14.008   8.565  0.00  0.00     0.151 C 
BRANCH  45  46
HETATM   46  C   UNK N   1      36.895  14.124   9.700  0.00  0.00     0.041 C 
BRANCH  46  47
HETATM   47  C   UNK N   1      37.906  12.960   9.771  0.00  0.00     0.013 C 
HETATM   48  C   UNK N   1      39.291  13.587   9.757  0.00  0.00     0.012 C 
BRANCH  47  49
HETATM   49  C   UNK N   1      37.687  12.104  11.041  0.00  0.00     0.132 C 
HETATM   50  C   UNK N   1      37.500  10.590  10.730  0.00  0.00     0.011 C 
HETATM   51  C   UNK N   1      36.351  10.344   9.765  0.00  0.00     0.012 C 
HETATM   52  C   UNK N   1      37.208   9.794  12.005  0.00  0.00     0.012 C 
HETATM   53  C   UNK N   1      37.211  10.686  13.243  0.00  0.00     0.069 C 
HETATM   54  C   UNK N   1      36.346  11.948  13.014  0.00  0.00     0.164 C 
HETATM   55  C   UNK N   1      34.871  11.473  13.073  0.00  0.00     0.068 C 
HETATM   56  O   UNK N   1      36.692  12.863  14.052  0.00  0.00    -0.355 OA
HETATM   57  O   UNK N   1      36.551  12.582  11.748  0.00  0.00    -0.349 OA
HETATM   58  C   UNK N   1      34.436  11.327  14.528  0.00  0.00     0.007 C 
HETATM   59  C   UNK N   1      34.623  12.653  15.274  0.00  0.00     0.026 C 
HETATM   60  C   UNK N   1      35.568  13.584  14.512  0.00  0.00     0.171 C 
ENDBRANCH  47  49
ENDBRANCH  46  47
ENDBRANCH  45  46
BRANCH  45  61
HETATM   61  O   UNK N   1      36.392  13.209   7.545  0.00  0.00    -0.393 OA
HETATM   62  H   UNK N   1      36.621  12.266   7.564  0.00  0.00     0.210 HD
ENDBRANCH  45  61
ENDBRANCH  10  45
TORSDOF 15
ENDMDL
MODEL 6
REMARK VINA RESULT:      -8.3      2.759     12.180
REMARK  15 active torsions:
REMARK  status: ('A' for Active; 'I' for Inactive)
REMARK    1  A    between atoms: C_26  and  C_9 
REMARK    2  A    between atoms: C_30  and  C_10 
REMARK    3  A    between atoms: C_28  and  C_22 
REMARK    4  A    between atoms: C_32  and  C_22 
REMARK    5  A    between atoms: C_31  and  C_24 
REMARK    6  A    between atoms: C_41  and  C_24 
REMARK    7  A    between atoms: C_34  and  C_26 
REMARK    8  A    between atoms: C_37  and  C_28 
REMARK    9  A    between atoms: C_38  and  C_32 
REMARK   10  A    between atoms: C_32  and  O_45 
REMARK   11  A    between atoms: C_35  and  O_46 
REMARK   12  A    between atoms: C_36  and  O_47 
REMARK   13  A    between atoms: C_41  and  C_40 
REMARK   14  A    between atoms: O_49  and  C_40 
REMARK   15  A    between atoms: C_41  and  O_50 
ROOT
HETATM    1  C   UNK N   1      33.563  12.957   9.280  0.00  0.00     0.020 C 
HETATM    2  C   UNK N   1      28.834  17.716   8.167  0.00  0.00     0.041 C 
HETATM    3  C   UNK N   1      33.384  17.969   7.878  0.00  0.00     0.040 C 
HETATM    4  C   UNK N   1      29.867  17.081   9.060  0.00  0.00     0.071 C 
HETATM    5  C   UNK N   1      32.234  17.881   8.881  0.00  0.00     0.071 C 
HETATM    6  C   UNK N   1      33.849  14.001   8.492  0.00  0.00    -0.027 C 
HETATM    7  C   UNK N   1      29.471  17.689   6.800  0.00  0.00     0.148 C 
HETATM    8  C   UNK N   1      33.794  16.595   7.326  0.00  0.00     0.154 C 
HETATM    9  C   UNK N   1      33.174  14.175   7.160  0.00  0.00     0.180 C 
HETATM   10  C   UNK N   1      34.814  15.083   8.944  0.00  0.00     0.181 C 
HETATM   11  C   UNK N   1      32.603  15.589   7.129  0.00  0.00     0.187 C 
HETATM   12  C   UNK N   1      31.137  17.059   8.228  0.00  0.00     0.165 C 
HETATM   13  O   UNK N   1      34.961  16.121   7.989  0.00  0.00    -0.371 OA
HETATM   14  O   UNK N   1      30.854  17.639   6.966  0.00  0.00    -0.346 OA
HETATM   15  O   UNK N   1      31.590  15.716   8.119  0.00  0.00    -0.344 OA
ENDROOT
BRANCH   7  16
HETATM   16  C   UNK N   1      29.080  16.486   5.995  0.00  0.00     0.001 C 
HETATM   17  C   UNK N   1      28.641  16.621   4.738  0.00  0.00    -0.021 C 
BRANCH  17  18
HETATM   18  C   UNK N   1      28.351  15.434   3.850  0.00  0.00     0.033 C 
HETATM   19  C   UNK N   1      26.901  15.562   3.389  0.00  0.00     0.017 C 
BRANCH  18  20
HETATM   20  C   UNK N   1      29.276  15.391   2.596  0.00  0.00     0.136 C 
HETATM   21  C   UNK N   1      30.496  16.316   2.644  0.00  0.00     0.066 C 
HETATM   22  C   UNK N   1      31.701  15.663   3.225  0.00  0.00    -0.080 C 
HETATM   23  C   UNK N   1      32.840  16.496   3.701  0.00  0.00     0.043 C 
HETATM   24  C   UNK N   1      31.811  14.340   3.251  0.00  0.00     0.046 C 
HETATM   25  C   UNK N   1      30.730  13.404   2.739  0.00  0.00     0.211 C 
HETATM   26  C   UNK N   1      30.232  12.479   3.890  0.00  0.00     0.185 C 
HETATM   27  O   UNK N   1      31.259  12.637   1.649  0.00  0.00    -0.344 OA
HETATM   28  O   UNK N   1      29.594  14.069   2.183  0.00  0.00    -0.343 OA
HETATM   29  C   UNK N   1      31.300  11.495   4.302  0.00  0.00     0.040 C 
HETATM   30  C   UNK N   1      31.667  10.687   3.087  0.00  0.00     0.035 C 
HETATM   31  C   UNK N   1      32.191  11.613   1.991  0.00  0.00     0.129 C 
BRANCH  26  32
HETATM   32  O   UNK N   1      29.876  13.201   5.024  0.00  0.00    -0.390 OA
HETATM   33  H   UNK N   1      30.303  13.789   5.666  0.00  0.00     0.210 HD
ENDBRANCH  26  32
BRANCH  31  34
HETATM   34  C   UNK N   1      33.598  12.196   2.243  0.00  0.00     0.080 C 
BRANCH  34  35
HETATM   35  C   UNK N   1      34.413  12.658   1.023  0.00  0.00     0.141 C 
HETATM   36  C   UNK N   1      35.063  13.996   1.348  0.00  0.00     0.057 C 
BRANCH  35  37
HETATM   37  C   UNK N   1      35.439  11.633   0.590  0.00  0.00     0.175 C 
HETATM   38  O   UNK N   1      35.626  10.619   1.243  0.00  0.00    -0.648 OA
BRANCH  37  39
HETATM   39  O   UNK N   1      36.157  11.837  -0.533  0.00  0.00    -0.774 OA
HETATM   40  H   UNK N   1      36.803  12.368  -0.955  0.00  0.00     0.167 HD
ENDBRANCH  37  39
ENDBRANCH  35  37
BRANCH  35  41
HETATM   41  O   UNK N   1      33.526  12.868  -0.032  0.00  0.00    -0.379 OA
HETATM   42  H   UNK N   1      32.801  12.265  -0.255  0.00  0.00     0.211 HD
ENDBRANCH  35  41
ENDBRANCH  34  35
ENDBRANCH  31  34
ENDBRANCH  18  20
ENDBRANCH  17  18
ENDBRANCH   7  16
BRANCH   9  43
HETATM   43  O   UNK N   1      32.173  13.221   6.960  0.00  0.00    -0.388 OA
HETATM   44  H   UNK N   1      32.131  12.268   7.139  0.00  0.00     0.210 HD
ENDBRANCH   9  43
BRANCH  10  45
HETATM   45  C   UNK N   1      34.473  15.683  10.325  0.00  0.00     0.151 C 
BRANCH  45  46
HETATM   46  C   UNK N   1      35.145  14.896  11.460  0.00  0.00     0.041 C 
BRANCH  46  47
HETATM   47  C   UNK N   1      36.340  14.026  11.018  0.00  0.00     0.013 C 
HETATM   48  C   UNK N   1      37.419  14.982  10.536  0.00  0.00     0.012 C 
BRANCH  47  49
HETATM   49  C   UNK N   1      36.849  13.140  12.181  0.00  0.00     0.132 C 
HETATM   50  C   UNK N   1      37.182  11.685  11.738  0.00  0.00     0.011 C 
HETATM   51  C   UNK N   1      35.991  11.002  11.082  0.00  0.00     0.012 C 
HETATM   52  C   UNK N   1      37.605  10.825  12.931  0.00  0.00     0.012 C 
HETATM   53  C   UNK N   1      37.622  11.627  14.229  0.00  0.00     0.069 C 
HETATM   54  C   UNK N   1      36.310  12.428  14.399  0.00  0.00     0.164 C 
HETATM   55  C   UNK N   1      35.221  11.393  14.779  0.00  0.00     0.068 C 
HETATM   56  O   UNK N   1      36.560  13.394  15.418  0.00  0.00    -0.355 OA
HETATM   57  O   UNK N   1      35.876  13.106  13.215  0.00  0.00    -0.349 OA
HETATM   58  C   UNK N   1      35.320  11.066  16.265  0.00  0.00     0.007 C 
HETATM   59  C   UNK N   1      35.186  12.344  17.101  0.00  0.00     0.026 C 
HETATM   60  C   UNK N   1      35.431  13.589  16.244  0.00  0.00     0.171 C 
ENDBRANCH  47  49
ENDBRANCH  46  47
ENDBRANCH  45  46
BRANCH  45  61
HETATM   61  O   UNK N   1      34.876  17.021  10.390  0.00  0.00    -0.393 OA
HETATM   62  H   UNK N   1      34.896  17.617  11.156  0.00  0.00     0.210 HD
ENDBRANCH  45  61
ENDBRANCH  10  45
TORSDOF 15
ENDMDL
MODEL 7
REMARK VINA RESULT:      -8.3      4.360     11.939
REMARK  15 active torsions:
REMARK  status: ('A' for Active; 'I' for Inactive)
REMARK    1  A    between atoms: C_26  and  C_9 
REMARK    2  A    between atoms: C_30  and  C_10 
REMARK    3  A    between atoms: C_28  and  C_22 
REMARK    4  A    between atoms: C_32  and  C_22 
REMARK    5  A    between atoms: C_31  and  C_24 
REMARK    6  A    between atoms: C_41  and  C_24 
REMARK    7  A    between atoms: C_34  and  C_26 
REMARK    8  A    between atoms: C_37  and  C_28 
REMARK    9  A    between atoms: C_38  and  C_32 
REMARK   10  A    between atoms: C_32  and  O_45 
REMARK   11  A    between atoms: C_35  and  O_46 
REMARK   12  A    between atoms: C_36  and  O_47 
REMARK   13  A    between atoms: C_41  and  C_40 
REMARK   14  A    between atoms: O_49  and  C_40 
REMARK   15  A    between atoms: C_41  and  O_50 
ROOT
HETATM    1  C   UNK N   1      32.868  12.563   5.438  0.00  0.00     0.020 C 
HETATM    2  C   UNK N   1      28.375  17.668   5.504  0.00  0.00     0.041 C 
HETATM    3  C   UNK N   1      32.462  17.375   3.490  0.00  0.00     0.040 C 
HETATM    4  C   UNK N   1      29.633  17.024   6.025  0.00  0.00     0.071 C 
HETATM    5  C   UNK N   1      31.789  17.529   4.854  0.00  0.00     0.071 C 
HETATM    6  C   UNK N   1      32.888  13.473   4.457  0.00  0.00    -0.027 C 
HETATM    7  C   UNK N   1      28.429  17.417   4.018  0.00  0.00     0.148 C 
HETATM    8  C   UNK N   1      32.542  15.911   3.033  0.00  0.00     0.154 C 
HETATM    9  C   UNK N   1      31.761  13.572   3.467  0.00  0.00     0.180 C 
HETATM   10  C   UNK N   1      34.016  14.484   4.350  0.00  0.00     0.181 C 
HETATM   11  C   UNK N   1      31.310  15.029   3.447  0.00  0.00     0.187 C 
HETATM   12  C   UNK N   1      30.477  16.768   4.789  0.00  0.00     0.165 C 
HETATM   13  O   UNK N   1      33.844  15.385   3.269  0.00  0.00    -0.371 OA
HETATM   14  O   UNK N   1      29.763  17.231   3.657  0.00  0.00    -0.346 OA
HETATM   15  O   UNK N   1      30.770  15.378   4.715  0.00  0.00    -0.344 OA
ENDROOT
BRANCH   7  16
HETATM   16  C   UNK N   1      27.684  16.183   3.605  0.00  0.00     0.001 C 
HETATM   17  C   UNK N   1      26.358  16.102   3.765  0.00  0.00    -0.021 C 
BRANCH  17  18
HETATM   18  C   UNK N   1      25.550  14.932   3.254  0.00  0.00     0.033 C 
HETATM   19  C   UNK N   1      26.274  14.392   2.024  0.00  0.00     0.017 C 
BRANCH  18  20
HETATM   20  C   UNK N   1      25.429  13.791   4.309  0.00  0.00     0.136 C 
HETATM   21  C   UNK N   1      26.234  13.992   5.596  0.00  0.00     0.066 C 
HETATM   22  C   UNK N   1      25.466  14.694   6.661  0.00  0.00    -0.080 C 
HETATM   23  C   UNK N   1      26.185  15.310   7.810  0.00  0.00     0.043 C 
HETATM   24  C   UNK N   1      24.139  14.710   6.643  0.00  0.00     0.046 C 
HETATM   25  C   UNK N   1      23.312  14.063   5.545  0.00  0.00     0.211 C 
HETATM   26  C   UNK N   1      22.431  15.135   4.835  0.00  0.00     0.185 C 
HETATM   27  O   UNK N   1      22.505  13.027   6.122  0.00  0.00    -0.344 OA
HETATM   28  O   UNK N   1      24.085  13.394   4.547  0.00  0.00    -0.343 OA
HETATM   29  C   UNK N   1      21.348  15.649   5.752  0.00  0.00     0.040 C 
HETATM   30  C   UNK N   1      20.517  14.469   6.178  0.00  0.00     0.035 C 
HETATM   31  C   UNK N   1      21.396  13.456   6.909  0.00  0.00     0.129 C 
BRANCH  26  32
HETATM   32  O   UNK N   1      23.177  16.233   4.420  0.00  0.00    -0.390 OA
HETATM   33  H   UNK N   1      23.080  17.197   4.386  0.00  0.00     0.210 HD
ENDBRANCH  26  32
BRANCH  31  34
HETATM   34  C   UNK N   1      21.841  13.876   8.326  0.00  0.00     0.080 C 
BRANCH  34  35
HETATM   35  C   UNK N   1      22.258  12.765   9.306  0.00  0.00     0.141 C 
HETATM   36  C   UNK N   1      23.627  13.110   9.879  0.00  0.00     0.057 C 
BRANCH  35  37
HETATM   37  C   UNK N   1      21.237  12.544  10.400  0.00  0.00     0.175 C 
HETATM   38  O   UNK N   1      20.133  13.062  10.341  0.00  0.00    -0.648 OA
BRANCH  37  39
HETATM   39  O   UNK N   1      21.545  11.764  11.455  0.00  0.00    -0.774 OA
HETATM   40  H   UNK N   1      21.233  11.365  12.243  0.00  0.00     0.167 HD
ENDBRANCH  37  39
ENDBRANCH  35  37
BRANCH  35  41
HETATM   41  O   UNK N   1      22.394  11.582   8.582  0.00  0.00    -0.379 OA
HETATM   42  H   UNK N   1      21.709  11.228   7.995  0.00  0.00     0.211 HD
ENDBRANCH  35  41
ENDBRANCH  34  35
ENDBRANCH  31  34
ENDBRANCH  18  20
ENDBRANCH  17  18
ENDBRANCH   7  16
BRANCH   9  43
HETATM   43  O   UNK N   1      30.705  12.720   3.801  0.00  0.00    -0.388 OA
HETATM   44  H   UNK N   1      30.523  12.178   4.585  0.00  0.00     0.210 HD
ENDBRANCH   9  43
BRANCH  10  45
HETATM   45  C   UNK N   1      34.275  15.269   5.653  0.00  0.00     0.151 C 
BRANCH  45  46
HETATM   46  C   UNK N   1      33.523  14.647   6.841  0.00  0.00     0.041 C 
BRANCH  46  47
HETATM   47  C   UNK N   1      33.594  15.466   8.146  0.00  0.00     0.013 C 
HETATM   48  C   UNK N   1      32.158  15.746   8.562  0.00  0.00     0.012 C 
BRANCH  47  49
HETATM   49  C   UNK N   1      34.361  14.699   9.249  0.00  0.00     0.132 C 
HETATM   50  C   UNK N   1      34.508  15.513  10.569  0.00  0.00     0.011 C 
HETATM   51  C   UNK N   1      35.186  16.855  10.338  0.00  0.00     0.012 C 
HETATM   52  C   UNK N   1      35.340  14.750  11.601  0.00  0.00     0.012 C 
HETATM   53  C   UNK N   1      35.775  13.383  11.081  0.00  0.00     0.069 C 
HETATM   54  C   UNK N   1      36.389  13.504   9.666  0.00  0.00     0.164 C 
HETATM   55  C   UNK N   1      37.791  14.137   9.860  0.00  0.00     0.068 C 
HETATM   56  O   UNK N   1      36.429  12.181   9.134  0.00  0.00    -0.355 OA
HETATM   57  O   UNK N   1      35.651  14.342   8.772  0.00  0.00    -0.349 OA
HETATM   58  C   UNK N   1      38.783  13.064  10.299  0.00  0.00     0.007 C 
HETATM   59  C   UNK N   1      38.824  11.927   9.272  0.00  0.00     0.026 C 
HETATM   60  C   UNK N   1      37.592  11.961   8.364  0.00  0.00     0.171 C 
ENDBRANCH  47  49
ENDBRANCH  46  47
ENDBRANCH  45  46
BRANCH  45  61
HETATM   61  O   UNK N   1      35.643  15.303   5.942  0.00  0.00    -0.393 OA
HETATM   62  H   UNK N   1      36.163  16.010   6.356  0.00  0.00     0.210 HD
ENDBRANCH  45  61
ENDBRANCH  10  45
TORSDOF 15
ENDMDL
MODEL 8
REMARK VINA RESULT:      -8.3      3.713      8.661
REMARK  15 active torsions:
REMARK  status: ('A' for Active; 'I' for Inactive)
REMARK    1  A    between atoms: C_26  and  C_9 
REMARK    2  A    between atoms: C_30  and  C_10 
REMARK    3  A    between atoms: C_28  and  C_22 
REMARK    4  A    between atoms: C_32  and  C_22 
REMARK    5  A    between atoms: C_31  and  C_24 
REMARK    6  A    between atoms: C_41  and  C_24 
REMARK    7  A    between atoms: C_34  and  C_26 
REMARK    8  A    between atoms: C_37  and  C_28 
REMARK    9  A    between atoms: C_38  and  C_32 
REMARK   10  A    between atoms: C_32  and  O_45 
REMARK   11  A    between atoms: C_35  and  O_46 
REMARK   12  A    between atoms: C_36  and  O_47 
REMARK   13  A    between atoms: C_41  and  C_40 
REMARK   14  A    between atoms: O_49  and  C_40 
REMARK   15  A    between atoms: C_41  and  O_50 
ROOT
HETATM    1  C   UNK N   1      27.038  11.863   1.635  0.00  0.00     0.020 C 
HETATM    2  C   UNK N   1      28.153  18.036   4.264  0.00  0.00     0.041 C 
HETATM    3  C   UNK N   1      25.418  14.676   5.708  0.00  0.00     0.040 C 
HETATM    4  C   UNK N   1      27.310  17.095   3.444  0.00  0.00     0.071 C 
HETATM    5  C   UNK N   1      25.561  15.743   4.623  0.00  0.00     0.071 C 
HETATM    6  C   UNK N   1      26.802  12.080   2.935  0.00  0.00    -0.027 C 
HETATM    7  C   UNK N   1      28.601  17.194   5.433  0.00  0.00     0.148 C 
HETATM    8  C   UNK N   1      26.206  13.397   5.385  0.00  0.00     0.154 C 
HETATM    9  C   UNK N   1      27.928  12.361   3.891  0.00  0.00     0.180 C 
HETATM   10  C   UNK N   1      25.384  12.118   3.479  0.00  0.00     0.181 C 
HETATM   11  C   UNK N   1      27.569  13.640   4.642  0.00  0.00     0.187 C 
HETATM   12  C   UNK N   1      27.046  15.912   4.360  0.00  0.00     0.165 C 
HETATM   13  O   UNK N   1      25.337  12.395   4.868  0.00  0.00    -0.371 OA
HETATM   14  O   UNK N   1      27.681  16.160   5.602  0.00  0.00    -0.346 OA
HETATM   15  O   UNK N   1      27.525  14.731   3.731  0.00  0.00    -0.344 OA
ENDROOT
BRANCH   7  16
HETATM   16  C   UNK N   1      29.943  16.560   5.218  0.00  0.00     0.001 C 
HETATM   17  C   UNK N   1      30.979  17.289   4.785  0.00  0.00    -0.021 C 
BRANCH  17  18
HETATM   18  C   UNK N   1      32.375  16.723   4.669  0.00  0.00     0.033 C 
HETATM   19  C   UNK N   1      32.921  17.155   3.311  0.00  0.00     0.017 C 
BRANCH  18  20
HETATM   20  C   UNK N   1      33.323  17.253   5.787  0.00  0.00     0.136 C 
HETATM   21  C   UNK N   1      32.635  17.706   7.077  0.00  0.00     0.066 C 
HETATM   22  C   UNK N   1      32.502  16.614   8.081  0.00  0.00    -0.080 C 
HETATM   23  C   UNK N   1      31.539  16.756   9.209  0.00  0.00     0.043 C 
HETATM   24  C   UNK N   1      33.288  15.545   8.031  0.00  0.00     0.046 C 
HETATM   25  C   UNK N   1      34.339  15.333   6.954  0.00  0.00     0.211 C 
HETATM   26  C   UNK N   1      34.037  14.026   6.162  0.00  0.00     0.185 C 
HETATM   27  O   UNK N   1      35.632  15.279   7.572  0.00  0.00    -0.344 OA
HETATM   28  O   UNK N   1      34.441  16.406   6.017  0.00  0.00    -0.343 OA
HETATM   29  C   UNK N   1      34.249  12.803   7.022  0.00  0.00     0.040 C 
HETATM   30  C   UNK N   1      35.676  12.824   7.497  0.00  0.00     0.035 C 
HETATM   31  C   UNK N   1      35.931  14.093   8.307  0.00  0.00     0.129 C 
BRANCH  26  32
HETATM   32  O   UNK N   1      32.726  13.985   5.701  0.00  0.00    -0.390 OA
HETATM   33  H   UNK N   1      31.966  14.584   5.637  0.00  0.00     0.210 HD
ENDBRANCH  26  32
BRANCH  31  34
HETATM   34  C   UNK N   1      35.281  14.120   9.707  0.00  0.00     0.080 C 
BRANCH  34  35
HETATM   35  C   UNK N   1      35.961  14.965  10.798  0.00  0.00     0.141 C 
HETATM   36  C   UNK N   1      35.175  16.258  10.975  0.00  0.00     0.057 C 
BRANCH  35  37
HETATM   37  C   UNK N   1      36.103  14.217  12.106  0.00  0.00     0.175 C 
HETATM   38  O   UNK N   1      35.196  14.208  12.924  0.00  0.00    -0.648 OA
BRANCH  37  39
HETATM   39  O   UNK N   1      37.242  13.548  12.374  0.00  0.00    -0.774 OA
HETATM   40  H   UNK N   1      38.148  13.442  12.161  0.00  0.00     0.167 HD
ENDBRANCH  37  39
ENDBRANCH  35  37
BRANCH  35  41
HETATM   41  O   UNK N   1      37.234  15.309  10.345  0.00  0.00    -0.379 OA
HETATM   42  H   UNK N   1      37.449  15.471   9.413  0.00  0.00     0.211 HD
ENDBRANCH  35  41
ENDBRANCH  34  35
ENDBRANCH  31  34
ENDBRANCH  18  20
ENDBRANCH  17  18
ENDBRANCH   7  16
BRANCH   9  43
HETATM   43  O   UNK N   1      29.150  12.492   3.226  0.00  0.00    -0.388 OA
HETATM   44  H   UNK N   1      30.062  12.285   3.485  0.00  0.00     0.210 HD
ENDBRANCH   9  43
BRANCH  10  45
HETATM   45  C   UNK N   1      24.452  13.086   2.718  0.00  0.00     0.151 C 
BRANCH  45  46
HETATM   46  C   UNK N   1      23.234  13.475   3.569  0.00  0.00     0.041 C 
BRANCH  46  47
HETATM   47  C   UNK N   1      22.237  14.422   2.870  0.00  0.00     0.013 C 
HETATM   48  C   UNK N   1      21.643  13.644   1.706  0.00  0.00     0.012 C 
BRANCH  47  49
HETATM   49  C   UNK N   1      21.138  14.902   3.847  0.00  0.00     0.132 C 
HETATM   50  C   UNK N   1      20.626  16.339   3.531  0.00  0.00     0.011 C 
HETATM   51  C   UNK N   1      21.757  17.356   3.521  0.00  0.00     0.012 C 
HETATM   52  C   UNK N   1      19.600  16.802   4.568  0.00  0.00     0.012 C 
HETATM   53  C   UNK N   1      19.324  15.725   5.613  0.00  0.00     0.069 C 
HETATM   54  C   UNK N   1      20.647  15.151   6.174  0.00  0.00     0.164 C 
HETATM   55  C   UNK N   1      21.225  16.242   7.111  0.00  0.00     0.068 C 
HETATM   56  O   UNK N   1      20.303  13.942   6.849  0.00  0.00    -0.355 OA
HETATM   57  O   UNK N   1      21.633  14.861   5.178  0.00  0.00    -0.349 OA
HETATM   58  C   UNK N   1      20.521  16.184   8.463  0.00  0.00     0.007 C 
HETATM   59  C   UNK N   1      20.667  14.789   9.079  0.00  0.00     0.026 C 
HETATM   60  C   UNK N   1      21.071  13.759   8.020  0.00  0.00     0.171 C 
ENDBRANCH  47  49
ENDBRANCH  46  47
ENDBRANCH  45  46
BRANCH  45  61
HETATM   61  O   UNK N   1      25.144  14.244   2.350  0.00  0.00    -0.393 OA
HETATM   62  H   UNK N   1      26.098  14.420   2.375  0.00  0.00     0.210 HD
ENDBRANCH  45  61
ENDBRANCH  10  45
TORSDOF 15
ENDMDL
MODEL 9
REMARK VINA RESULT:      -8.3      3.496     13.814
REMARK  15 active torsions:
REMARK  status: ('A' for Active; 'I' for Inactive)
REMARK    1  A    between atoms: C_26  and  C_9 
REMARK    2  A    between atoms: C_30  and  C_10 
REMARK    3  A    between atoms: C_28  and  C_22 
REMARK    4  A    between atoms: C_32  and  C_22 
REMARK    5  A    between atoms: C_31  and  C_24 
REMARK    6  A    between atoms: C_41  and  C_24 
REMARK    7  A    between atoms: C_34  and  C_26 
REMARK    8  A    between atoms: C_37  and  C_28 
REMARK    9  A    between atoms: C_38  and  C_32 
REMARK   10  A    between atoms: C_32  and  O_45 
REMARK   11  A    between atoms: C_35  and  O_46 
REMARK   12  A    between atoms: C_36  and  O_47 
REMARK   13  A    between atoms: C_41  and  C_40 
REMARK   14  A    between atoms: O_49  and  C_40 
REMARK   15  A    between atoms: C_41  and  O_50 
ROOT
HETATM    1  C   UNK N   1      33.663  12.657   8.977  0.00  0.00     0.020 C 
HETATM    2  C   UNK N   1      29.434  17.826   7.691  0.00  0.00     0.041 C 
HETATM    3  C   UNK N   1      33.961  17.533   7.174  0.00  0.00     0.040 C 
HETATM    4  C   UNK N   1      30.438  17.147   8.585  0.00  0.00     0.071 C 
HETATM    5  C   UNK N   1      32.866  17.654   8.233  0.00  0.00     0.071 C 
HETATM    6  C   UNK N   1      34.019  13.597   8.093  0.00  0.00    -0.027 C 
HETATM    7  C   UNK N   1      29.989  17.620   6.304  0.00  0.00     0.148 C 
HETATM    8  C   UNK N   1      34.186  16.082   6.720  0.00  0.00     0.154 C 
HETATM    9  C   UNK N   1      33.295  13.743   6.784  0.00  0.00     0.180 C 
HETATM   10  C   UNK N   1      35.120  14.593   8.409  0.00  0.00     0.181 C 
HETATM   11  C   UNK N   1      32.883  15.207   6.662  0.00  0.00     0.187 C 
HETATM   12  C   UNK N   1      31.651  16.916   7.701  0.00  0.00     0.165 C 
HETATM   13  O   UNK N   1      35.328  15.530   7.366  0.00  0.00    -0.371 OA
HETATM   14  O   UNK N   1      31.365  17.425   6.410  0.00  0.00    -0.346 OA
HETATM   15  O   UNK N   1      31.946  15.525   7.683  0.00  0.00    -0.344 OA
ENDROOT
BRANCH   7  16
HETATM   16  C   UNK N   1      29.423  16.411   5.620  0.00  0.00     0.001 C 
HETATM   17  C   UNK N   1      28.099  16.247   5.511  0.00  0.00    -0.021 C 
BRANCH  17  18
HETATM   18  C   UNK N   1      27.487  15.110   4.728  0.00  0.00     0.033 C 
HETATM   19  C   UNK N   1      28.441  13.924   4.840  0.00  0.00     0.017 C 
BRANCH  18  20
HETATM   20  C   UNK N   1      26.093  14.690   5.285  0.00  0.00     0.136 C 
HETATM   21  C   UNK N   1      25.222  15.832   5.816  0.00  0.00     0.066 C 
HETATM   22  C   UNK N   1      24.332  16.419   4.776  0.00  0.00    -0.080 C 
HETATM   23  C   UNK N   1      23.714  17.756   4.997  0.00  0.00     0.043 C 
HETATM   24  C   UNK N   1      24.014  15.730   3.686  0.00  0.00     0.046 C 
HETATM   25  C   UNK N   1      24.547  14.337   3.396  0.00  0.00     0.211 C 
HETATM   26  C   UNK N   1      25.351  14.338   2.061  0.00  0.00     0.185 C 
HETATM   27  O   UNK N   1      23.444  13.422   3.337  0.00  0.00    -0.344 OA
HETATM   28  O   UNK N   1      25.390  13.807   4.420  0.00  0.00    -0.343 OA
HETATM   29  C   UNK N   1      24.443  14.558   0.875  0.00  0.00     0.040 C 
HETATM   30  C   UNK N   1      23.416  13.458   0.880  0.00  0.00     0.035 C 
HETATM   31  C   UNK N   1      22.615  13.508   2.180  0.00  0.00     0.129 C 
BRANCH  26  32
HETATM   32  O   UNK N   1      26.316  15.339   2.033  0.00  0.00    -0.390 OA
HETATM   33  H   UNK N   1      26.742  15.910   1.375  0.00  0.00     0.210 HD
ENDBRANCH  26  32
BRANCH  31  34
HETATM   34  C   UNK N   1      21.616  14.680   2.290  0.00  0.00     0.080 C 
BRANCH  34  35
HETATM   35  C   UNK N   1      20.510  14.582   3.355  0.00  0.00     0.141 C 
HETATM   36  C   UNK N   1      20.316  15.957   3.984  0.00  0.00     0.057 C 
BRANCH  35  37
HETATM   37  C   UNK N   1      19.212  14.039   2.795  0.00  0.00     0.175 C 
HETATM   38  O   UNK N   1      18.562  13.211   3.413  0.00  0.00    -0.648 OA
BRANCH  37  39
HETATM   39  O   UNK N   1      18.765  14.476   1.601  0.00  0.00    -0.774 OA
HETATM   40  H   UNK N   1      18.931  14.524   0.681  0.00  0.00     0.167 HD
ENDBRANCH  37  39
ENDBRANCH  35  37
BRANCH  35  41
HETATM   41  O   UNK N   1      20.953  13.722   4.358  0.00  0.00    -0.379 OA
HETATM   42  H   UNK N   1      21.529  13.997   5.088  0.00  0.00     0.211 HD
ENDBRANCH  35  41
ENDBRANCH  34  35
ENDBRANCH  31  34
ENDBRANCH  18  20
ENDBRANCH  17  18
ENDBRANCH   7  16
BRANCH   9  43
HETATM   43  O   UNK N   1      32.184  12.898   6.710  0.00  0.00    -0.388 OA
HETATM   44  H   UNK N   1      31.333  12.893   7.175  0.00  0.00     0.210 HD
ENDBRANCH   9  43
BRANCH  10  45
HETATM   45  C   UNK N   1      34.924  15.333   9.750  0.00  0.00     0.151 C 
BRANCH  45  46
HETATM   46  C   UNK N   1      35.513  14.535  10.923  0.00  0.00     0.041 C 
BRANCH  46  47
HETATM   47  C   UNK N   1      36.685  13.606  10.543  0.00  0.00     0.013 C 
HETATM   48  C   UNK N   1      37.813  14.503  10.060  0.00  0.00     0.012 C 
BRANCH  47  49
HETATM   49  C   UNK N   1      37.128  12.741  11.748  0.00  0.00     0.132 C 
HETATM   50  C   UNK N   1      37.295  11.235  11.388  0.00  0.00     0.011 C 
HETATM   51  C   UNK N   1      36.022  10.645  10.799  0.00  0.00     0.012 C 
HETATM   52  C   UNK N   1      37.656  10.407  12.624  0.00  0.00     0.012 C 
HETATM   53  C   UNK N   1      37.790  11.277  13.870  0.00  0.00     0.069 C 
HETATM   54  C   UNK N   1      36.574  12.222  14.015  0.00  0.00     0.164 C 
HETATM   55  C   UNK N   1      35.393  11.332  14.479  0.00  0.00     0.068 C 
HETATM   56  O   UNK N   1      36.950  13.214  14.969  0.00  0.00    -0.355 OA
HETATM   57  O   UNK N   1      36.183  12.871  12.801  0.00  0.00    -0.349 OA
HETATM   58  C   UNK N   1      35.494  11.085  15.980  0.00  0.00     0.007 C 
HETATM   59  C   UNK N   1      35.517  12.416  16.738  0.00  0.00     0.026 C 
HETATM   60  C   UNK N   1      35.869  13.576  15.803  0.00  0.00     0.171 C 
ENDBRANCH  47  49
ENDBRANCH  46  47
ENDBRANCH  45  46
BRANCH  45  61
HETATM   61  O   UNK N   1      35.524  16.596   9.704  0.00  0.00    -0.393 OA
HETATM   62  H   UNK N   1      35.978  17.083  10.410  0.00  0.00     0.210 HD
ENDBRANCH  45  61
ENDBRANCH  10  45
TORSDOF 15
ENDMDL
