REMARK  7 active torsions:
REMARK  status: ('A' for Active; 'I' for Inactive)
REMARK    1  A    between atoms: C_4  and  O_23 
REMARK    2  A    between atoms: C_6  and  O_18 
REMARK    3  A    between atoms: N_10  and  C_7 
REMARK    4  A    between atoms: C_9  and  N_17 
REMARK    5  A    between atoms: P_24  and  O_19 
REMARK    6  A    between atoms: P_24  and  O_20 
REMARK    7  A    between atoms: P_24  and  O_23 
ROOT
HETATM    1  C   UNK N   1       4.356   2.183  -0.085  0.00  0.00     0.183 A 
HETATM    2  C   UNK N   1      -0.045   2.656   0.111  0.00  0.00     0.188 A 
HETATM    3  C   UNK N   1       1.935   3.429  -0.151  0.00  0.00     0.122 A 
HETATM    4  C   UNK N   1       3.085   4.186  -0.316  0.00  0.00     0.131 A 
HETATM    5  C   UNK N   1       2.022   2.099   0.038  0.00  0.00     0.142 A 
HETATM    6  N   UNK N   1       4.289   3.540  -0.281  0.00  0.00    -0.337 N 
ATOM      7  HN  UNK N   1       5.150   4.074  -0.402  1.00  0.00     0.168 HD
HETATM    8  N   UNK N   1       3.212   1.452   0.081  0.00  0.00    -0.336 N 
ATOM      9  HN  UNK N   1       3.254   0.444   0.234  1.00  0.00     0.168 HD
HETATM   10  N   UNK N   1       0.644   3.810  -0.118  0.00  0.00    -0.346 N 
ATOM     11  HN  UNK N   1       0.267   4.751  -0.238  1.00  0.00     0.167 HD
HETATM   12  N   UNK N   1       0.789   1.586   0.196  0.00  0.00    -0.297 N 
ENDROOT
BRANCH  12  13
HETATM   13  C   UNK N   1       0.397   0.203   0.513  0.00  0.00     0.261 C 
HETATM   14  C   UNK N   1       1.386  -0.827  -0.017  0.00  0.00     0.199 C 
HETATM   15  C   UNK N   1       0.514  -2.046  -0.280  0.00  0.00     0.190 C 
HETATM   16  C   UNK N   1      -0.855  -1.545   0.137  0.00  0.00     0.205 C 
HETATM   17  O   UNK N   1      -0.833  -0.148  -0.066  0.00  0.00    -0.361 OA
BRANCH  14  18
HETATM   18  O   UNK N   1       2.394  -1.045   0.926  0.00  0.00    -0.388 OA
HETATM   19  H   UNK N   1       2.613  -1.727   1.580  0.00  0.00     0.210 HD
ENDBRANCH  14  18
BRANCH  15  20
HETATM   20  O   UNK N   1       0.914  -3.195   0.442  0.00  0.00    -0.287 OA
BRANCH  20  21
HETATM   21  P   UNK N   1       2.054  -4.080  -0.561  0.00  0.00     0.391 P 
HETATM   22  O   UNK N   1       3.014  -3.566   0.543  0.00  0.00    -0.632 OA
BRANCH  21  23
HETATM   23  O   UNK N   1       2.842  -5.536  -0.042  0.00  0.00    -0.307 OA
HETATM   24  H   UNK N   1       2.358  -6.325   0.248  0.00  0.00     0.222 HD
ENDBRANCH  21  23
BRANCH  21  25
HETATM   25  O   UNK N   1       0.935  -5.179   0.182  0.00  0.00    -0.307 OA
HETATM   26  H   UNK N   1       0.090  -4.944   0.597  0.00  0.00     0.222 HD
ENDBRANCH  21  25
ENDBRANCH  20  21
ENDBRANCH  15  20
ENDBRANCH  12  13
BRANCH   4  27
HETATM   27  N   UNK N   1       3.026   5.581  -0.498  0.00  0.00    -0.383 N 
HETATM   28  H   UNK N   1       3.850   6.105  -0.626  0.00  0.00     0.157 HD
HETATM   29  H   UNK N   1       2.153   6.037  -0.498  0.00  0.00     0.157 HD
ENDBRANCH   4  27
TORSDOF 7
