REMARK  16 active torsions:
REMARK  status: ('A' for Active; 'I' for Inactive)
REMARK    1  A    between atoms: C_26  and  C_19 
REMARK    2  A    between atoms: C_29  and  C_19 
REMARK    3  A    between atoms: C_29  and  C_20 
REMARK    4  A    between atoms: C_30  and  C_20 
REMARK    5  A    between atoms: C_30  and  C_23 
REMARK    6  A    between atoms: N_45  and  C_23 
REMARK    7  A    between atoms: C_31  and  C_24 
REMARK    8  A    between atoms: N_44  and  C_24 
REMARK    9  A    between atoms: C_29  and  C_37 
REMARK   10  A    between atoms: C_30  and  O_46 
REMARK   11  A    between atoms: C_33  and  C_38 
REMARK   12  A    between atoms: C_34  and  O_47 
REMARK   13  A    between atoms: C_36  and  N_40 
REMARK   14  A    between atoms: C_37  and  O_48 
REMARK   15  A    between atoms: O_49  and  C_38 
REMARK   16  A    between atoms: N_42  and  C_39 
ROOT
HETATM    1  C   UNK N   1      -2.417   5.075  -0.463  0.00  0.00     0.147 C 
ENDROOT
BRANCH   1   2
HETATM    2  C   UNK N   1      -1.413   5.460   0.635  0.00  0.00     0.046 C 
BRANCH   2   3
HETATM    3  C   UNK N   1      -0.479   6.661   0.427  0.00  0.00     0.067 C 
BRANCH   3   4
HETATM    4  C   UNK N   1      -1.119   7.715  -0.490  0.00  0.00     0.051 C 
BRANCH   4   5
HETATM    5  C   UNK N   1      -0.818   9.143  -0.171  0.00  0.00    -0.057 A 
HETATM    6  C   UNK N   1      -1.885  10.016   0.058  0.00  0.00     0.007 A 
HETATM    7  C   UNK N   1      -1.645  11.367   0.321  0.00  0.00     0.001 A 
HETATM    8  C   UNK N   1      -0.333  11.848   0.355  0.00  0.00     0.000 A 
HETATM    9  C   UNK N   1       0.737  10.980   0.122  0.00  0.00     0.001 A 
HETATM   10  C   UNK N   1       0.494   9.630  -0.149  0.00  0.00     0.007 A 
ENDBRANCH   4   5
ENDBRANCH   3   4
BRANCH   3  11
HETATM   11  C   UNK N   1       0.868   6.217  -0.101  0.00  0.00     0.116 C 
HETATM   12  N   UNK N   1       1.863   7.040  -0.060  0.00  0.00    -0.363 N 
ATOM     13  HN  UNK N   1       1.701   7.956   0.358  1.00  0.00     0.162 HD
BRANCH  12  14
HETATM   14  C   UNK N   1       3.194   6.754  -0.564  0.00  0.00     0.146 C 
HETATM   15  C   UNK N   1       4.145   7.842  -0.236  0.00  0.00    -0.027 A 
HETATM   16  C   UNK N   1       3.928   9.218  -0.346  0.00  0.00     0.010 A 
HETATM   17  C   UNK N   1       5.368   7.346   0.130  0.00  0.00    -0.047 A 
HETATM   18  C   UNK N   1       4.978  10.092  -0.026  0.00  0.00     0.001 A 
HETATM   19  C   UNK N   1       6.230   9.581   0.362  0.00  0.00     0.001 A 
HETATM   20  C   UNK N   1       6.435   8.194   0.428  0.00  0.00     0.008 A 
HETATM   21  C   UNK N   1       5.400   5.864   0.103  0.00  0.00     0.073 C 
HETATM   22  C   UNK N   1       3.895   5.544   0.122  0.00  0.00     0.149 C 
BRANCH  22  23
HETATM   23  O   UNK N   1       3.515   5.475   1.467  0.00  0.00    -0.393 OA
HETATM   24  H   UNK N   1       3.342   5.680   2.399  0.00  0.00     0.210 HD
ENDBRANCH  22  23
ENDBRANCH  12  14
BRANCH  11  25
HETATM   25  O   UNK N   1       1.035   4.964  -0.579  0.00  0.00    -0.349 OA
HETATM   26  H   UNK N   1       0.340   4.429  -0.910  0.00  0.00     0.219 HD
ENDBRANCH  11  25
ENDBRANCH   3  11
ENDBRANCH   2   3
ENDBRANCH   1   2
BRANCH   1  27
HETATM   27  C   UNK N   1      -2.387   3.565  -0.743  0.00  0.00     0.305 C 
BRANCH  27  28
HETATM   28  N   UNK N   1      -2.337   2.794   0.501  0.00  0.00     0.106 N 
HETATM   29  C   UNK N   1      -0.914   2.492   0.732  0.00  0.00     0.303 C 
HETATM   30  C   UNK N   1      -0.678   1.087   1.277  0.00  0.00     0.303 C 
HETATM   31  N   UNK N   1      -1.193   0.056   0.354  0.00  0.00     0.098 N 
HETATM   32  C   UNK N   1      -2.522   0.394  -0.190  0.00  0.00     0.317 C 
HETATM   33  C   UNK N   1      -3.207   1.589   0.511  0.00  0.00     0.324 C 
BRANCH  31  34
HETATM   34  C   UNK N   1      -0.330  -0.149  -0.818  0.00  0.00     0.337 C 
BRANCH  34  35
HETATM   35  C   UNK N   1       1.138   0.030  -0.563  0.00  0.00     0.083 A 
HETATM   36  C   UNK N   1       1.974  -0.810   0.181  0.00  0.00     0.049 A 
HETATM   37  C   UNK N   1       3.200  -0.183   0.116  0.00  0.00     0.000 A 
HETATM   38  C   UNK N   1       4.436  -0.533   0.663  0.00  0.00     0.014 A 
HETATM   39  C   UNK N   1       3.052   0.956  -0.627  0.00  0.00     0.086 A 
HETATM   40  C   UNK N   1       5.525   0.330   0.427  0.00  0.00     0.001 A 
HETATM   41  C   UNK N   1       5.356   1.508  -0.338  0.00  0.00     0.003 A 
HETATM   42  C   UNK N   1       4.097   1.828  -0.878  0.00  0.00     0.038 A 
HETATM   43  O   UNK N   1       1.809   1.060  -1.025  0.00  0.00    -0.312 OA
ENDBRANCH  34  35
ENDBRANCH  31  34
BRANCH  33  44
HETATM   44  C   UNK N   1      -4.584   1.862  -0.060  0.00  0.00     0.148 C 
HETATM   45  N   UNK N   1      -5.295   2.825   0.441  0.00  0.00    -0.364 N 
ATOM     46  HN  UNK N   1      -4.856   3.354   1.196  1.00  0.00     0.162 HD
BRANCH  45  47
HETATM   47  C   UNK N   1      -6.641   3.252   0.066  0.00  0.00     0.021 C 
HETATM   48  C   UNK N   1      -7.494   3.291   1.316  0.00  0.00     0.037 C 
HETATM   49  C   UNK N   1      -7.350   2.368  -0.951  0.00  0.00     0.037 C 
HETATM   50  C   UNK N   1      -6.573   4.655  -0.500  0.00  0.00     0.037 C 
ENDBRANCH  45  47
BRANCH  44  51
HETATM   51  O   UNK N   1      -5.042   1.105  -1.080  0.00  0.00    -0.348 OA
HETATM   52  H   UNK N   1      -5.656   1.118  -1.788  0.00  0.00     0.219 HD
ENDBRANCH  44  51
ENDBRANCH  33  44
ENDBRANCH  27  28
ENDBRANCH   1  27
BRANCH   1  53
HETATM   53  O   UNK N   1      -3.689   5.444  -0.026  0.00  0.00    -0.394 OA
HETATM   54  H   UNK N   1      -3.909   6.338   0.279  0.00  0.00     0.210 HD
ENDBRANCH   1  53
TORSDOF 16
