MODEL 1
REMARK VINA RESULT:      -5.8      0.000      0.000
REMARK  11 active torsions:
REMARK  status: ('A' for Active; 'I' for Inactive)
REMARK    1  A    between atoms: C_2  and  O_1 
REMARK    2  A    between atoms: C_4  and  O_7 
REMARK    3  A    between atoms: C_5  and  C_8 
REMARK    4  A    between atoms: C_6  and  O_9 
REMARK    5  A    between atoms: C_8  and  S_10 
REMARK    6  A    between atoms: S_10  and  C_11 
REMARK    7  A    between atoms: C_11  and  C_12 
REMARK    8  A    between atoms: C_12  and  C_13 
REMARK    9  A    between atoms: C_13  and  C_14 
REMARK   10  A    between atoms: C_13  and  N_15 
REMARK   11  A    between atoms: C_14  and  O_16 
ROOT
HETATM    1  C   UNK N   1      20.894  17.551   4.243  0.00  0.00     0.108 C 
ENDROOT
BRANCH   1   2
HETATM    2  C   UNK N   1      20.618  18.883   3.573  0.00  0.00     0.165 C 
HETATM    3  O   UNK N   1      21.728  19.743   3.696  0.00  0.00    -0.350 OA
HETATM    4  C   UNK N   1      21.827  20.410   2.456  0.00  0.00     0.288 C 
HETATM    5  C   UNK N   1      20.582  20.095   1.664  0.00  0.00     0.204 C 
HETATM    6  C   UNK N   1      20.363  18.698   2.098  0.00  0.00     0.181 C 
BRANCH   4   7
HETATM    7  O   UNK N   1      21.921  21.787   2.654  0.00  0.00    -0.369 OA
HETATM    8  H   UNK N   1      22.660  22.257   3.073  0.00  0.00     0.212 HD
ENDBRANCH   4   7
BRANCH   5   9
HETATM    9  O   UNK N   1      20.811  20.177   0.292  0.00  0.00    -0.388 OA
HETATM   10  H   UNK N   1      20.719  20.897  -0.351  0.00  0.00     0.210 HD
ENDBRANCH   5   9
BRANCH   6  11
HETATM   11  O   UNK N   1      19.053  18.294   1.842  0.00  0.00    -0.390 OA
HETATM   12  H   UNK N   1      18.278  18.349   2.424  0.00  0.00     0.210 HD
ENDBRANCH   6  11
ENDBRANCH   1   2
BRANCH   1  13
HETATM   13  S   UNK N   1      22.508  17.606   5.078  0.00  0.00    -0.166 SA
BRANCH  13  14
HETATM   14  C   UNK N   1      21.869  16.806   6.580  0.00  0.00     0.076 C 
BRANCH  14  15
HETATM   15  C   UNK N   1      20.591  17.467   7.065  0.00  0.00     0.045 C 
BRANCH  15  16
HETATM   16  C   UNK N   1      20.296  17.065   8.498  0.00  0.00     0.174 C 
BRANCH  16  17
HETATM   17  C   UNK N   1      19.526  18.153   9.183  0.00  0.00     0.163 C 
HETATM   18  O   UNK N   1      20.124  19.087   9.694  0.00  0.00    -0.648 OA
BRANCH  17  19
HETATM   19  O   UNK N   1      18.182  18.103   9.257  0.00  0.00    -0.775 OA
HETATM   20  H   UNK N   1      17.558  17.441   9.485  0.00  0.00     0.167 HD
ENDBRANCH  17  19
ENDBRANCH  16  17
BRANCH  16  21
HETATM   21  N   UNK N   1      19.559  15.811   8.508  0.00  0.00    -0.418 N 
HETATM   22  H   UNK N   1      19.347  15.224   9.315  0.00  0.00     0.150 HD
HETATM   23  H   UNK N   1      19.216  15.482   7.606  0.00  0.00     0.150 HD
ENDBRANCH  16  21
ENDBRANCH  15  16
ENDBRANCH  14  15
ENDBRANCH  13  14
ENDBRANCH   1  13
TORSDOF 11
ENDMDL
MODEL 2
REMARK VINA RESULT:      -5.5     11.217     12.876
REMARK  11 active torsions:
REMARK  status: ('A' for Active; 'I' for Inactive)
REMARK    1  A    between atoms: C_2  and  O_1 
REMARK    2  A    between atoms: C_4  and  O_7 
REMARK    3  A    between atoms: C_5  and  C_8 
REMARK    4  A    between atoms: C_6  and  O_9 
REMARK    5  A    between atoms: C_8  and  S_10 
REMARK    6  A    between atoms: S_10  and  C_11 
REMARK    7  A    between atoms: C_11  and  C_12 
REMARK    8  A    between atoms: C_12  and  C_13 
REMARK    9  A    between atoms: C_13  and  C_14 
REMARK   10  A    between atoms: C_13  and  N_15 
REMARK   11  A    between atoms: C_14  and  O_16 
ROOT
HETATM    1  C   UNK N   1      32.545  17.550   7.270  0.00  0.00     0.108 C 
ENDROOT
BRANCH   1   2
HETATM    2  C   UNK N   1      33.053  17.286   8.675  0.00  0.00     0.165 C 
HETATM    3  O   UNK N   1      32.636  16.018   9.127  0.00  0.00    -0.350 OA
HETATM    4  C   UNK N   1      33.738  15.490   9.833  0.00  0.00     0.288 C 
HETATM    5  C   UNK N   1      34.751  16.594   9.998  0.00  0.00     0.204 C 
HETATM    6  C   UNK N   1      34.561  17.294   8.708  0.00  0.00     0.181 C 
BRANCH   4   7
HETATM    7  O   UNK N   1      33.333  15.034  11.088  0.00  0.00    -0.369 OA
HETATM    8  H   UNK N   1      32.736  14.289  11.263  0.00  0.00     0.212 HD
ENDBRANCH   4   7
BRANCH   5   9
HETATM    9  O   UNK N   1      36.045  16.091  10.122  0.00  0.00    -0.388 OA
HETATM   10  H   UNK N   1      36.681  15.738   9.480  0.00  0.00     0.210 HD
ENDBRANCH   5   9
BRANCH   6  11
HETATM   11  O   UNK N   1      35.074  18.590   8.762  0.00  0.00    -0.390 OA
HETATM   12  H   UNK N   1      35.511  19.038   9.503  0.00  0.00     0.210 HD
ENDBRANCH   6  11
ENDBRANCH   1   2
BRANCH   1  13
HETATM   13  S   UNK N   1      31.225  16.367   6.863  0.00  0.00    -0.166 SA
BRANCH  13  14
HETATM   14  C   UNK N   1      29.911  17.602   7.098  0.00  0.00     0.076 C 
BRANCH  14  15
HETATM   15  C   UNK N   1      28.642  16.970   7.640  0.00  0.00     0.045 C 
BRANCH  15  16
HETATM   16  C   UNK N   1      28.186  17.688   8.896  0.00  0.00     0.174 C 
BRANCH  16  17
HETATM   17  C   UNK N   1      29.327  17.801   9.860  0.00  0.00     0.163 C 
HETATM   18  O   UNK N   1      29.697  18.903  10.233  0.00  0.00    -0.648 OA
BRANCH  17  19
HETATM   19  O   UNK N   1      29.962  16.700  10.308  0.00  0.00    -0.775 OA
HETATM   20  H   UNK N   1      30.325  16.438  11.131  0.00  0.00     0.167 HD
ENDBRANCH  17  19
ENDBRANCH  16  17
BRANCH  16  21
HETATM   21  N   UNK N   1      27.663  18.999   8.544  0.00  0.00    -0.418 N 
HETATM   22  H   UNK N   1      26.704  19.234   8.289  0.00  0.00     0.150 HD
HETATM   23  H   UNK N   1      28.332  19.769   8.552  0.00  0.00     0.150 HD
ENDBRANCH  16  21
ENDBRANCH  15  16
ENDBRANCH  14  15
ENDBRANCH  13  14
ENDBRANCH   1  13
TORSDOF 11
ENDMDL
MODEL 3
REMARK VINA RESULT:      -5.5     14.967     17.289
REMARK  11 active torsions:
REMARK  status: ('A' for Active; 'I' for Inactive)
REMARK    1  A    between atoms: C_2  and  O_1 
REMARK    2  A    between atoms: C_4  and  O_7 
REMARK    3  A    between atoms: C_5  and  C_8 
REMARK    4  A    between atoms: C_6  and  O_9 
REMARK    5  A    between atoms: C_8  and  S_10 
REMARK    6  A    between atoms: S_10  and  C_11 
REMARK    7  A    between atoms: C_11  and  C_12 
REMARK    8  A    between atoms: C_12  and  C_13 
REMARK    9  A    between atoms: C_13  and  C_14 
REMARK   10  A    between atoms: C_13  and  N_15 
REMARK   11  A    between atoms: C_14  and  O_16 
ROOT
HETATM    1  C   UNK N   1      35.275  12.565  10.710  0.00  0.00     0.108 C 
ENDROOT
BRANCH   1   2
HETATM    2  C   UNK N   1      35.098  13.342  12.000  0.00  0.00     0.165 C 
HETATM    3  O   UNK N   1      34.550  12.521  13.006  0.00  0.00    -0.350 OA
HETATM    4  C   UNK N   1      35.224  12.879  14.194  0.00  0.00     0.288 C 
HETATM    5  C   UNK N   1      36.030  14.122  13.908  0.00  0.00     0.204 C 
HETATM    6  C   UNK N   1      36.428  13.839  12.512  0.00  0.00     0.181 C 
BRANCH   4   7
HETATM    7  O   UNK N   1      34.305  13.140  15.211  0.00  0.00    -0.369 OA
HETATM    8  H   UNK N   1      34.324  13.893  15.822  0.00  0.00     0.212 HD
ENDBRANCH   4   7
BRANCH   5   9
HETATM    9  O   UNK N   1      37.138  14.220  14.748  0.00  0.00    -0.388 OA
HETATM   10  H   UNK N   1      38.001  13.778  14.756  0.00  0.00     0.210 HD
ENDBRANCH   5   9
BRANCH   6  11
HETATM   11  O   UNK N   1      36.833  15.004  11.861  0.00  0.00    -0.390 OA
HETATM   12  H   UNK N   1      36.515  15.371  11.021  0.00  0.00     0.210 HD
ENDBRANCH   6  11
ENDBRANCH   1   2
BRANCH   1  13
HETATM   13  S   UNK N   1      34.125  13.196   9.451  0.00  0.00    -0.166 SA
BRANCH  13  14
HETATM   14  C   UNK N   1      33.897  14.782  10.312  0.00  0.00     0.076 C 
BRANCH  14  15
HETATM   15  C   UNK N   1      33.638  15.915   9.337  0.00  0.00     0.045 C 
BRANCH  15  16
HETATM   16  C   UNK N   1      34.831  16.850   9.280  0.00  0.00     0.174 C 
BRANCH  16  17
HETATM   17  C   UNK N   1      34.507  18.038   8.427  0.00  0.00     0.163 C 
HETATM   18  O   UNK N   1      33.579  17.980   7.635  0.00  0.00    -0.648 OA
BRANCH  17  19
HETATM   19  O   UNK N   1      35.238  19.167   8.511  0.00  0.00    -0.775 OA
HETATM   20  H   UNK N   1      36.128  19.391   8.324  0.00  0.00     0.167 HD
ENDBRANCH  17  19
ENDBRANCH  16  17
BRANCH  16  21
HETATM   21  N   UNK N   1      35.196  17.255  10.629  0.00  0.00    -0.418 N 
HETATM   22  H   UNK N   1      34.568  17.427  11.414  0.00  0.00     0.150 HD
HETATM   23  H   UNK N   1      36.192  17.382  10.808  0.00  0.00     0.150 HD
ENDBRANCH  16  21
ENDBRANCH  15  16
ENDBRANCH  14  15
ENDBRANCH  13  14
ENDBRANCH   1  13
TORSDOF 11
ENDMDL
MODEL 4
REMARK VINA RESULT:      -5.4     14.529     16.444
REMARK  11 active torsions:
REMARK  status: ('A' for Active; 'I' for Inactive)
REMARK    1  A    between atoms: C_2  and  O_1 
REMARK    2  A    between atoms: C_4  and  O_7 
REMARK    3  A    between atoms: C_5  and  C_8 
REMARK    4  A    between atoms: C_6  and  O_9 
REMARK    5  A    between atoms: C_8  and  S_10 
REMARK    6  A    between atoms: S_10  and  C_11 
REMARK    7  A    between atoms: C_11  and  C_12 
REMARK    8  A    between atoms: C_12  and  C_13 
REMARK    9  A    between atoms: C_13  and  C_14 
REMARK   10  A    between atoms: C_13  and  N_15 
REMARK   11  A    between atoms: C_14  and  O_16 
ROOT
HETATM    1  C   UNK N   1      34.079  13.090   9.113  0.00  0.00     0.108 C 
ENDROOT
BRANCH   1   2
HETATM    2  C   UNK N   1      35.265  13.109  10.057  0.00  0.00     0.165 C 
HETATM    3  O   UNK N   1      36.422  13.569   9.396  0.00  0.00    -0.350 OA
HETATM    4  C   UNK N   1      37.090  14.387  10.332  0.00  0.00     0.288 C 
HETATM    5  C   UNK N   1      36.414  14.205  11.667  0.00  0.00     0.204 C 
HETATM    6  C   UNK N   1      35.015  14.045  11.213  0.00  0.00     0.181 C 
BRANCH   4   7
HETATM    7  O   UNK N   1      38.431  14.013  10.430  0.00  0.00    -0.369 OA
HETATM    8  H   UNK N   1      38.769  13.108  10.516  0.00  0.00     0.212 HD
ENDBRANCH   4   7
BRANCH   5   9
HETATM    9  O   UNK N   1      36.565  15.330  12.478  0.00  0.00    -0.388 OA
HETATM   10  H   UNK N   1      36.942  16.210  12.322  0.00  0.00     0.210 HD
ENDBRANCH   5   9
BRANCH   6  11
HETATM   11  O   UNK N   1      34.232  13.453  12.203  0.00  0.00    -0.390 OA
HETATM   12  H   UNK N   1      33.790  12.589  12.189  0.00  0.00     0.210 HD
ENDBRANCH   6  11
ENDBRANCH   1   2
BRANCH   1  13
HETATM   13  S   UNK N   1      34.278  14.384   7.851  0.00  0.00    -0.166 SA
BRANCH  13  14
HETATM   14  C   UNK N   1      32.700  15.182   8.278  0.00  0.00     0.076 C 
BRANCH  14  15
HETATM   15  C   UNK N   1      32.916  16.552   8.894  0.00  0.00     0.045 C 
BRANCH  15  16
HETATM   16  C   UNK N   1      34.387  16.919   8.870  0.00  0.00     0.174 C 
BRANCH  16  17
HETATM   17  C   UNK N   1      34.603  18.100   7.974  0.00  0.00     0.163 C 
HETATM   18  O   UNK N   1      35.017  19.149   8.445  0.00  0.00    -0.648 OA
BRANCH  17  19
HETATM   19  O   UNK N   1      34.331  18.025   6.657  0.00  0.00    -0.775 OA
HETATM   20  H   UNK N   1      33.607  18.278   6.118  0.00  0.00     0.167 HD
ENDBRANCH  17  19
ENDBRANCH  16  17
BRANCH  16  21
HETATM   21  N   UNK N   1      34.841  17.195  10.224  0.00  0.00    -0.418 N 
HETATM   22  H   UNK N   1      34.304  17.615  10.983  0.00  0.00     0.150 HD
HETATM   23  H   UNK N   1      35.806  16.941  10.438  0.00  0.00     0.150 HD
ENDBRANCH  16  21
ENDBRANCH  15  16
ENDBRANCH  14  15
ENDBRANCH  13  14
ENDBRANCH   1  13
TORSDOF 11
ENDMDL
MODEL 5
REMARK VINA RESULT:      -5.3      4.847      6.995
REMARK  11 active torsions:
REMARK  status: ('A' for Active; 'I' for Inactive)
REMARK    1  A    between atoms: C_2  and  O_1 
REMARK    2  A    between atoms: C_4  and  O_7 
REMARK    3  A    between atoms: C_5  and  C_8 
REMARK    4  A    between atoms: C_6  and  O_9 
REMARK    5  A    between atoms: C_8  and  S_10 
REMARK    6  A    between atoms: S_10  and  C_11 
REMARK    7  A    between atoms: C_11  and  C_12 
REMARK    8  A    between atoms: C_12  and  C_13 
REMARK    9  A    between atoms: C_13  and  C_14 
REMARK   10  A    between atoms: C_13  and  N_15 
REMARK   11  A    between atoms: C_14  and  O_16 
ROOT
HETATM    1  C   UNK N   1      21.635  13.572   6.839  0.00  0.00     0.108 C 
ENDROOT
BRANCH   1   2
HETATM    2  C   UNK N   1      20.540  14.569   7.165  0.00  0.00     0.165 C 
HETATM    3  O   UNK N   1      19.964  14.285   8.419  0.00  0.00    -0.350 OA
HETATM    4  C   UNK N   1      19.742  15.541   9.025  0.00  0.00     0.288 C 
HETATM    5  C   UNK N   1      19.984  16.603   7.982  0.00  0.00     0.204 C 
HETATM    6  C   UNK N   1      21.096  15.969   7.240  0.00  0.00     0.181 C 
BRANCH   4   7
HETATM    7  O   UNK N   1      18.430  15.628   9.489  0.00  0.00    -0.369 OA
HETATM    8  H   UNK N   1      17.697  15.037   9.253  0.00  0.00     0.212 HD
ENDBRANCH   4   7
BRANCH   5   9
HETATM    9  O   UNK N   1      20.374  17.810   8.558  0.00  0.00    -0.388 OA
HETATM   10  H   UNK N   1      20.557  18.076   9.473  0.00  0.00     0.210 HD
ENDBRANCH   5   9
BRANCH   6  11
HETATM   11  O   UNK N   1      21.244  16.539   5.976  0.00  0.00    -0.390 OA
HETATM   12  H   UNK N   1      20.890  16.231   5.127  0.00  0.00     0.210 HD
ENDBRANCH   6  11
ENDBRANCH   1   2
BRANCH   1  13
HETATM   13  S   UNK N   1      23.199  14.108   7.597  0.00  0.00    -0.166 SA
BRANCH  13  14
HETATM   14  C   UNK N   1      23.221  12.717   8.769  0.00  0.00     0.076 C 
BRANCH  14  15
HETATM   15  C   UNK N   1      22.693  13.126  10.131  0.00  0.00     0.045 C 
BRANCH  15  16
HETATM   16  C   UNK N   1      22.676  11.937  11.073  0.00  0.00     0.174 C 
BRANCH  16  17
HETATM   17  C   UNK N   1      23.775  12.071  12.082  0.00  0.00     0.163 C 
HETATM   18  O   UNK N   1      23.520  11.970  13.272  0.00  0.00    -0.648 OA
BRANCH  17  19
HETATM   19  O   UNK N   1      25.041  12.319  11.693  0.00  0.00    -0.775 OA
HETATM   20  H   UNK N   1      25.675  12.980  11.893  0.00  0.00     0.167 HD
ENDBRANCH  17  19
ENDBRANCH  16  17
BRANCH  16  21
HETATM   21  N   UNK N   1      21.376  11.847  11.719  0.00  0.00    -0.418 N 
HETATM   22  H   UNK N   1      21.105  11.226  12.481  0.00  0.00     0.150 HD
HETATM   23  H   UNK N   1      20.654  12.478  11.370  0.00  0.00     0.150 HD
ENDBRANCH  16  21
ENDBRANCH  15  16
ENDBRANCH  14  15
ENDBRANCH  13  14
ENDBRANCH   1  13
TORSDOF 11
ENDMDL
MODEL 6
REMARK VINA RESULT:      -5.3      3.800      4.933
REMARK  11 active torsions:
REMARK  status: ('A' for Active; 'I' for Inactive)
REMARK    1  A    between atoms: C_2  and  O_1 
REMARK    2  A    between atoms: C_4  and  O_7 
REMARK    3  A    between atoms: C_5  and  C_8 
REMARK    4  A    between atoms: C_6  and  O_9 
REMARK    5  A    between atoms: C_8  and  S_10 
REMARK    6  A    between atoms: S_10  and  C_11 
REMARK    7  A    between atoms: C_11  and  C_12 
REMARK    8  A    between atoms: C_12  and  C_13 
REMARK    9  A    between atoms: C_13  and  C_14 
REMARK   10  A    between atoms: C_13  and  N_15 
REMARK   11  A    between atoms: C_14  and  O_16 
ROOT
HETATM    1  C   UNK N   1      21.299  17.442   4.066  0.00  0.00     0.108 C 
ENDROOT
BRANCH   1   2
HETATM    2  C   UNK N   1      20.831  18.760   3.481  0.00  0.00     0.165 C 
HETATM    3  O   UNK N   1      21.837  19.741   3.589  0.00  0.00    -0.350 OA
HETATM    4  C   UNK N   1      21.786  20.469   2.381  0.00  0.00     0.288 C 
HETATM    5  C   UNK N   1      20.543  20.043   1.641  0.00  0.00     0.204 C 
HETATM    6  C   UNK N   1      20.515  18.611   2.013  0.00  0.00     0.181 C 
BRANCH   4   7
HETATM    7  O   UNK N   1      21.729  21.838   2.645  0.00  0.00    -0.369 OA
HETATM    8  H   UNK N   1      21.320  22.514   2.082  0.00  0.00     0.212 HD
ENDBRANCH   4   7
BRANCH   5   9
HETATM    9  O   UNK N   1      20.681  20.213   0.264  0.00  0.00    -0.388 OA
HETATM   10  H   UNK N   1      20.465  20.944  -0.336  0.00  0.00     0.210 HD
ENDBRANCH   5   9
BRANCH   6  11
HETATM   11  O   UNK N   1      19.248  18.065   1.806  0.00  0.00    -0.390 OA
HETATM   12  H   UNK N   1      18.820  17.829   0.968  0.00  0.00     0.210 HD
ENDBRANCH   6  11
ENDBRANCH   1   2
BRANCH   1  13
HETATM   13  S   UNK N   1      22.456  17.754   5.433  0.00  0.00    -0.166 SA
BRANCH  13  14
HETATM   14  C   UNK N   1      23.893  17.177   4.479  0.00  0.00     0.076 C 
BRANCH  14  15
HETATM   15  C   UNK N   1      25.150  17.947   4.841  0.00  0.00     0.045 C 
BRANCH  15  16
HETATM   16  C   UNK N   1      25.804  18.512   3.595  0.00  0.00     0.174 C 
BRANCH  16  17
HETATM   17  C   UNK N   1      25.400  19.943   3.411  0.00  0.00     0.163 C 
HETATM   18  O   UNK N   1      25.155  20.633   4.388  0.00  0.00    -0.648 OA
BRANCH  17  19
HETATM   19  O   UNK N   1      25.287  20.474   2.178  0.00  0.00    -0.775 OA
HETATM   20  H   UNK N   1      24.951  20.169   1.357  0.00  0.00     0.167 HD
ENDBRANCH  17  19
ENDBRANCH  16  17
BRANCH  16  21
HETATM   21  N   UNK N   1      27.249  18.383   3.704  0.00  0.00    -0.418 N 
HETATM   22  H   UNK N   1      27.903  19.064   4.089  0.00  0.00     0.150 HD
HETATM   23  H   UNK N   1      27.652  17.514   3.355  0.00  0.00     0.150 HD
ENDBRANCH  16  21
ENDBRANCH  15  16
ENDBRANCH  14  15
ENDBRANCH  13  14
ENDBRANCH   1  13
TORSDOF 11
ENDMDL
MODEL 7
REMARK VINA RESULT:      -5.2     14.782     17.103
REMARK  11 active torsions:
REMARK  status: ('A' for Active; 'I' for Inactive)
REMARK    1  A    between atoms: C_2  and  O_1 
REMARK    2  A    between atoms: C_4  and  O_7 
REMARK    3  A    between atoms: C_5  and  C_8 
REMARK    4  A    between atoms: C_6  and  O_9 
REMARK    5  A    between atoms: C_8  and  S_10 
REMARK    6  A    between atoms: S_10  and  C_11 
REMARK    7  A    between atoms: C_11  and  C_12 
REMARK    8  A    between atoms: C_12  and  C_13 
REMARK    9  A    between atoms: C_13  and  C_14 
REMARK   10  A    between atoms: C_13  and  N_15 
REMARK   11  A    between atoms: C_14  and  O_16 
ROOT
HETATM    1  C   UNK N   1      35.765  13.805  10.552  0.00  0.00     0.108 C 
ENDROOT
BRANCH   1   2
HETATM    2  C   UNK N   1      36.076  13.240  11.925  0.00  0.00     0.165 C 
HETATM    3  O   UNK N   1      36.757  14.190  12.713  0.00  0.00    -0.350 OA
HETATM    4  C   UNK N   1      36.220  14.057  14.011  0.00  0.00     0.288 C 
HETATM    5  C   UNK N   1      35.360  12.818  14.028  0.00  0.00     0.204 C 
HETATM    6  C   UNK N   1      34.806  12.887  12.657  0.00  0.00     0.181 C 
BRANCH   4   7
HETATM    7  O   UNK N   1      37.247  13.928  14.947  0.00  0.00    -0.369 OA
HETATM    8  H   UNK N   1      37.363  14.463  15.748  0.00  0.00     0.212 HD
ENDBRANCH   4   7
BRANCH   5   9
HETATM    9  O   UNK N   1      34.356  12.902  14.992  0.00  0.00    -0.388 OA
HETATM   10  H   UNK N   1      33.934  13.650  15.441  0.00  0.00     0.210 HD
ENDBRANCH   5   9
BRANCH   6  11
HETATM   11  O   UNK N   1      34.302  11.649  12.259  0.00  0.00    -0.390 OA
HETATM   12  H   UNK N   1      34.057  11.354  11.368  0.00  0.00     0.210 HD
ENDBRANCH   6  11
ENDBRANCH   1   2
BRANCH   1  13
HETATM   13  S   UNK N   1      34.614  15.203  10.709  0.00  0.00    -0.166 SA
BRANCH  13  14
HETATM   14  C   UNK N   1      33.666  14.716   9.235  0.00  0.00     0.076 C 
BRANCH  14  15
HETATM   15  C   UNK N   1      33.719  15.785   8.159  0.00  0.00     0.045 C 
BRANCH  15  16
HETATM   16  C   UNK N   1      33.679  17.167   8.782  0.00  0.00     0.174 C 
BRANCH  16  17
HETATM   17  C   UNK N   1      34.430  18.136   7.921  0.00  0.00     0.163 C 
HETATM   18  O   UNK N   1      35.033  19.064   8.437  0.00  0.00    -0.648 OA
BRANCH  17  19
HETATM   19  O   UNK N   1      34.435  18.005   6.580  0.00  0.00    -0.775 OA
HETATM   20  H   UNK N   1      34.423  17.277   5.989  0.00  0.00     0.167 HD
ENDBRANCH  17  19
ENDBRANCH  16  17
BRANCH  16  21
HETATM   21  N   UNK N   1      32.295  17.582   8.956  0.00  0.00    -0.418 N 
HETATM   22  H   UNK N   1      31.467  16.988   8.957  0.00  0.00     0.150 HD
HETATM   23  H   UNK N   1      32.137  18.580   9.092  0.00  0.00     0.150 HD
ENDBRANCH  16  21
ENDBRANCH  15  16
ENDBRANCH  14  15
ENDBRANCH  13  14
ENDBRANCH   1  13
TORSDOF 11
ENDMDL
MODEL 8
REMARK VINA RESULT:      -5.2      2.147      2.398
REMARK  11 active torsions:
REMARK  status: ('A' for Active; 'I' for Inactive)
REMARK    1  A    between atoms: C_2  and  O_1 
REMARK    2  A    between atoms: C_4  and  O_7 
REMARK    3  A    between atoms: C_5  and  C_8 
REMARK    4  A    between atoms: C_6  and  O_9 
REMARK    5  A    between atoms: C_8  and  S_10 
REMARK    6  A    between atoms: S_10  and  C_11 
REMARK    7  A    between atoms: C_11  and  C_12 
REMARK    8  A    between atoms: C_12  and  C_13 
REMARK    9  A    between atoms: C_13  and  C_14 
REMARK   10  A    between atoms: C_13  and  N_15 
REMARK   11  A    between atoms: C_14  and  O_16 
ROOT
HETATM    1  C   UNK N   1      21.207  17.444   4.056  0.00  0.00     0.108 C 
ENDROOT
BRANCH   1   2
HETATM    2  C   UNK N   1      20.764  18.771   3.469  0.00  0.00     0.165 C 
HETATM    3  O   UNK N   1      21.781  19.738   3.597  0.00  0.00    -0.350 OA
HETATM    4  C   UNK N   1      21.757  20.472   2.391  0.00  0.00     0.288 C 
HETATM    5  C   UNK N   1      20.520  20.064   1.630  0.00  0.00     0.204 C 
HETATM    6  C   UNK N   1      20.469  18.632   1.996  0.00  0.00     0.181 C 
BRANCH   4   7
HETATM    7  O   UNK N   1      21.713  21.840   2.660  0.00  0.00    -0.369 OA
HETATM    8  H   UNK N   1      21.085  22.290   3.246  0.00  0.00     0.212 HD
ENDBRANCH   4   7
BRANCH   5   9
HETATM    9  O   UNK N   1      20.681  20.238   0.257  0.00  0.00    -0.388 OA
HETATM   10  H   UNK N   1      21.442  20.481  -0.293  0.00  0.00     0.210 HD
ENDBRANCH   5   9
BRANCH   6  11
HETATM   11  O   UNK N   1      19.199  18.102   1.767  0.00  0.00    -0.390 OA
HETATM   12  H   UNK N   1      18.961  17.235   1.402  0.00  0.00     0.210 HD
ENDBRANCH   6  11
ENDBRANCH   1   2
BRANCH   1  13
HETATM   13  S   UNK N   1      23.013  17.439   4.266  0.00  0.00    -0.166 SA
BRANCH  13  14
HETATM   14  C   UNK N   1      22.951  16.218   5.613  0.00  0.00     0.076 C 
BRANCH  14  15
HETATM   15  C   UNK N   1      21.879  16.563   6.630  0.00  0.00     0.045 C 
BRANCH  15  16
HETATM   16  C   UNK N   1      21.567  15.361   7.500  0.00  0.00     0.174 C 
BRANCH  16  17
HETATM   17  C   UNK N   1      20.340  14.668   6.990  0.00  0.00     0.163 C 
HETATM   18  O   UNK N   1      20.268  13.450   7.042  0.00  0.00    -0.648 OA
BRANCH  17  19
HETATM   19  O   UNK N   1      19.322  15.372   6.459  0.00  0.00    -0.775 OA
HETATM   20  H   UNK N   1      18.956  15.456   5.601  0.00  0.00     0.167 HD
ENDBRANCH  17  19
ENDBRANCH  16  17
BRANCH  16  21
HETATM   21  N   UNK N   1      22.711  14.463   7.516  0.00  0.00    -0.418 N 
HETATM   22  H   UNK N   1      23.554  14.544   8.083  0.00  0.00     0.150 HD
HETATM   23  H   UNK N   1      22.664  13.661   6.887  0.00  0.00     0.150 HD
ENDBRANCH  16  21
ENDBRANCH  15  16
ENDBRANCH  14  15
ENDBRANCH  13  14
ENDBRANCH   1  13
TORSDOF 11
ENDMDL
MODEL 9
REMARK VINA RESULT:      -5.2     10.413     12.118
REMARK  11 active torsions:
REMARK  status: ('A' for Active; 'I' for Inactive)
REMARK    1  A    between atoms: C_2  and  O_1 
REMARK    2  A    between atoms: C_4  and  O_7 
REMARK    3  A    between atoms: C_5  and  C_8 
REMARK    4  A    between atoms: C_6  and  O_9 
REMARK    5  A    between atoms: C_8  and  S_10 
REMARK    6  A    between atoms: S_10  and  C_11 
REMARK    7  A    between atoms: C_11  and  C_12 
REMARK    8  A    between atoms: C_12  and  C_13 
REMARK    9  A    between atoms: C_13  and  C_14 
REMARK   10  A    between atoms: C_13  and  N_15 
REMARK   11  A    between atoms: C_14  and  O_16 
ROOT
HETATM    1  C   UNK N   1      30.904  16.868   6.449  0.00  0.00     0.108 C 
ENDROOT
BRANCH   1   2
HETATM    2  C   UNK N   1      30.097  17.037   7.721  0.00  0.00     0.165 C 
HETATM    3  O   UNK N   1      30.730  17.941   8.598  0.00  0.00    -0.350 OA
HETATM    4  C   UNK N   1      29.690  18.708   9.165  0.00  0.00     0.288 C 
HETATM    5  C   UNK N   1      28.382  18.065   8.778  0.00  0.00     0.204 C 
HETATM    6  C   UNK N   1      28.731  17.600   7.417  0.00  0.00     0.181 C 
BRANCH   4   7
HETATM    7  O   UNK N   1      29.809  18.731  10.554  0.00  0.00    -0.369 OA
HETATM    8  H   UNK N   1      29.966  17.965  11.129  0.00  0.00     0.212 HD
ENDBRANCH   4   7
BRANCH   5   9
HETATM    9  O   UNK N   1      27.341  18.992   8.752  0.00  0.00    -0.388 OA
HETATM   10  H   UNK N   1      26.584  19.118   8.158  0.00  0.00     0.210 HD
ENDBRANCH   5   9
BRANCH   6  11
HETATM   11  O   UNK N   1      27.846  16.613   6.984  0.00  0.00    -0.390 OA
HETATM   12  H   UNK N   1      27.137  16.174   7.481  0.00  0.00     0.210 HD
ENDBRANCH   6  11
ENDBRANCH   1   2
BRANCH   1  13
HETATM   13  S   UNK N   1      31.294  15.110   6.199  0.00  0.00    -0.166 SA
BRANCH  13  14
HETATM   14  C   UNK N   1      32.049  14.942   7.845  0.00  0.00     0.076 C 
BRANCH  14  15
HETATM   15  C   UNK N   1      33.559  14.820   7.757  0.00  0.00     0.045 C 
BRANCH  15  16
HETATM   16  C   UNK N   1      34.225  16.062   8.318  0.00  0.00     0.174 C 
BRANCH  16  17
HETATM   17  C   UNK N   1      34.523  17.025   7.209  0.00  0.00     0.163 C 
HETATM   18  O   UNK N   1      34.684  16.608   6.073  0.00  0.00    -0.648 OA
BRANCH  17  19
HETATM   19  O   UNK N   1      34.632  18.345   7.454  0.00  0.00    -0.775 OA
HETATM   20  H   UNK N   1      34.801  18.862   8.217  0.00  0.00     0.167 HD
ENDBRANCH  17  19
ENDBRANCH  16  17
BRANCH  16  21
HETATM   21  N   UNK N   1      33.360  16.666   9.320  0.00  0.00    -0.418 N 
HETATM   22  H   UNK N   1      32.375  16.911   9.222  0.00  0.00     0.150 HD
HETATM   23  H   UNK N   1      33.789  16.869  10.223  0.00  0.00     0.150 HD
ENDBRANCH  16  21
ENDBRANCH  15  16
ENDBRANCH  14  15
ENDBRANCH  13  14
ENDBRANCH   1  13
TORSDOF 11
ENDMDL
