MODEL 1
REMARK VINA RESULT:      -5.5      0.000      0.000
REMARK  8 active torsions:
REMARK  status: ('A' for Active; 'I' for Inactive)
REMARK    1  A    between atoms: C_6  and  C_7 
REMARK    2  A    between atoms: C_7  and  O_8 
REMARK    3  A    between atoms: O_8  and  P_9 
REMARK    4  A    between atoms: P_9  and  O_10 
REMARK    5  A    between atoms: P_9  and  O_11 
REMARK    6  A    between atoms: C_13  and  C_14 
REMARK    7  A    between atoms: C_14  and  N_15 
REMARK    8  A    between atoms: C_16  and  O_17 
ROOT
HETATM    1  C   UNK N   1      23.327  11.870  13.520  0.00  0.00     0.071 C 
HETATM    2  C   UNK N   1      22.929  12.089  12.099  0.00  0.00     0.039 A 
HETATM    3  N   UNK N   1      21.616  12.044  11.767  0.00  0.00    -0.367 N 
ATOM      4  HN  UNK N   1      20.927  11.840  12.490  1.00  0.00     0.165 HD
HETATM    5  C   UNK N   1      21.195  12.263  10.495  0.00  0.00     0.098 A 
HETATM    6  C   UNK N   1      22.113  12.541   9.481  0.00  0.00    -0.008 A 
HETATM    7  C   UNK N   1      23.493  12.580   9.779  0.00  0.00     0.004 A 
HETATM    8  C   UNK N   1      23.900  12.350  11.120  0.00  0.00     0.096 A 
ENDROOT
BRANCH   6   9
HETATM    9  C   UNK N   1      21.573  12.846   8.119  0.00  0.00     0.221 C 
BRANCH   9  10
HETATM   10  O   UNK N   1      20.282  13.382   8.161  0.00  0.00    -0.292 OA
BRANCH  10  11
HETATM   11  P   UNK N   1      20.534  15.087   7.903  0.00  0.00     0.391 P 
HETATM   12  O   UNK N   1      19.489  15.075   9.053  0.00  0.00    -0.632 OA
BRANCH  11  13
HETATM   13  O   UNK N   1      19.253  16.090   7.302  0.00  0.00    -0.307 OA
HETATM   14  H   UNK N   1      18.771  15.989   6.467  0.00  0.00     0.222 HD
ENDBRANCH  11  13
BRANCH  11  15
HETATM   15  O   UNK N   1      19.850  14.398   6.465  0.00  0.00    -0.307 OA
HETATM   16  H   UNK N   1      20.141  13.730   5.823  0.00  0.00     0.222 HD
ENDBRANCH  11  15
ENDBRANCH  10  11
ENDBRANCH   9  10
ENDBRANCH   6   9
BRANCH   7  17
HETATM   17  C   UNK N   1      24.466  12.882   8.654  0.00  0.00     0.153 C 
BRANCH  17  18
HETATM   18  N   UNK N   1      25.445  13.911   8.957  0.00  0.00    -0.426 N 
HETATM   19  H   UNK N   1      26.336  13.683   9.400  0.00  0.00     0.150 HD
HETATM   20  H   UNK N   1      25.239  14.881   8.722  0.00  0.00     0.150 HD
ENDBRANCH  17  18
ENDBRANCH   7  17
BRANCH   8  21
HETATM   21  O   UNK N   1      25.197  12.396  11.475  0.00  0.00    -0.358 OA
HETATM   22  H   UNK N   1      25.709  11.612  11.488  0.00  0.00     0.217 HD
ENDBRANCH   8  21
TORSDOF 8
ENDMDL
MODEL 2
REMARK VINA RESULT:      -5.3     12.768     13.913
REMARK  8 active torsions:
REMARK  status: ('A' for Active; 'I' for Inactive)
REMARK    1  A    between atoms: C_6  and  C_7 
REMARK    2  A    between atoms: C_7  and  O_8 
REMARK    3  A    between atoms: O_8  and  P_9 
REMARK    4  A    between atoms: P_9  and  O_10 
REMARK    5  A    between atoms: P_9  and  O_11 
REMARK    6  A    between atoms: C_13  and  C_14 
REMARK    7  A    between atoms: C_14  and  N_15 
REMARK    8  A    between atoms: C_16  and  O_17 
ROOT
HETATM    1  C   UNK N   1      33.492  10.648  14.638  0.00  0.00     0.071 C 
HETATM    2  C   UNK N   1      34.332  11.571  13.821  0.00  0.00     0.039 A 
HETATM    3  N   UNK N   1      34.423  11.372  12.484  0.00  0.00    -0.367 N 
ATOM      4  HN  UNK N   1      33.932  10.583  12.064  1.00  0.00     0.165 HD
HETATM    5  C   UNK N   1      35.150  12.197  11.688  0.00  0.00     0.098 A 
HETATM    6  C   UNK N   1      35.838  13.283  12.232  0.00  0.00    -0.008 A 
HETATM    7  C   UNK N   1      35.786  13.517  13.624  0.00  0.00     0.004 A 
HETATM    8  C   UNK N   1      35.012  12.639  14.427  0.00  0.00     0.096 A 
ENDROOT
BRANCH   6   9
HETATM    9  C   UNK N   1      36.558  14.194  11.287  0.00  0.00     0.221 C 
BRANCH   9  10
HETATM   10  O   UNK N   1      35.746  14.627  10.234  0.00  0.00    -0.292 OA
BRANCH  10  11
HETATM   11  P   UNK N   1      35.114  16.149  10.798  0.00  0.00     0.391 P 
HETATM   12  O   UNK N   1      34.603  16.100   9.332  0.00  0.00    -0.632 OA
BRANCH  11  13
HETATM   13  O   UNK N   1      35.673  17.644  10.119  0.00  0.00    -0.307 OA
HETATM   14  H   UNK N   1      35.479  18.541  10.434  0.00  0.00     0.222 HD
ENDBRANCH  11  13
BRANCH  11  15
HETATM   15  O   UNK N   1      36.848  16.216  10.826  0.00  0.00    -0.307 OA
HETATM   16  H   UNK N   1      37.535  15.865  11.416  0.00  0.00     0.222 HD
ENDBRANCH  11  15
ENDBRANCH  10  11
ENDBRANCH   9  10
ENDBRANCH   6   9
BRANCH   7  17
HETATM   17  C   UNK N   1      36.546  14.705  14.184  0.00  0.00     0.153 C 
BRANCH  17  18
HETATM   18  N   UNK N   1      37.289  14.432  15.403  0.00  0.00    -0.426 N 
HETATM   19  H   UNK N   1      37.537  15.180  16.052  0.00  0.00     0.150 HD
HETATM   20  H   UNK N   1      37.568  13.475  15.614  0.00  0.00     0.150 HD
ENDBRANCH  17  18
ENDBRANCH   7  17
BRANCH   8  21
HETATM   21  O   UNK N   1      34.903  12.819  15.756  0.00  0.00    -0.358 OA
HETATM   22  H   UNK N   1      35.178  13.625  16.145  0.00  0.00     0.217 HD
ENDBRANCH   8  21
TORSDOF 8
ENDMDL
MODEL 3
REMARK VINA RESULT:      -5.2      7.921      9.559
REMARK  8 active torsions:
REMARK  status: ('A' for Active; 'I' for Inactive)
REMARK    1  A    between atoms: C_6  and  C_7 
REMARK    2  A    between atoms: C_7  and  O_8 
REMARK    3  A    between atoms: O_8  and  P_9 
REMARK    4  A    between atoms: P_9  and  O_10 
REMARK    5  A    between atoms: P_9  and  O_11 
REMARK    6  A    between atoms: C_13  and  C_14 
REMARK    7  A    between atoms: C_14  and  N_15 
REMARK    8  A    between atoms: C_16  and  O_17 
ROOT
HETATM    1  C   UNK N   1      27.708  18.248   4.516  0.00  0.00     0.071 C 
HETATM    2  C   UNK N   1      26.369  18.809   4.172  0.00  0.00     0.039 A 
HETATM    3  N   UNK N   1      26.297  19.911   3.387  0.00  0.00    -0.367 N 
ATOM      4  HN  UNK N   1      27.159  20.349   3.064  1.00  0.00     0.165 HD
HETATM    5  C   UNK N   1      25.106  20.448   3.020  0.00  0.00     0.098 A 
HETATM    6  C   UNK N   1      23.907  19.876   3.449  0.00  0.00    -0.008 A 
HETATM    7  C   UNK N   1      23.935  18.737   4.283  0.00  0.00     0.004 A 
HETATM    8  C   UNK N   1      25.198  18.197   4.645  0.00  0.00     0.096 A 
ENDROOT
BRANCH   6   9
HETATM    9  C   UNK N   1      22.631  20.475   2.945  0.00  0.00     0.221 C 
BRANCH   9  10
HETATM   10  O   UNK N   1      22.426  20.234   1.583  0.00  0.00    -0.292 OA
BRANCH  10  11
HETATM   11  P   UNK N   1      20.767  20.704   1.326  0.00  0.00     0.391 P 
HETATM   12  O   UNK N   1      21.395  20.914  -0.080  0.00  0.00    -0.632 OA
BRANCH  11  13
HETATM   13  O   UNK N   1      20.364  22.346   0.938  0.00  0.00    -0.307 OA
HETATM   14  H   UNK N   1      19.727  22.917   1.395  0.00  0.00     0.222 HD
ENDBRANCH  11  13
BRANCH  11  15
HETATM   15  O   UNK N   1      21.487  21.791   2.471  0.00  0.00    -0.307 OA
HETATM   16  H   UNK N   1      21.609  21.785   3.434  0.00  0.00     0.222 HD
ENDBRANCH  11  15
ENDBRANCH  10  11
ENDBRANCH   9  10
ENDBRANCH   6   9
BRANCH   7  17
HETATM   17  C   UNK N   1      22.615  18.139   4.734  0.00  0.00     0.153 C 
BRANCH  17  18
HETATM   18  N   UNK N   1      22.480  17.976   6.171  0.00  0.00    -0.426 N 
HETATM   19  H   UNK N   1      23.251  18.193   6.805  0.00  0.00     0.150 HD
HETATM   20  H   UNK N   1      21.598  17.639   6.556  0.00  0.00     0.150 HD
ENDBRANCH  17  18
ENDBRANCH   7  17
BRANCH   8  21
HETATM   21  O   UNK N   1      25.295  17.100   5.418  0.00  0.00    -0.358 OA
HETATM   22  H   UNK N   1      25.625  17.168   6.291  0.00  0.00     0.217 HD
ENDBRANCH   8  21
TORSDOF 8
ENDMDL
MODEL 4
REMARK VINA RESULT:      -5.2      9.081     11.337
REMARK  8 active torsions:
REMARK  status: ('A' for Active; 'I' for Inactive)
REMARK    1  A    between atoms: C_6  and  C_7 
REMARK    2  A    between atoms: C_7  and  O_8 
REMARK    3  A    between atoms: O_8  and  P_9 
REMARK    4  A    between atoms: P_9  and  O_10 
REMARK    5  A    between atoms: P_9  and  O_11 
REMARK    6  A    between atoms: C_13  and  C_14 
REMARK    7  A    between atoms: C_14  and  N_15 
REMARK    8  A    between atoms: C_16  and  O_17 
ROOT
HETATM    1  C   UNK N   1      26.584  19.648   4.056  0.00  0.00     0.071 C 
HETATM    2  C   UNK N   1      27.683  18.981   4.814  0.00  0.00     0.039 A 
HETATM    3  N   UNK N   1      28.630  18.292   4.133  0.00  0.00    -0.367 N 
ATOM      4  HN  UNK N   1      28.564  18.225   3.118  1.00  0.00     0.165 HD
HETATM    5  C   UNK N   1      29.667  17.689   4.769  0.00  0.00     0.098 A 
HETATM    6  C   UNK N   1      29.785  17.757   6.158  0.00  0.00    -0.008 A 
HETATM    7  C   UNK N   1      28.809  18.449   6.909  0.00  0.00     0.004 A 
HETATM    8  C   UNK N   1      27.740  19.074   6.213  0.00  0.00     0.096 A 
ENDROOT
BRANCH   6   9
HETATM    9  C   UNK N   1      30.993  17.133   6.785  0.00  0.00     0.221 C 
BRANCH   9  10
HETATM   10  O   UNK N   1      32.179  17.488   6.135  0.00  0.00    -0.292 OA
BRANCH  10  11
HETATM   11  P   UNK N   1      33.417  17.113   7.303  0.00  0.00     0.391 P 
HETATM   12  O   UNK N   1      32.657  18.282   7.987  0.00  0.00    -0.632 OA
BRANCH  11  13
HETATM   13  O   UNK N   1      34.669  18.258   7.663  0.00  0.00    -0.307 OA
HETATM   14  H   UNK N   1      34.573  19.217   7.776  0.00  0.00     0.222 HD
ENDBRANCH  11  13
BRANCH  11  15
HETATM   15  O   UNK N   1      34.173  17.664   5.841  0.00  0.00    -0.307 OA
HETATM   16  H   UNK N   1      34.251  18.523   5.396  0.00  0.00     0.222 HD
ENDBRANCH  11  15
ENDBRANCH  10  11
ENDBRANCH   9  10
ENDBRANCH   6   9
BRANCH   7  17
HETATM   17  C   UNK N   1      28.965  18.504   8.418  0.00  0.00     0.153 C 
BRANCH  17  18
HETATM   18  N   UNK N   1      27.735  18.301   9.164  0.00  0.00    -0.426 N 
HETATM   19  H   UNK N   1      27.162  17.468   9.026  0.00  0.00     0.150 HD
HETATM   20  H   UNK N   1      27.438  19.005   9.839  0.00  0.00     0.150 HD
ENDBRANCH  17  18
ENDBRANCH   7  17
BRANCH   8  21
HETATM   21  O   UNK N   1      26.791  19.768   6.867  0.00  0.00    -0.358 OA
HETATM   22  H   UNK N   1      26.871  19.922   7.786  0.00  0.00     0.217 HD
ENDBRANCH   8  21
TORSDOF 8
ENDMDL
MODEL 5
REMARK VINA RESULT:      -5.1      8.844     10.336
REMARK  8 active torsions:
REMARK  status: ('A' for Active; 'I' for Inactive)
REMARK    1  A    between atoms: C_6  and  C_7 
REMARK    2  A    between atoms: C_7  and  O_8 
REMARK    3  A    between atoms: O_8  and  P_9 
REMARK    4  A    between atoms: P_9  and  O_10 
REMARK    5  A    between atoms: P_9  and  O_11 
REMARK    6  A    between atoms: C_13  and  C_14 
REMARK    7  A    between atoms: C_14  and  N_15 
REMARK    8  A    between atoms: C_16  and  O_17 
ROOT
HETATM    1  C   UNK N   1      34.626  18.229   8.409  0.00  0.00     0.071 C 
HETATM    2  C   UNK N   1      33.283  17.779   7.943  0.00  0.00     0.039 A 
HETATM    3  N   UNK N   1      32.293  17.605   8.851  0.00  0.00    -0.367 N 
ATOM      4  HN  UNK N   1      32.490  17.765   9.839  1.00  0.00     0.165 HD
HETATM    5  C   UNK N   1      31.044  17.224   8.480  0.00  0.00     0.098 A 
HETATM    6  C   UNK N   1      30.742  16.993   7.137  0.00  0.00    -0.008 A 
HETATM    7  C   UNK N   1      31.749  17.144   6.158  0.00  0.00     0.004 A 
HETATM    8  C   UNK N   1      33.043  17.549   6.579  0.00  0.00     0.096 A 
ENDROOT
BRANCH   6   9
HETATM    9  C   UNK N   1      29.326  16.648   6.792  0.00  0.00     0.221 C 
BRANCH   9  10
HETATM   10  O   UNK N   1      28.402  17.502   7.402  0.00  0.00    -0.292 OA
BRANCH  10  11
HETATM   11  P   UNK N   1      27.965  18.612   6.132  0.00  0.00     0.391 P 
HETATM   12  O   UNK N   1      28.006  19.535   7.382  0.00  0.00    -0.632 OA
BRANCH  11  13
HETATM   13  O   UNK N   1      26.409  19.380   6.126  0.00  0.00    -0.307 OA
HETATM   14  H   UNK N   1      26.224  20.332   6.115  0.00  0.00     0.222 HD
ENDBRANCH  11  13
BRANCH  11  15
HETATM   15  O   UNK N   1      26.706  17.431   6.302  0.00  0.00    -0.307 OA
HETATM   16  H   UNK N   1      26.582  16.518   5.996  0.00  0.00     0.222 HD
ENDBRANCH  11  15
ENDBRANCH  10  11
ENDBRANCH   9  10
ENDBRANCH   6   9
BRANCH   7  17
HETATM   17  C   UNK N   1      31.389  16.884   4.707  0.00  0.00     0.153 C 
BRANCH  17  18
HETATM   18  N   UNK N   1      31.589  18.015   3.818  0.00  0.00    -0.426 N 
HETATM   19  H   UNK N   1      30.803  18.582   3.495  0.00  0.00     0.150 HD
HETATM   20  H   UNK N   1      32.532  18.249   3.510  0.00  0.00     0.150 HD
ENDBRANCH  17  18
ENDBRANCH   7  17
BRANCH   8  21
HETATM   21  O   UNK N   1      34.040  17.733   5.695  0.00  0.00    -0.358 OA
HETATM   22  H   UNK N   1      34.873  17.328   5.834  0.00  0.00     0.217 HD
ENDBRANCH   8  21
TORSDOF 8
ENDMDL
MODEL 6
REMARK VINA RESULT:      -5.1     11.946     13.902
REMARK  8 active torsions:
REMARK  status: ('A' for Active; 'I' for Inactive)
REMARK    1  A    between atoms: C_6  and  C_7 
REMARK    2  A    between atoms: C_7  and  O_8 
REMARK    3  A    between atoms: O_8  and  P_9 
REMARK    4  A    between atoms: P_9  and  O_10 
REMARK    5  A    between atoms: P_9  and  O_11 
REMARK    6  A    between atoms: C_13  and  C_14 
REMARK    7  A    between atoms: C_14  and  N_15 
REMARK    8  A    between atoms: C_16  and  O_17 
ROOT
HETATM    1  C   UNK N   1      33.532  18.070   8.250  0.00  0.00     0.071 C 
HETATM    2  C   UNK N   1      34.076  16.957   9.081  0.00  0.00     0.039 A 
HETATM    3  N   UNK N   1      34.870  17.251  10.138  0.00  0.00    -0.367 N 
ATOM      4  HN  UNK N   1      35.099  18.225  10.334  1.00  0.00     0.165 HD
HETATM    5  C   UNK N   1      35.370  16.280  10.945  0.00  0.00     0.098 A 
HETATM    6  C   UNK N   1      35.081  14.936  10.702  0.00  0.00    -0.008 A 
HETATM    7  C   UNK N   1      34.271  14.584   9.600  0.00  0.00     0.004 A 
HETATM    8  C   UNK N   1      33.760  15.623   8.779  0.00  0.00     0.096 A 
ENDROOT
BRANCH   6   9
HETATM    9  C   UNK N   1      35.604  13.925  11.675  0.00  0.00     0.221 C 
BRANCH   9  10
HETATM   10  O   UNK N   1      34.960  13.990  12.915  0.00  0.00    -0.292 OA
BRANCH  10  11
HETATM   11  P   UNK N   1      35.928  12.962  13.936  0.00  0.00     0.391 P 
HETATM   12  O   UNK N   1      34.689  13.248  14.829  0.00  0.00    -0.632 OA
BRANCH  11  13
HETATM   13  O   UNK N   1      36.616  13.572  15.407  0.00  0.00    -0.307 OA
HETATM   14  H   UNK N   1      37.557  13.672  15.617  0.00  0.00     0.222 HD
ENDBRANCH  11  13
BRANCH  11  15
HETATM   15  O   UNK N   1      36.799  14.431  13.633  0.00  0.00    -0.307 OA
HETATM   16  H   UNK N   1      37.131  14.875  12.835  0.00  0.00     0.222 HD
ENDBRANCH  11  15
ENDBRANCH  10  11
ENDBRANCH   9  10
ENDBRANCH   6   9
BRANCH   7  17
HETATM   17  C   UNK N   1      33.976  13.114   9.361  0.00  0.00     0.153 C 
BRANCH  17  18
HETATM   18  N   UNK N   1      32.568  12.794   9.201  0.00  0.00    -0.426 N 
HETATM   19  H   UNK N   1      32.136  12.750   8.278  0.00  0.00     0.150 HD
HETATM   20  H   UNK N   1      32.001  12.610  10.028  0.00  0.00     0.150 HD
ENDBRANCH  17  18
ENDBRANCH   7  17
BRANCH   8  21
HETATM   21  O   UNK N   1      32.965  15.358   7.727  0.00  0.00    -0.358 OA
HETATM   22  H   UNK N   1      32.035  15.348   7.831  0.00  0.00     0.217 HD
ENDBRANCH   8  21
TORSDOF 8
ENDMDL
MODEL 7
REMARK VINA RESULT:      -5.1      8.891     11.273
REMARK  8 active torsions:
REMARK  status: ('A' for Active; 'I' for Inactive)
REMARK    1  A    between atoms: C_6  and  C_7 
REMARK    2  A    between atoms: C_7  and  O_8 
REMARK    3  A    between atoms: O_8  and  P_9 
REMARK    4  A    between atoms: P_9  and  O_10 
REMARK    5  A    between atoms: P_9  and  O_11 
REMARK    6  A    between atoms: C_13  and  C_14 
REMARK    7  A    between atoms: C_14  and  N_15 
REMARK    8  A    between atoms: C_16  and  O_17 
ROOT
HETATM    1  C   UNK N   1      27.044  17.415   3.842  0.00  0.00     0.071 C 
HETATM    2  C   UNK N   1      28.142  17.337   4.848  0.00  0.00     0.039 A 
HETATM    3  N   UNK N   1      29.273  16.657   4.540  0.00  0.00    -0.367 N 
ATOM      4  HN  UNK N   1      29.344  16.193   3.635  1.00  0.00     0.165 HD
HETATM    5  C   UNK N   1      30.314  16.577   5.407  0.00  0.00     0.098 A 
HETATM    6  C   UNK N   1      30.248  17.196   6.656  0.00  0.00    -0.008 A 
HETATM    7  C   UNK N   1      29.081  17.901   7.026  0.00  0.00     0.004 A 
HETATM    8  C   UNK N   1      28.012  17.969   6.094  0.00  0.00     0.096 A 
ENDROOT
BRANCH   6   9
HETATM    9  C   UNK N   1      31.462  17.130   7.530  0.00  0.00     0.221 C 
BRANCH   9  10
HETATM   10  O   UNK N   1      32.624  17.535   6.867  0.00  0.00    -0.292 OA
BRANCH  10  11
HETATM   11  P   UNK N   1      33.809  17.644   8.140  0.00  0.00     0.391 P 
HETATM   12  O   UNK N   1      32.818  18.781   8.510  0.00  0.00    -0.632 OA
BRANCH  11  13
HETATM   13  O   UNK N   1      34.826  19.043   8.284  0.00  0.00    -0.307 OA
HETATM   14  H   UNK N   1      35.660  19.212   7.820  0.00  0.00     0.222 HD
ENDBRANCH  11  13
BRANCH  11  15
HETATM   15  O   UNK N   1      34.580  17.991   6.625  0.00  0.00    -0.307 OA
HETATM   16  H   UNK N   1      34.756  17.483   5.817  0.00  0.00     0.222 HD
ENDBRANCH  11  15
ENDBRANCH  10  11
ENDBRANCH   9  10
ENDBRANCH   6   9
BRANCH   7  17
HETATM   17  C   UNK N   1      29.039  18.561   8.391  0.00  0.00     0.153 C 
BRANCH  17  18
HETATM   18  N   UNK N   1      27.775  18.425   9.095  0.00  0.00    -0.426 N 
HETATM   19  H   UNK N   1      27.091  17.717   8.824  0.00  0.00     0.150 HD
HETATM   20  H   UNK N   1      27.567  19.049   9.874  0.00  0.00     0.150 HD
ENDBRANCH  17  18
ENDBRANCH   7  17
BRANCH   8  21
HETATM   21  O   UNK N   1      26.882  18.644   6.375  0.00  0.00    -0.358 OA
HETATM   22  H   UNK N   1      26.052  18.302   6.108  0.00  0.00     0.217 HD
ENDBRANCH   8  21
TORSDOF 8
ENDMDL
MODEL 8
REMARK VINA RESULT:      -5.1     11.935     13.102
REMARK  8 active torsions:
REMARK  status: ('A' for Active; 'I' for Inactive)
REMARK    1  A    between atoms: C_6  and  C_7 
REMARK    2  A    between atoms: C_7  and  O_8 
REMARK    3  A    between atoms: O_8  and  P_9 
REMARK    4  A    between atoms: P_9  and  O_10 
REMARK    5  A    between atoms: P_9  and  O_11 
REMARK    6  A    between atoms: C_13  and  C_14 
REMARK    7  A    between atoms: C_14  and  N_15 
REMARK    8  A    between atoms: C_16  and  O_17 
ROOT
HETATM    1  C   UNK N   1      36.129  13.368  14.026  0.00  0.00     0.071 C 
HETATM    2  C   UNK N   1      35.768  14.076  12.764  0.00  0.00     0.039 A 
HETATM    3  N   UNK N   1      36.249  15.324  12.547  0.00  0.00    -0.367 N 
ATOM      4  HN  UNK N   1      36.831  15.764  13.260  1.00  0.00     0.165 HD
HETATM    5  C   UNK N   1      35.975  16.004  11.405  0.00  0.00     0.098 A 
HETATM    6  C   UNK N   1      35.178  15.433  10.412  0.00  0.00    -0.008 A 
HETATM    7  C   UNK N   1      34.640  14.142  10.604  0.00  0.00     0.004 A 
HETATM    8  C   UNK N   1      34.950  13.455  11.808  0.00  0.00     0.096 A 
ENDROOT
BRANCH   6   9
HETATM    9  C   UNK N   1      34.979  16.210   9.147  0.00  0.00     0.221 C 
BRANCH   9  10
HETATM   10  O   UNK N   1      34.607  17.537   9.384  0.00  0.00    -0.292 OA
BRANCH  10  11
HETATM   11  P   UNK N   1      33.643  17.950   7.993  0.00  0.00     0.391 P 
HETATM   12  O   UNK N   1      34.006  16.464   7.717  0.00  0.00    -0.632 OA
BRANCH  11  13
HETATM   13  O   UNK N   1      34.348  17.988   6.409  0.00  0.00    -0.307 OA
HETATM   14  H   UNK N   1      34.328  17.286   5.740  0.00  0.00     0.222 HD
ENDBRANCH  11  13
BRANCH  11  15
HETATM   15  O   UNK N   1      35.076  18.927   7.992  0.00  0.00    -0.307 OA
HETATM   16  H   UNK N   1      35.464  19.570   8.608  0.00  0.00     0.222 HD
ENDBRANCH  11  15
ENDBRANCH  10  11
ENDBRANCH   9  10
ENDBRANCH   6   9
BRANCH   7  17
HETATM   17  C   UNK N   1      33.776  13.549   9.507  0.00  0.00     0.153 C 
BRANCH  17  18
HETATM   18  N   UNK N   1      32.433  14.099   9.426  0.00  0.00    -0.426 N 
HETATM   19  H   UNK N   1      31.659  13.687   9.948  0.00  0.00     0.150 HD
HETATM   20  H   UNK N   1      32.261  14.912   8.837  0.00  0.00     0.150 HD
ENDBRANCH  17  18
ENDBRANCH   7  17
BRANCH   8  21
HETATM   21  O   UNK N   1      34.489  12.213  12.044  0.00  0.00    -0.358 OA
HETATM   22  H   UNK N   1      33.569  12.061  12.129  0.00  0.00     0.217 HD
ENDBRANCH   8  21
TORSDOF 8
ENDMDL
MODEL 9
REMARK VINA RESULT:      -5.0     18.423     19.478
REMARK  8 active torsions:
REMARK  status: ('A' for Active; 'I' for Inactive)
REMARK    1  A    between atoms: C_6  and  C_7 
REMARK    2  A    between atoms: C_7  and  O_8 
REMARK    3  A    between atoms: O_8  and  P_9 
REMARK    4  A    between atoms: P_9  and  O_10 
REMARK    5  A    between atoms: P_9  and  O_11 
REMARK    6  A    between atoms: C_13  and  C_14 
REMARK    7  A    between atoms: C_14  and  N_15 
REMARK    8  A    between atoms: C_16  and  O_17 
ROOT
HETATM    1  C   UNK N   1      25.554  23.671  -8.045  0.00  0.00     0.071 C 
HETATM    2  C   UNK N   1      26.503  23.660  -6.893  0.00  0.00     0.039 A 
HETATM    3  N   UNK N   1      27.688  23.015  -7.021  0.00  0.00    -0.367 N 
ATOM      4  HN  UNK N   1      27.900  22.532  -7.894  1.00  0.00     0.165 HD
HETATM    5  C   UNK N   1      28.600  22.995  -6.016  0.00  0.00     0.098 A 
HETATM    6  C   UNK N   1      28.339  23.642  -4.807  0.00  0.00    -0.008 A 
HETATM    7  C   UNK N   1      27.109  24.311  -4.624  0.00  0.00     0.004 A 
HETATM    8  C   UNK N   1      26.178  24.317  -5.697  0.00  0.00     0.096 A 
ENDROOT
BRANCH   6   9
HETATM    9  C   UNK N   1      29.419  23.643  -3.771  0.00  0.00     0.221 C 
BRANCH   9  10
HETATM   10  O   UNK N   1      29.714  22.359  -3.301  0.00  0.00    -0.292 OA
BRANCH  10  11
HETATM   11  P   UNK N   1      31.456  22.308  -3.306  0.00  0.00     0.391 P 
HETATM   12  O   UNK N   1      31.078  20.822  -3.557  0.00  0.00    -0.632 OA
BRANCH  11  13
HETATM   13  O   UNK N   1      32.318  21.451  -2.068  0.00  0.00    -0.307 OA
HETATM   14  H   UNK N   1      33.263  21.236  -2.052  0.00  0.00     0.222 HD
ENDBRANCH  11  13
BRANCH  11  15
HETATM   15  O   UNK N   1      30.914  22.806  -1.734  0.00  0.00    -0.307 OA
HETATM   16  H   UNK N   1      31.027  23.606  -1.196  0.00  0.00     0.222 HD
ENDBRANCH  11  15
ENDBRANCH  10  11
ENDBRANCH   9  10
ENDBRANCH   6   9
BRANCH   7  17
HETATM   17  C   UNK N   1      26.854  25.004  -3.298  0.00  0.00     0.153 C 
BRANCH  17  18
HETATM   18  N   UNK N   1      26.381  26.373  -3.407  0.00  0.00    -0.426 N 
HETATM   19  H   UNK N   1      26.544  27.052  -2.663  0.00  0.00     0.150 HD
HETATM   20  H   UNK N   1      25.876  26.662  -4.244  0.00  0.00     0.150 HD
ENDBRANCH  17  18
ENDBRANCH   7  17
BRANCH   8  21
HETATM   21  O   UNK N   1      24.998  24.956  -5.596  0.00  0.00    -0.358 OA
HETATM   22  H   UNK N   1      24.286  24.719  -6.156  0.00  0.00     0.217 HD
ENDBRANCH   8  21
TORSDOF 8
ENDMDL
