MODEL 1
REMARK VINA RESULT:      -5.1      0.000      0.000
REMARK  0 active torsions:
REMARK  status: ('A' for Active; 'I' for Inactive)
REMARK       I    between atoms: N_1  and  C_2 
ROOT
HETATM    1  N   UNK N   1      20.334  21.300   0.449  0.00  0.00    -0.234 N 
HETATM    2  C   UNK N   1      20.617  20.390   1.486  0.00  0.00     0.680 A 
HETATM    3  N   UNK N   1      19.734  19.387   1.768  0.00  0.00    -0.176 N 
ATOM      4  HN  UNK N   1      18.869  19.289   1.236  1.00  0.00     0.186 HD
HETATM    5  C   UNK N   1      20.031  18.525   2.770  0.00  0.00     0.132 A 
HETATM    6  C   UNK N   1      21.163  18.620   3.498  0.00  0.00     0.060 A 
HETATM    7  C   UNK N   1      21.192  17.527   4.518  0.00  0.00     0.092 A 
HETATM    8  C   UNK N   1      19.858  16.870   4.160  0.00  0.00     0.067 A 
HETATM    9  N   UNK N   1      19.253  17.458   3.187  0.00  0.00    -0.355 N 
ATOM     10  HN  UNK N   1      18.354  17.184   2.791  1.00  0.00     0.166 HD
HETATM   11  C   UNK N   1      22.069  19.633   3.223  0.00  0.00     0.270 A 
HETATM   12  O   UNK N   1      23.099  19.744   3.863  0.00  0.00    -0.267 OA
HETATM   13  N   UNK N   1      21.776  20.514   2.206  0.00  0.00    -0.156 N 
HETATM   14  H   UNK N   1      19.501  21.211  -0.069  0.00  0.00     0.174 HD
HETATM   15  H   UNK N   1      20.968  22.024   0.243  0.00  0.00     0.174 HD
HETATM   16  H   UNK N   1      22.406  21.241   1.995  0.00  0.00     0.187 HD
ENDROOT
TORSDOF 0
ENDMDL
MODEL 2
REMARK VINA RESULT:      -5.0     20.946     22.422
REMARK  0 active torsions:
REMARK  status: ('A' for Active; 'I' for Inactive)
REMARK       I    between atoms: N_1  and  C_2 
ROOT
HETATM    1  N   UNK N   1      45.755  22.199   4.229  0.00  0.00    -0.234 N 
HETATM    2  C   UNK N   1      44.465  22.076   3.678  0.00  0.00     0.680 A 
HETATM    3  N   UNK N   1      43.943  23.101   2.942  0.00  0.00    -0.176 N 
ATOM      4  HN  UNK N   1      44.476  23.956   2.785  1.00  0.00     0.186 HD
HETATM    5  C   UNK N   1      42.700  22.957   2.423  0.00  0.00     0.132 A 
HETATM    6  C   UNK N   1      41.960  21.843   2.605  0.00  0.00     0.060 A 
HETATM    7  C   UNK N   1      40.646  21.998   1.910  0.00  0.00     0.092 A 
HETATM    8  C   UNK N   1      40.871  23.402   1.346  0.00  0.00     0.067 A 
HETATM    9  N   UNK N   1      42.021  23.891   1.656  0.00  0.00    -0.355 N 
ATOM     10  HN  UNK N   1      42.372  24.808   1.384  1.00  0.00     0.166 HD
HETATM   11  C   UNK N   1      42.478  20.795   3.351  0.00  0.00     0.270 A 
HETATM   12  O   UNK N   1      41.835  19.777   3.533  0.00  0.00    -0.267 OA
HETATM   13  N   UNK N   1      43.741  20.932   3.882  0.00  0.00    -0.156 N 
HETATM   14  H   UNK N   1      46.277  23.021   4.083  0.00  0.00     0.174 HD
HETATM   15  H   UNK N   1      46.136  21.463   4.760  0.00  0.00     0.174 HD
HETATM   16  H   UNK N   1      44.127  20.198   4.415  0.00  0.00     0.187 HD
ENDROOT
TORSDOF 0
ENDMDL
MODEL 3
REMARK VINA RESULT:      -4.9      9.113     10.689
REMARK  0 active torsions:
REMARK  status: ('A' for Active; 'I' for Inactive)
REMARK       I    between atoms: N_1  and  C_2 
ROOT
HETATM    1  N   UNK N   1      22.736  11.508  13.008  0.00  0.00    -0.234 N 
HETATM    2  C   UNK N   1      22.843  12.005  11.695  0.00  0.00     0.680 A 
HETATM    3  N   UNK N   1      24.053  12.429  11.227  0.00  0.00    -0.176 N 
ATOM      4  HN  UNK N   1      24.884  12.391  11.819  1.00  0.00     0.186 HD
HETATM    5  C   UNK N   1      24.128  12.903   9.961  0.00  0.00     0.132 A 
HETATM    6  C   UNK N   1      23.055  12.972   9.145  0.00  0.00     0.060 A 
HETATM    7  C   UNK N   1      23.468  13.536   7.824  0.00  0.00     0.092 A 
HETATM    8  C   UNK N   1      24.952  13.737   8.136  0.00  0.00     0.067 A 
HETATM    9  N   UNK N   1      25.269  13.372   9.330  0.00  0.00    -0.355 N 
ATOM     10  HN  UNK N   1      26.201  13.420   9.740  1.00  0.00     0.166 HD
HETATM   11  C   UNK N   1      21.819  12.544   9.607  0.00  0.00     0.270 A 
HETATM   12  O   UNK N   1      20.832  12.593   8.895  0.00  0.00    -0.267 OA
HETATM   13  N   UNK N   1      21.733  12.061  10.893  0.00  0.00    -0.156 N 
HETATM   14  H   UNK N   1      23.533  11.467  13.585  0.00  0.00     0.174 HD
HETATM   15  H   UNK N   1      21.865  11.201  13.349  0.00  0.00     0.174 HD
HETATM   16  H   UNK N   1      20.864  11.752  11.240  0.00  0.00     0.187 HD
ENDROOT
TORSDOF 0
ENDMDL
MODEL 4
REMARK VINA RESULT:      -4.9      8.690     10.596
REMARK  0 active torsions:
REMARK  status: ('A' for Active; 'I' for Inactive)
REMARK       I    between atoms: N_1  and  C_2 
ROOT
HETATM    1  N   UNK N   1      20.103  11.824  11.903  0.00  0.00    -0.234 N 
HETATM    2  C   UNK N   1      21.324  12.130  11.271  0.00  0.00     0.680 A 
HETATM    3  N   UNK N   1      21.320  12.704  10.032  0.00  0.00    -0.176 N 
ATOM      4  HN  UNK N   1      20.442  12.914   9.557  1.00  0.00     0.186 HD
HETATM    5  C   UNK N   1      22.507  12.989   9.446  0.00  0.00     0.132 A 
HETATM    6  C   UNK N   1      23.692  12.728  10.040  0.00  0.00     0.060 A 
HETATM    7  C   UNK N   1      24.805  13.157   9.139  0.00  0.00     0.092 A 
HETATM    8  C   UNK N   1      23.951  13.682   7.984  0.00  0.00     0.067 A 
HETATM    9  N   UNK N   1      22.687  13.567   8.200  0.00  0.00    -0.355 N 
ATOM     10  HN  UNK N   1      21.944  13.854   7.563  1.00  0.00     0.166 HD
HETATM   11  C   UNK N   1      23.710  12.146  11.298  0.00  0.00     0.270 A 
HETATM   12  O   UNK N   1      24.763  11.898  11.859  0.00  0.00    -0.267 OA
HETATM   13  N   UNK N   1      22.508  11.853  11.901  0.00  0.00    -0.156 N 
HETATM   14  H   UNK N   1      19.251  12.023  11.451  0.00  0.00     0.174 HD
HETATM   15  H   UNK N   1      20.101  11.410  12.797  0.00  0.00     0.174 HD
HETATM   16  H   UNK N   1      22.500  11.439  12.795  0.00  0.00     0.187 HD
ENDROOT
TORSDOF 0
ENDMDL
MODEL 5
REMARK VINA RESULT:      -4.9     13.658     14.787
REMARK  0 active torsions:
REMARK  status: ('A' for Active; 'I' for Inactive)
REMARK       I    between atoms: N_1  and  C_2 
ROOT
HETATM    1  N   UNK N   1      34.412  15.465  11.164  0.00  0.00    -0.234 N 
HETATM    2  C   UNK N   1      34.271  16.062   9.896  0.00  0.00     0.680 A 
HETATM    3  N   UNK N   1      33.730  15.347   8.867  0.00  0.00    -0.176 N 
ATOM      4  HN  UNK N   1      33.426  14.383   9.004  1.00  0.00     0.186 HD
HETATM    5  C   UNK N   1      33.606  15.944   7.658  0.00  0.00     0.132 A 
HETATM    6  C   UNK N   1      33.996  17.218   7.433  0.00  0.00     0.060 A 
HETATM    7  C   UNK N   1      33.726  17.576   6.007  0.00  0.00     0.092 A 
HETATM    8  C   UNK N   1      33.128  16.240   5.563  0.00  0.00     0.067 A 
HETATM    9  N   UNK N   1      33.083  15.369   6.511  0.00  0.00    -0.355 N 
ATOM     10  HN  UNK N   1      32.723  14.419   6.431  1.00  0.00     0.166 HD
HETATM   11  C   UNK N   1      34.546  17.955   8.469  0.00  0.00     0.270 A 
HETATM   12  O   UNK N   1      34.907  19.106   8.298  0.00  0.00    -0.267 OA
HETATM   13  N   UNK N   1      34.677  17.356   9.702  0.00  0.00    -0.156 N 
HETATM   14  H   UNK N   1      34.121  14.534  11.305  0.00  0.00     0.174 HD
HETATM   15  H   UNK N   1      34.801  15.977  11.909  0.00  0.00     0.174 HD
HETATM   16  H   UNK N   1      35.066  17.863  10.451  0.00  0.00     0.187 HD
ENDROOT
TORSDOF 0
ENDMDL
MODEL 6
REMARK VINA RESULT:      -4.8     20.894     22.248
REMARK  0 active torsions:
REMARK  status: ('A' for Active; 'I' for Inactive)
REMARK       I    between atoms: N_1  and  C_2 
ROOT
HETATM    1  N   UNK N   1      45.733  22.162   4.172  0.00  0.00    -0.234 N 
HETATM    2  C   UNK N   1      44.450  22.139   3.591  0.00  0.00     0.680 A 
HETATM    3  N   UNK N   1      43.621  21.078   3.821  0.00  0.00    -0.176 N 
ATOM      4  HN  UNK N   1      43.920  20.300   4.408  1.00  0.00     0.186 HD
HETATM    5  C   UNK N   1      42.392  21.082   3.250  0.00  0.00     0.132 A 
HETATM    6  C   UNK N   1      41.957  22.091   2.466  0.00  0.00     0.060 A 
HETATM    7  C   UNK N   1      40.570  21.794   1.996  0.00  0.00     0.092 A 
HETATM    8  C   UNK N   1      40.395  20.444   2.695  0.00  0.00     0.067 A 
HETATM    9  N   UNK N   1      41.430  20.093   3.376  0.00  0.00    -0.355 N 
ATOM     10  HN  UNK N   1      41.525  19.234   3.916  1.00  0.00     0.166 HD
HETATM   11  C   UNK N   1      42.789  23.174   2.225  0.00  0.00     0.270 A 
HETATM   12  O   UNK N   1      42.425  24.100   1.522  0.00  0.00    -0.267 OA
HETATM   13  N   UNK N   1      44.039  23.180   2.801  0.00  0.00    -0.156 N 
HETATM   14  H   UNK N   1      46.029  21.414   4.741  0.00  0.00     0.174 HD
HETATM   15  H   UNK N   1      46.334  22.924   4.009  0.00  0.00     0.174 HD
HETATM   16  H   UNK N   1      44.645  23.940   2.642  0.00  0.00     0.187 HD
ENDROOT
TORSDOF 0
ENDMDL
MODEL 7
REMARK VINA RESULT:      -4.8     12.335     13.442
REMARK  0 active torsions:
REMARK  status: ('A' for Active; 'I' for Inactive)
REMARK       I    between atoms: N_1  and  C_2 
ROOT
HETATM    1  N   UNK N   1      34.764  17.079  10.282  0.00  0.00    -0.234 N 
HETATM    2  C   UNK N   1      33.995  17.082   9.103  0.00  0.00     0.680 A 
HETATM    3  N   UNK N   1      32.634  17.163   9.181  0.00  0.00    -0.176 N 
ATOM      4  HN  UNK N   1      32.166  17.223  10.085  1.00  0.00     0.186 HD
HETATM    5  C   UNK N   1      31.919  17.164   8.031  0.00  0.00     0.132 A 
HETATM    6  C   UNK N   1      32.498  17.087   6.814  0.00  0.00     0.060 A 
HETATM    7  C   UNK N   1      31.441  17.110   5.757  0.00  0.00     0.092 A 
HETATM    8  C   UNK N   1      30.224  17.214   6.678  0.00  0.00     0.067 A 
HETATM    9  N   UNK N   1      30.539  17.240   7.927  0.00  0.00    -0.355 N 
ATOM     10  HN  UNK N   1      29.885  17.306   8.705  1.00  0.00     0.166 HD
HETATM   11  C   UNK N   1      33.879  17.004   6.720  0.00  0.00     0.270 A 
HETATM   12  O   UNK N   1      34.430  16.933   5.636  0.00  0.00    -0.267 OA
HETATM   13  N   UNK N   1      34.615  17.002   7.883  0.00  0.00    -0.156 N 
HETATM   14  H   UNK N   1      34.320  17.136  11.159  0.00  0.00     0.174 HD
HETATM   15  H   UNK N   1      35.745  17.021  10.231  0.00  0.00     0.174 HD
HETATM   16  H   UNK N   1      35.597  16.944   7.838  0.00  0.00     0.187 HD
ENDROOT
TORSDOF 0
ENDMDL
MODEL 8
REMARK VINA RESULT:      -4.7     11.169     12.280
REMARK  0 active torsions:
REMARK  status: ('A' for Active; 'I' for Inactive)
REMARK       I    between atoms: N_1  and  C_2 
ROOT
HETATM    1  N   UNK N   1      30.793  17.492   9.433  0.00  0.00    -0.234 N 
HETATM    2  C   UNK N   1      31.405  17.458   8.165  0.00  0.00     0.680 A 
HETATM    3  N   UNK N   1      30.663  17.145   7.062  0.00  0.00    -0.176 N 
ATOM      4  HN  UNK N   1      29.668  16.936   7.145  1.00  0.00     0.186 HD
HETATM    5  C   UNK N   1      31.276  17.120   5.855  0.00  0.00     0.132 A 
HETATM    6  C   UNK N   1      32.590  17.391   5.700  0.00  0.00     0.060 A 
HETATM    7  C   UNK N   1      32.955  17.278   4.255  0.00  0.00     0.092 A 
HETATM    8  C   UNK N   1      31.574  16.899   3.718  0.00  0.00     0.067 A 
HETATM    9  N   UNK N   1      30.678  16.824   4.641  0.00  0.00    -0.355 N 
ATOM     10  HN  UNK N   1      29.696  16.587   4.501  1.00  0.00     0.166 HD
HETATM   11  C   UNK N   1      33.355  17.710   6.812  0.00  0.00     0.270 A 
HETATM   12  O   UNK N   1      34.542  17.959   6.705  0.00  0.00    -0.267 OA
HETATM   13  N   UNK N   1      32.740  17.739   8.043  0.00  0.00    -0.156 N 
HETATM   14  H   UNK N   1      29.833  17.291   9.521  0.00  0.00     0.174 HD
HETATM   15  H   UNK N   1      31.324  17.717  10.230  0.00  0.00     0.174 HD
HETATM   16  H   UNK N   1      33.267  17.963   8.845  0.00  0.00     0.187 HD
ENDROOT
TORSDOF 0
ENDMDL
MODEL 9
REMARK VINA RESULT:      -4.5      8.215      9.700
REMARK  0 active torsions:
REMARK  status: ('A' for Active; 'I' for Inactive)
REMARK       I    between atoms: N_1  and  C_2 
ROOT
HETATM    1  N   UNK N   1      24.691  14.154   6.610  0.00  0.00    -0.234 N 
HETATM    2  C   UNK N   1      24.067  13.635   7.761  0.00  0.00     0.680 A 
HETATM    3  N   UNK N   1      24.821  13.304   8.849  0.00  0.00    -0.176 N 
ATOM      4  HN  UNK N   1      25.834  13.427   8.840  1.00  0.00     0.186 HD
HETATM    5  C   UNK N   1      24.196  12.807   9.944  0.00  0.00     0.132 A 
HETATM    6  C   UNK N   1      22.859  12.628   9.998  0.00  0.00     0.060 A 
HETATM    7  C   UNK N   1      22.485  12.068  11.333  0.00  0.00     0.092 A 
HETATM    8  C   UNK N   1      23.891  12.002  11.934  0.00  0.00     0.067 A 
HETATM    9  N   UNK N   1      24.803  12.422  11.128  0.00  0.00    -0.355 N 
ATOM     10  HN  UNK N   1      25.802  12.463  11.327  1.00  0.00     0.166 HD
HETATM   11  C   UNK N   1      22.081  12.961   8.900  0.00  0.00     0.270 A 
HETATM   12  O   UNK N   1      20.872  12.810   8.919  0.00  0.00    -0.267 OA
HETATM   13  N   UNK N   1      22.707  13.466   7.783  0.00  0.00    -0.156 N 
HETATM   14  H   UNK N   1      25.668  14.276   6.593  0.00  0.00     0.174 HD
HETATM   15  H   UNK N   1      24.151  14.394   5.822  0.00  0.00     0.174 HD
HETATM   16  H   UNK N   1      22.172  13.708   6.992  0.00  0.00     0.187 HD
ENDROOT
TORSDOF 0
ENDMDL
