MODEL 1
REMARK VINA RESULT:      -6.8      0.000      0.000
REMARK  9 active torsions:
REMARK  status: ('A' for Active; 'I' for Inactive)
REMARK    1  A    between atoms: N_20  and  C_2 
REMARK    2  A    between atoms: C_6  and  C_3 
REMARK    3  A    between atoms: O_26  and  C_3 
REMARK    4  A    between atoms: C_8  and  O_22 
REMARK    5  A    between atoms: C_9  and  O_23 
REMARK    6  A    between atoms: N_13  and  C_10 
REMARK    7  A    between atoms: C_12  and  N_21 
REMARK    8  A    between atoms: S_28  and  N_20 
REMARK    9  A    between atoms: S_28  and  O_26 
ROOT
HETATM    1  C   UNK N   1      33.906  14.950   9.838  0.00  0.00     0.180 C 
HETATM    2  C   UNK N   1      34.942  16.088   9.822  0.00  0.00     0.182 C 
HETATM    3  C   UNK N   1      35.755  15.778  11.075  0.00  0.00     0.198 C 
HETATM    4  C   UNK N   1      35.292  14.370  11.410  0.00  0.00     0.262 C 
HETATM    5  O   UNK N   1      33.906  14.418  11.144  0.00  0.00    -0.353 OA
ENDROOT
BRANCH   4   6
HETATM    6  N   UNK N   1      35.574  13.894  12.771  0.00  0.00    -0.297 N 
HETATM    7  C   UNK N   1      36.320  14.581  13.675  0.00  0.00     0.188 A 
HETATM    8  N   UNK N   1      36.354  13.950  14.881  0.00  0.00    -0.346 N 
HETATM    9  C   UNK N   1      35.594  12.856  14.704  0.00  0.00     0.122 A 
ATOM     10  HN  UNK N   1      36.844  14.241  15.727  1.00  0.00     0.167 HD
HETATM   11  C   UNK N   1      35.237  11.871  15.610  0.00  0.00     0.131 A 
HETATM   12  C   UNK N   1      35.133  12.814  13.437  0.00  0.00     0.142 A 
HETATM   13  N   UNK N   1      34.414  10.871  15.177  0.00  0.00    -0.337 N 
HETATM   14  C   UNK N   1      33.956  10.845  13.881  0.00  0.00     0.183 A 
ATOM     15  HN  UNK N   1      34.136  10.133  15.823  1.00  0.00     0.168 HD
HETATM   16  N   UNK N   1      34.312  11.829  12.999  0.00  0.00    -0.336 N 
ATOM     17  HN  UNK N   1      33.970  11.821  12.038  1.00  0.00     0.168 HD
BRANCH  11  18
HETATM   18  N   UNK N   1      35.684  11.908  16.946  0.00  0.00    -0.383 N 
HETATM   19  H   UNK N   1      35.219  12.463  17.612  0.00  0.00     0.157 HD
HETATM   20  H   UNK N   1      36.468  11.373  17.214  0.00  0.00     0.157 HD
ENDBRANCH  11  18
ENDBRANCH   4   6
BRANCH   3  21
HETATM   21  O   UNK N   1      37.133  15.878  10.869  0.00  0.00    -0.388 OA
HETATM   22  H   UNK N   1      37.918  16.207  11.335  0.00  0.00     0.210 HD
ENDBRANCH   3  21
BRANCH   2  23
HETATM   23  O   UNK N   1      34.348  17.349   9.952  0.00  0.00    -0.390 OA
HETATM   24  H   UNK N   1      34.389  18.317   9.920  0.00  0.00     0.210 HD
ENDBRANCH   2  23
BRANCH   1  25
HETATM   25  C   UNK N   1      32.511  15.299   9.318  0.00  0.00     0.226 C 
BRANCH  25  26
HETATM   26  O   UNK N   1      32.534  15.505   7.928  0.00  0.00    -0.257 OA
BRANCH  26  27
HETATM   27  S   UNK N   1      32.055  17.147   7.629  0.00  0.00     0.357 S 
HETATM   28  O   UNK N   1      33.255  17.978   7.140  0.00  0.00    -0.176 OA
HETATM   29  O   UNK N   1      31.031  17.235   6.484  0.00  0.00    -0.176 OA
BRANCH  27  30
HETATM   30  N   UNK N   1      31.347  17.964   9.025  0.00  0.00    -0.297 N 
HETATM   31  H   UNK N   1      31.821  18.185   9.900  0.00  0.00     0.174 HD
BRANCH  30  32
HETATM   32  C   UNK N   1      29.964  18.260   8.696  0.00  0.00     0.130 C 
HETATM   33  C   UNK N   1      29.053  17.574   9.691  0.00  0.00     0.027 C 
ENDBRANCH  30  32
ENDBRANCH  27  30
ENDBRANCH  26  27
ENDBRANCH  25  26
ENDBRANCH   1  25
TORSDOF 9
ENDMDL
MODEL 2
REMARK VINA RESULT:      -6.8      4.523     10.506
REMARK  9 active torsions:
REMARK  status: ('A' for Active; 'I' for Inactive)
REMARK    1  A    between atoms: N_20  and  C_2 
REMARK    2  A    between atoms: C_6  and  C_3 
REMARK    3  A    between atoms: O_26  and  C_3 
REMARK    4  A    between atoms: C_8  and  O_22 
REMARK    5  A    between atoms: C_9  and  O_23 
REMARK    6  A    between atoms: N_13  and  C_10 
REMARK    7  A    between atoms: C_12  and  N_21 
REMARK    8  A    between atoms: S_28  and  N_20 
REMARK    9  A    between atoms: S_28  and  O_26 
ROOT
HETATM    1  C   UNK N   1      30.265  16.878   7.537  0.00  0.00     0.180 C 
HETATM    2  C   UNK N   1      29.800  17.461   8.883  0.00  0.00     0.182 C 
HETATM    3  C   UNK N   1      28.601  18.301   8.454  0.00  0.00     0.198 C 
HETATM    4  C   UNK N   1      28.365  17.811   7.035  0.00  0.00     0.262 C 
HETATM    5  O   UNK N   1      29.675  17.665   6.526  0.00  0.00    -0.353 OA
ENDROOT
BRANCH   4   6
HETATM    6  N   UNK N   1      27.535  18.666   6.176  0.00  0.00    -0.297 N 
HETATM    7  C   UNK N   1      27.872  19.931   5.813  0.00  0.00     0.188 A 
HETATM    8  N   UNK N   1      26.964  20.464   4.950  0.00  0.00    -0.346 N 
HETATM    9  C   UNK N   1      26.059  19.486   4.776  0.00  0.00     0.122 A 
ATOM     10  HN  UNK N   1      26.969  21.394   4.531  1.00  0.00     0.167 HD
HETATM   11  C   UNK N   1      24.938  19.455   3.963  0.00  0.00     0.131 A 
HETATM   12  C   UNK N   1      26.393  18.410   5.517  0.00  0.00     0.142 A 
HETATM   13  N   UNK N   1      24.194  18.309   3.943  0.00  0.00    -0.337 N 
HETATM   14  C   UNK N   1      24.550  17.223   4.708  0.00  0.00     0.183 A 
ATOM     15  HN  UNK N   1      23.364  18.258   3.354  1.00  0.00     0.168 HD
HETATM   16  N   UNK N   1      25.665  17.267   5.501  0.00  0.00    -0.336 N 
ATOM     17  HN  UNK N   1      25.940  16.464   6.064  1.00  0.00     0.168 HD
BRANCH  11  18
HETATM   18  N   UNK N   1      24.583  20.556   3.160  0.00  0.00    -0.383 N 
HETATM   19  H   UNK N   1      23.753  21.054   3.335  0.00  0.00     0.157 HD
HETATM   20  H   UNK N   1      25.171  20.830   2.418  0.00  0.00     0.157 HD
ENDBRANCH  11  18
ENDBRANCH   4   6
BRANCH   3  21
HETATM   21  O   UNK N   1      27.494  18.138   9.291  0.00  0.00    -0.388 OA
HETATM   22  H   UNK N   1      27.307  18.015  10.235  0.00  0.00     0.210 HD
ENDBRANCH   3  21
BRANCH   2  23
HETATM   23  O   UNK N   1      30.767  18.292   9.463  0.00  0.00    -0.390 OA
HETATM   24  H   UNK N   1      31.391  19.033   9.419  0.00  0.00     0.210 HD
ENDBRANCH   2  23
BRANCH   1  25
HETATM   25  C   UNK N   1      31.772  16.688   7.366  0.00  0.00     0.226 C 
BRANCH  25  26
HETATM   26  O   UNK N   1      32.428  17.929   7.304  0.00  0.00    -0.257 OA
BRANCH  26  27
HETATM   27  S   UNK N   1      33.965  17.755   8.093  0.00  0.00     0.357 S 
HETATM   28  O   UNK N   1      34.904  16.872   7.253  0.00  0.00    -0.176 OA
HETATM   29  O   UNK N   1      34.698  19.104   8.203  0.00  0.00    -0.176 OA
BRANCH  27  30
HETATM   30  N   UNK N   1      33.875  17.078   9.721  0.00  0.00    -0.297 N 
HETATM   31  H   UNK N   1      33.275  17.404  10.479  0.00  0.00     0.174 HD
BRANCH  30  32
HETATM   32  C   UNK N   1      34.813  15.971   9.781  0.00  0.00     0.130 C 
HETATM   33  C   UNK N   1      35.816  16.222  10.886  0.00  0.00     0.027 C 
ENDBRANCH  30  32
ENDBRANCH  27  30
ENDBRANCH  26  27
ENDBRANCH  25  26
ENDBRANCH   1  25
TORSDOF 9
ENDMDL
MODEL 3
REMARK VINA RESULT:      -6.7      2.755      8.258
REMARK  9 active torsions:
REMARK  status: ('A' for Active; 'I' for Inactive)
REMARK    1  A    between atoms: N_20  and  C_2 
REMARK    2  A    between atoms: C_6  and  C_3 
REMARK    3  A    between atoms: O_26  and  C_3 
REMARK    4  A    between atoms: C_8  and  O_22 
REMARK    5  A    between atoms: C_9  and  O_23 
REMARK    6  A    between atoms: N_13  and  C_10 
REMARK    7  A    between atoms: C_12  and  N_21 
REMARK    8  A    between atoms: S_28  and  N_20 
REMARK    9  A    between atoms: S_28  and  O_26 
ROOT
HETATM    1  C   UNK N   1      34.166  15.707   9.504  0.00  0.00     0.180 C 
HETATM    2  C   UNK N   1      35.012  15.869   8.230  0.00  0.00     0.182 C 
HETATM    3  C   UNK N   1      34.012  16.520   7.279  0.00  0.00     0.198 C 
HETATM    4  C   UNK N   1      32.897  16.929   8.228  0.00  0.00     0.262 C 
HETATM    5  O   UNK N   1      32.816  15.833   9.116  0.00  0.00    -0.353 OA
ENDROOT
BRANCH   4   6
HETATM    6  N   UNK N   1      31.598  17.238   7.618  0.00  0.00    -0.297 N 
HETATM    7  C   UNK N   1      31.326  17.088   6.294  0.00  0.00     0.188 A 
HETATM    8  N   UNK N   1      30.025  17.370   6.014  0.00  0.00    -0.346 N 
HETATM    9  C   UNK N   1      29.490  17.686   7.205  0.00  0.00     0.122 A 
ATOM     10  HN  UNK N   1      29.560  17.346   5.106  1.00  0.00     0.167 HD
HETATM   11  C   UNK N   1      28.184  18.014   7.528  0.00  0.00     0.131 A 
HETATM   12  C   UNK N   1      30.433  17.618   8.167  0.00  0.00     0.142 A 
HETATM   13  N   UNK N   1      27.892  18.263   8.840  0.00  0.00    -0.337 N 
HETATM   14  C   UNK N   1      28.868  18.190   9.805  0.00  0.00     0.183 A 
ATOM     15  HN  UNK N   1      26.938  18.506   9.106  1.00  0.00     0.168 HD
HETATM   16  N   UNK N   1      30.153  17.858   9.471  0.00  0.00    -0.336 N 
ATOM     17  HN  UNK N   1      30.880  17.794  10.183  1.00  0.00     0.168 HD
BRANCH  11  18
HETATM   18  N   UNK N   1      27.176  18.066   6.545  0.00  0.00    -0.383 N 
HETATM   19  H   UNK N   1      26.892  17.247   6.079  0.00  0.00     0.157 HD
HETATM   20  H   UNK N   1      26.752  18.928   6.323  0.00  0.00     0.157 HD
ENDBRANCH  11  18
ENDBRANCH   4   6
BRANCH   3  21
HETATM   21  O   UNK N   1      34.556  17.590   6.565  0.00  0.00    -0.388 OA
HETATM   22  H   UNK N   1      34.289  18.217   5.874  0.00  0.00     0.210 HD
ENDBRANCH   3  21
BRANCH   2  23
HETATM   23  O   UNK N   1      35.421  14.638   7.703  0.00  0.00    -0.390 OA
HETATM   24  H   UNK N   1      36.111  14.023   7.411  0.00  0.00     0.210 HD
ENDBRANCH   2  23
BRANCH   1  25
HETATM   25  C   UNK N   1      34.448  14.464  10.350  0.00  0.00     0.226 C 
BRANCH  25  26
HETATM   26  O   UNK N   1      34.295  14.746  11.717  0.00  0.00    -0.257 OA
BRANCH  26  27
HETATM   27  S   UNK N   1      35.375  13.707  12.595  0.00  0.00     0.357 S 
HETATM   28  O   UNK N   1      34.600  12.877  13.633  0.00  0.00    -0.176 OA
HETATM   29  O   UNK N   1      36.026  12.663  11.671  0.00  0.00    -0.176 OA
BRANCH  27  30
HETATM   30  N   UNK N   1      36.683  14.554  13.427  0.00  0.00    -0.297 N 
HETATM   31  H   UNK N   1      37.331  15.222  13.010  0.00  0.00     0.174 HD
BRANCH  30  32
HETATM   32  C   UNK N   1      36.665  14.121  14.812  0.00  0.00     0.130 C 
HETATM   33  C   UNK N   1      37.266  15.202  15.685  0.00  0.00     0.027 C 
ENDBRANCH  30  32
ENDBRANCH  27  30
ENDBRANCH  26  27
ENDBRANCH  25  26
ENDBRANCH   1  25
TORSDOF 9
ENDMDL
MODEL 4
REMARK VINA RESULT:      -6.5      8.797     14.096
REMARK  9 active torsions:
REMARK  status: ('A' for Active; 'I' for Inactive)
REMARK    1  A    between atoms: N_20  and  C_2 
REMARK    2  A    between atoms: C_6  and  C_3 
REMARK    3  A    between atoms: O_26  and  C_3 
REMARK    4  A    between atoms: C_8  and  O_22 
REMARK    5  A    between atoms: C_9  and  O_23 
REMARK    6  A    between atoms: N_13  and  C_10 
REMARK    7  A    between atoms: C_12  and  N_21 
REMARK    8  A    between atoms: S_28  and  N_20 
REMARK    9  A    between atoms: S_28  and  O_26 
ROOT
HETATM    1  C   UNK N   1      26.488  19.916   5.316  0.00  0.00     0.180 C 
HETATM    2  C   UNK N   1      26.867  20.281   3.870  0.00  0.00     0.182 C 
HETATM    3  C   UNK N   1      25.581  19.943   3.122  0.00  0.00     0.198 C 
HETATM    4  C   UNK N   1      24.591  19.770   4.263  0.00  0.00     0.262 C 
HETATM    5  O   UNK N   1      25.348  19.090   5.243  0.00  0.00    -0.353 OA
ENDROOT
BRANCH   4   6
HETATM    6  N   UNK N   1      23.343  19.064   3.946  0.00  0.00    -0.297 N 
HETATM    7  C   UNK N   1      23.017  17.840   4.438  0.00  0.00     0.188 A 
HETATM    8  N   UNK N   1      21.771  17.458   4.047  0.00  0.00    -0.346 N 
HETATM    9  C   UNK N   1      21.325  18.487   3.307  0.00  0.00     0.122 A 
ATOM     10  HN  UNK N   1      21.285  16.587   4.266  1.00  0.00     0.167 HD
HETATM   11  C   UNK N   1      20.097  18.666   2.692  0.00  0.00     0.131 A 
HETATM   12  C   UNK N   1      22.269  19.447   3.236  0.00  0.00     0.142 A 
HETATM   13  N   UNK N   1      19.883  19.836   2.020  0.00  0.00    -0.337 N 
HETATM   14  C   UNK N   1      20.858  20.802   1.957  0.00  0.00     0.183 A 
ATOM     15  HN  UNK N   1      18.988  19.994   1.558  1.00  0.00     0.168 HD
HETATM   16  N   UNK N   1      22.064  20.613   2.576  0.00  0.00    -0.336 N 
ATOM     17  HN  UNK N   1      22.790  21.329   2.540  1.00  0.00     0.168 HD
BRANCH  11  18
HETATM   18  N   UNK N   1      19.086  17.688   2.775  0.00  0.00    -0.383 N 
HETATM   19  H   UNK N   1      19.312  16.755   2.989  0.00  0.00     0.157 HD
HETATM   20  H   UNK N   1      18.146  17.941   2.618  0.00  0.00     0.157 HD
ENDBRANCH  11  18
ENDBRANCH   4   6
BRANCH   3  21
HETATM   21  O   UNK N   1      25.209  20.928   2.205  0.00  0.00    -0.388 OA
HETATM   22  H   UNK N   1      25.308  21.886   2.084  0.00  0.00     0.210 HD
ENDBRANCH   3  21
BRANCH   2  23
HETATM   23  O   UNK N   1      27.913  19.489   3.379  0.00  0.00    -0.390 OA
HETATM   24  H   UNK N   1      28.548  19.250   2.687  0.00  0.00     0.210 HD
ENDBRANCH   2  23
BRANCH   1  25
HETATM   25  C   UNK N   1      27.608  19.340   6.184  0.00  0.00     0.226 C 
BRANCH  25  26
HETATM   26  O   UNK N   1      27.567  17.936   6.185  0.00  0.00    -0.257 OA
BRANCH  26  27
HETATM   27  S   UNK N   1      29.192  17.360   5.976  0.00  0.00     0.357 S 
HETATM   28  O   UNK N   1      30.052  17.716   7.201  0.00  0.00    -0.176 OA
HETATM   29  O   UNK N   1      29.240  15.823   5.903  0.00  0.00    -0.176 OA
BRANCH  27  30
HETATM   30  N   UNK N   1      30.002  17.975   4.532  0.00  0.00    -0.297 N 
HETATM   31  H   UNK N   1      29.799  18.853   4.054  0.00  0.00     0.174 HD
BRANCH  30  32
HETATM   32  C   UNK N   1      31.008  16.999   4.153  0.00  0.00     0.130 C 
HETATM   33  C   UNK N   1      32.386  17.579   4.394  0.00  0.00     0.027 C 
ENDBRANCH  30  32
ENDBRANCH  27  30
ENDBRANCH  26  27
ENDBRANCH  25  26
ENDBRANCH   1  25
TORSDOF 9
ENDMDL
MODEL 5
REMARK VINA RESULT:      -6.5      1.982      2.247
REMARK  9 active torsions:
REMARK  status: ('A' for Active; 'I' for Inactive)
REMARK    1  A    between atoms: N_20  and  C_2 
REMARK    2  A    between atoms: C_6  and  C_3 
REMARK    3  A    between atoms: O_26  and  C_3 
REMARK    4  A    between atoms: C_8  and  O_22 
REMARK    5  A    between atoms: C_9  and  O_23 
REMARK    6  A    between atoms: N_13  and  C_10 
REMARK    7  A    between atoms: C_12  and  N_21 
REMARK    8  A    between atoms: S_28  and  N_20 
REMARK    9  A    between atoms: S_28  and  O_26 
ROOT
HETATM    1  C   UNK N   1      34.123  15.097   9.304  0.00  0.00     0.180 C 
HETATM    2  C   UNK N   1      35.078  16.270   9.586  0.00  0.00     0.182 C 
HETATM    3  C   UNK N   1      35.713  15.837  10.904  0.00  0.00     0.198 C 
HETATM    4  C   UNK N   1      35.293  14.378  10.991  0.00  0.00     0.262 C 
HETATM    5  O   UNK N   1      33.962  14.401  10.520  0.00  0.00    -0.353 OA
ENDROOT
BRANCH   4   6
HETATM    6  N   UNK N   1      35.398  13.744  12.311  0.00  0.00    -0.297 N 
HETATM    7  C   UNK N   1      35.918  14.356  13.407  0.00  0.00     0.188 A 
HETATM    8  N   UNK N   1      35.819  13.570  14.514  0.00  0.00    -0.346 N 
HETATM    9  C   UNK N   1      35.209  12.456  14.077  0.00  0.00     0.122 A 
ATOM     10  HN  UNK N   1      36.136  13.779  15.462  1.00  0.00     0.167 HD
HETATM   11  C   UNK N   1      34.809  11.332  14.781  0.00  0.00     0.131 A 
HETATM   12  C   UNK N   1      34.964  12.552  12.754  0.00  0.00     0.142 A 
HETATM   13  N   UNK N   1      34.168  10.340  14.094  0.00  0.00    -0.337 N 
HETATM   14  C   UNK N   1      33.930  10.457  12.746  0.00  0.00     0.183 A 
ATOM     15  HN  UNK N   1      33.864   9.502  14.588  1.00  0.00     0.168 HD
HETATM   16  N   UNK N   1      34.325  11.577  12.065  0.00  0.00    -0.336 N 
ATOM     17  HN  UNK N   1      34.144  11.674  11.066  1.00  0.00     0.168 HD
BRANCH  11  18
HETATM   18  N   UNK N   1      35.030  11.220  16.169  0.00  0.00    -0.383 N 
HETATM   19  H   UNK N   1      35.295  12.007  16.696  0.00  0.00     0.157 HD
HETATM   20  H   UNK N   1      34.919  10.347  16.613  0.00  0.00     0.157 HD
ENDBRANCH  11  18
ENDBRANCH   4   6
BRANCH   3  21
HETATM   21  O   UNK N   1      37.098  16.021  10.928  0.00  0.00    -0.388 OA
HETATM   22  H   UNK N   1      37.816  16.224  10.310  0.00  0.00     0.210 HD
ENDBRANCH   3  21
BRANCH   2  23
HETATM   23  O   UNK N   1      34.395  17.477   9.774  0.00  0.00    -0.390 OA
HETATM   24  H   UNK N   1      34.371  18.446   9.812  0.00  0.00     0.210 HD
ENDBRANCH   2  23
BRANCH   1  25
HETATM   25  C   UNK N   1      32.803  15.449   8.618  0.00  0.00     0.226 C 
BRANCH  25  26
HETATM   26  O   UNK N   1      32.963  15.502   7.223  0.00  0.00    -0.257 OA
BRANCH  26  27
HETATM   27  S   UNK N   1      32.860  17.168   6.742  0.00  0.00     0.357 S 
HETATM   28  O   UNK N   1      32.193  18.007   7.846  0.00  0.00    -0.176 OA
HETATM   29  O   UNK N   1      34.256  17.792   6.572  0.00  0.00    -0.176 OA
BRANCH  27  30
HETATM   30  N   UNK N   1      31.982  17.436   5.234  0.00  0.00    -0.297 N 
HETATM   31  H   UNK N   1      31.274  18.151   5.066  0.00  0.00     0.174 HD
BRANCH  30  32
HETATM   32  C   UNK N   1      32.453  16.449   4.279  0.00  0.00     0.130 C 
HETATM   33  C   UNK N   1      32.255  16.975   2.873  0.00  0.00     0.027 C 
ENDBRANCH  30  32
ENDBRANCH  27  30
ENDBRANCH  26  27
ENDBRANCH  25  26
ENDBRANCH   1  25
TORSDOF 9
ENDMDL
MODEL 6
REMARK VINA RESULT:      -6.5      3.158      8.284
REMARK  9 active torsions:
REMARK  status: ('A' for Active; 'I' for Inactive)
REMARK    1  A    between atoms: N_20  and  C_2 
REMARK    2  A    between atoms: C_6  and  C_3 
REMARK    3  A    between atoms: O_26  and  C_3 
REMARK    4  A    between atoms: C_8  and  O_22 
REMARK    5  A    between atoms: C_9  and  O_23 
REMARK    6  A    between atoms: N_13  and  C_10 
REMARK    7  A    between atoms: C_12  and  N_21 
REMARK    8  A    between atoms: S_28  and  N_20 
REMARK    9  A    between atoms: S_28  and  O_26 
ROOT
HETATM    1  C   UNK N   1      34.227  15.644   9.281  0.00  0.00     0.180 C 
HETATM    2  C   UNK N   1      33.742  14.220   8.961  0.00  0.00     0.182 C 
HETATM    3  C   UNK N   1      32.486  14.501   8.142  0.00  0.00     0.198 C 
HETATM    4  C   UNK N   1      32.634  15.984   7.839  0.00  0.00     0.262 C 
HETATM    5  O   UNK N   1      33.136  16.508   9.051  0.00  0.00    -0.353 OA
ENDROOT
BRANCH   4   6
HETATM    6  N   UNK N   1      31.423  16.687   7.398  0.00  0.00    -0.297 N 
HETATM    7  C   UNK N   1      30.985  16.708   6.112  0.00  0.00     0.188 A 
HETATM    8  N   UNK N   1      29.797  17.363   5.997  0.00  0.00    -0.346 N 
HETATM    9  C   UNK N   1      29.502  17.738   7.253  0.00  0.00     0.122 A 
ATOM     10  HN  UNK N   1      29.254  17.532   5.150  1.00  0.00     0.167 HD
HETATM   11  C   UNK N   1      28.387  18.398   7.740  0.00  0.00     0.131 A 
HETATM   12  C   UNK N   1      30.480  17.343   8.094  0.00  0.00     0.142 A 
HETATM   13  N   UNK N   1      28.316  18.630   9.084  0.00  0.00    -0.337 N 
HETATM   14  C   UNK N   1      29.324  18.221   9.924  0.00  0.00     0.183 A 
ATOM     15  HN  UNK N   1      27.505  19.115   9.469  1.00  0.00     0.168 HD
HETATM   16  N   UNK N   1      30.417  17.564   9.430  0.00  0.00    -0.336 N 
ATOM     17  HN  UNK N   1      31.165  17.250  10.048  1.00  0.00     0.168 HD
BRANCH  11  18
HETATM   18  N   UNK N   1      27.340  18.797   6.884  0.00  0.00    -0.383 N 
HETATM   19  H   UNK N   1      26.404  18.605   7.120  0.00  0.00     0.157 HD
HETATM   20  H   UNK N   1      27.547  19.272   6.046  0.00  0.00     0.157 HD
ENDBRANCH  11  18
ENDBRANCH   4   6
BRANCH   3  21
HETATM   21  O   UNK N   1      32.392  13.706   6.998  0.00  0.00    -0.388 OA
HETATM   22  H   UNK N   1      31.802  13.032   6.625  0.00  0.00     0.210 HD
ENDBRANCH   3  21
BRANCH   2  23
HETATM   23  O   UNK N   1      33.394  13.506  10.115  0.00  0.00    -0.390 OA
HETATM   24  H   UNK N   1      32.952  12.765  10.557  0.00  0.00     0.210 HD
ENDBRANCH   2  23
BRANCH   1  25
HETATM   25  C   UNK N   1      34.891  15.843  10.644  0.00  0.00     0.226 C 
BRANCH  25  26
HETATM   26  O   UNK N   1      36.108  15.144  10.713  0.00  0.00    -0.257 OA
BRANCH  26  27
HETATM   27  S   UNK N   1      36.131  14.270  12.214  0.00  0.00     0.357 S 
HETATM   28  O   UNK N   1      36.375  15.229  13.392  0.00  0.00    -0.176 OA
HETATM   29  O   UNK N   1      34.765  13.628  12.513  0.00  0.00    -0.176 OA
BRANCH  27  30
HETATM   30  N   UNK N   1      37.339  12.983  12.287  0.00  0.00    -0.297 N 
HETATM   31  H   UNK N   1      37.805  12.639  13.126  0.00  0.00     0.174 HD
BRANCH  30  32
HETATM   32  C   UNK N   1      37.544  12.507  10.931  0.00  0.00     0.130 C 
HETATM   33  C   UNK N   1      38.830  13.089  10.383  0.00  0.00     0.027 C 
ENDBRANCH  30  32
ENDBRANCH  27  30
ENDBRANCH  26  27
ENDBRANCH  25  26
ENDBRANCH   1  25
TORSDOF 9
ENDMDL
MODEL 7
REMARK VINA RESULT:      -6.5      2.841      4.539
REMARK  9 active torsions:
REMARK  status: ('A' for Active; 'I' for Inactive)
REMARK    1  A    between atoms: N_20  and  C_2 
REMARK    2  A    between atoms: C_6  and  C_3 
REMARK    3  A    between atoms: O_26  and  C_3 
REMARK    4  A    between atoms: C_8  and  O_22 
REMARK    5  A    between atoms: C_9  and  O_23 
REMARK    6  A    between atoms: N_13  and  C_10 
REMARK    7  A    between atoms: C_12  and  N_21 
REMARK    8  A    between atoms: S_28  and  N_20 
REMARK    9  A    between atoms: S_28  and  O_26 
ROOT
HETATM    1  C   UNK N   1      35.277  13.349  12.820  0.00  0.00     0.180 C 
HETATM    2  C   UNK N   1      36.449  12.417  12.463  0.00  0.00     0.182 C 
HETATM    3  C   UNK N   1      36.544  11.552  13.717  0.00  0.00     0.198 C 
HETATM    4  C   UNK N   1      35.240  11.882  14.426  0.00  0.00     0.262 C 
HETATM    5  O   UNK N   1      35.107  13.273  14.218  0.00  0.00    -0.353 OA
ENDROOT
BRANCH   4   6
HETATM    6  N   UNK N   1      35.161  11.529  15.849  0.00  0.00    -0.297 N 
HETATM    7  C   UNK N   1      35.131  10.253  16.313  0.00  0.00     0.188 A 
HETATM    8  N   UNK N   1      35.139  10.213  17.674  0.00  0.00    -0.346 N 
HETATM    9  C   UNK N   1      35.188  11.504  18.042  0.00  0.00     0.122 A 
ATOM     10  HN  UNK N   1      35.113   9.391  18.277  1.00  0.00     0.167 HD
HETATM   11  C   UNK N   1      35.263  12.060  19.309  0.00  0.00     0.131 A 
HETATM   12  C   UNK N   1      35.192  12.296  16.951  0.00  0.00     0.142 A 
HETATM   13  N   UNK N   1      35.339  13.420  19.408  0.00  0.00    -0.337 N 
HETATM   14  C   UNK N   1      35.339  14.210  18.283  0.00  0.00     0.183 A 
ATOM     15  HN  UNK N   1      35.395  13.855  20.328  1.00  0.00     0.168 HD
HETATM   16  N   UNK N   1      35.271  13.647  17.038  0.00  0.00    -0.336 N 
ATOM     17  HN  UNK N   1      35.279  14.226  16.199  1.00  0.00     0.168 HD
BRANCH  11  18
HETATM   18  N   UNK N   1      35.288  11.252  20.463  0.00  0.00    -0.383 N 
HETATM   19  H   UNK N   1      35.321  11.662  21.357  0.00  0.00     0.157 HD
HETATM   20  H   UNK N   1      35.271  10.271  20.375  0.00  0.00     0.157 HD
ENDBRANCH  11  18
ENDBRANCH   4   6
BRANCH   3  21
HETATM   21  O   UNK N   1      36.695  10.193  13.430  0.00  0.00    -0.388 OA
HETATM   22  H   UNK N   1      36.150   9.392  13.393  0.00  0.00     0.210 HD
ENDBRANCH   3  21
BRANCH   2  23
HETATM   23  O   UNK N   1      37.649  13.117  12.289  0.00  0.00    -0.390 OA
HETATM   24  H   UNK N   1      38.608  13.207  12.406  0.00  0.00     0.210 HD
ENDBRANCH   2  23
BRANCH   1  25
HETATM   25  C   UNK N   1      35.366  14.781  12.290  0.00  0.00     0.226 C 
BRANCH  25  26
HETATM   26  O   UNK N   1      34.310  15.050  11.403  0.00  0.00    -0.257 OA
BRANCH  26  27
HETATM   27  S   UNK N   1      34.939  16.032  10.116  0.00  0.00     0.357 S 
HETATM   28  O   UNK N   1      36.206  16.775  10.574  0.00  0.00    -0.176 OA
HETATM   29  O   UNK N   1      35.403  15.172   8.927  0.00  0.00    -0.176 OA
BRANCH  27  30
HETATM   30  N   UNK N   1      33.797  17.221   9.484  0.00  0.00    -0.297 N 
HETATM   31  H   UNK N   1      32.832  17.354   9.789  0.00  0.00     0.174 HD
BRANCH  30  32
HETATM   32  C   UNK N   1      34.484  17.973   8.449  0.00  0.00     0.130 C 
HETATM   33  C   UNK N   1      33.810  17.725   7.116  0.00  0.00     0.027 C 
ENDBRANCH  30  32
ENDBRANCH  27  30
ENDBRANCH  26  27
ENDBRANCH  25  26
ENDBRANCH   1  25
TORSDOF 9
ENDMDL
MODEL 8
REMARK VINA RESULT:      -6.4      3.365      8.058
REMARK  9 active torsions:
REMARK  status: ('A' for Active; 'I' for Inactive)
REMARK    1  A    between atoms: N_20  and  C_2 
REMARK    2  A    between atoms: C_6  and  C_3 
REMARK    3  A    between atoms: O_26  and  C_3 
REMARK    4  A    between atoms: C_8  and  O_22 
REMARK    5  A    between atoms: C_9  and  O_23 
REMARK    6  A    between atoms: N_13  and  C_10 
REMARK    7  A    between atoms: C_12  and  N_21 
REMARK    8  A    between atoms: S_28  and  N_20 
REMARK    9  A    between atoms: S_28  and  O_26 
ROOT
HETATM    1  C   UNK N   1      34.803  14.849  11.621  0.00  0.00     0.180 C 
HETATM    2  C   UNK N   1      35.378  16.180  11.106  0.00  0.00     0.182 C 
HETATM    3  C   UNK N   1      34.689  16.306   9.750  0.00  0.00     0.198 C 
HETATM    4  C   UNK N   1      33.606  15.244   9.848  0.00  0.00     0.262 C 
HETATM    5  O   UNK N   1      34.263  14.178  10.503  0.00  0.00    -0.353 OA
ENDROOT
BRANCH   4   6
HETATM    6  N   UNK N   1      32.993  14.816   8.584  0.00  0.00    -0.297 N 
HETATM    7  C   UNK N   1      33.184  13.593   8.024  0.00  0.00     0.188 A 
HETATM    8  N   UNK N   1      32.435  13.433   6.899  0.00  0.00    -0.346 N 
HETATM    9  C   UNK N   1      31.761  14.590   6.783  0.00  0.00     0.122 A 
ATOM     10  HN  UNK N   1      32.394  12.621   6.283  1.00  0.00     0.167 HD
HETATM   11  C   UNK N   1      30.814  14.971   5.847  0.00  0.00     0.131 A 
HETATM   12  C   UNK N   1      32.101  15.425   7.786  0.00  0.00     0.142 A 
HETATM   13  N   UNK N   1      30.247  16.207   5.976  0.00  0.00    -0.337 N 
HETATM   14  C   UNK N   1      30.609  17.044   7.004  0.00  0.00     0.183 A 
ATOM     15  HN  UNK N   1      29.548  16.513   5.300  1.00  0.00     0.168 HD
HETATM   16  N   UNK N   1      31.541  16.651   7.926  0.00  0.00    -0.336 N 
ATOM     17  HN  UNK N   1      31.808  17.264   8.696  1.00  0.00     0.168 HD
BRANCH  11  18
HETATM   18  N   UNK N   1      30.423  14.106   4.805  0.00  0.00    -0.383 N 
HETATM   19  H   UNK N   1      30.625  13.143   4.855  0.00  0.00     0.157 HD
HETATM   20  H   UNK N   1      29.946  14.466   4.023  0.00  0.00     0.157 HD
ENDBRANCH  11  18
ENDBRANCH   4   6
BRANCH   3  21
HETATM   21  O   UNK N   1      34.192  17.589   9.510  0.00  0.00    -0.388 OA
HETATM   22  H   UNK N   1      33.770  18.311  10.002  0.00  0.00     0.210 HD
ENDBRANCH   3  21
BRANCH   2  23
HETATM   23  O   UNK N   1      36.765  16.122  10.919  0.00  0.00    -0.390 OA
HETATM   24  H   UNK N   1      37.665  15.990  11.254  0.00  0.00     0.210 HD
ENDBRANCH   2  23
BRANCH   1  25
HETATM   25  C   UNK N   1      35.746  13.984  12.458  0.00  0.00     0.226 C 
BRANCH  25  26
HETATM   26  O   UNK N   1      36.443  14.767  13.393  0.00  0.00    -0.257 OA
BRANCH  26  27
HETATM   27  S   UNK N   1      36.620  13.827  14.843  0.00  0.00     0.357 S 
HETATM   28  O   UNK N   1      37.388  12.526  14.551  0.00  0.00    -0.176 OA
HETATM   29  O   UNK N   1      37.482  14.559  15.887  0.00  0.00    -0.176 OA
BRANCH  27  30
HETATM   30  N   UNK N   1      35.095  13.407  15.628  0.00  0.00    -0.297 N 
HETATM   31  H   UNK N   1      34.169  13.746  15.369  0.00  0.00     0.174 HD
BRANCH  30  32
HETATM   32  C   UNK N   1      35.405  12.492  16.712  0.00  0.00     0.130 C 
HETATM   33  C   UNK N   1      35.098  13.157  18.036  0.00  0.00     0.027 C 
ENDBRANCH  30  32
ENDBRANCH  27  30
ENDBRANCH  26  27
ENDBRANCH  25  26
ENDBRANCH   1  25
TORSDOF 9
ENDMDL
MODEL 9
REMARK VINA RESULT:      -6.3      5.541     10.366
REMARK  9 active torsions:
REMARK  status: ('A' for Active; 'I' for Inactive)
REMARK    1  A    between atoms: N_20  and  C_2 
REMARK    2  A    between atoms: C_6  and  C_3 
REMARK    3  A    between atoms: O_26  and  C_3 
REMARK    4  A    between atoms: C_8  and  O_22 
REMARK    5  A    between atoms: C_9  and  O_23 
REMARK    6  A    between atoms: N_13  and  C_10 
REMARK    7  A    between atoms: C_12  and  N_21 
REMARK    8  A    between atoms: S_28  and  N_20 
REMARK    9  A    between atoms: S_28  and  O_26 
ROOT
HETATM    1  C   UNK N   1      30.502  17.034   7.833  0.00  0.00     0.180 C 
HETATM    2  C   UNK N   1      29.769  17.388   9.139  0.00  0.00     0.182 C 
HETATM    3  C   UNK N   1      28.337  17.572   8.646  0.00  0.00     0.198 C 
HETATM    4  C   UNK N   1      28.407  16.979   7.248  0.00  0.00     0.262 C 
HETATM    5  O   UNK N   1      29.659  17.429   6.773  0.00  0.00    -0.353 OA
ENDROOT
BRANCH   4   6
HETATM    6  N   UNK N   1      27.315  17.330   6.332  0.00  0.00    -0.297 N 
HETATM    7  C   UNK N   1      26.272  16.507   6.044  0.00  0.00     0.188 A 
HETATM    8  N   UNK N   1      25.364  17.113   5.231  0.00  0.00    -0.346 N 
HETATM    9  C   UNK N   1      25.866  18.343   5.032  0.00  0.00     0.122 A 
ATOM     10  HN  UNK N   1      24.499  16.723   4.857  1.00  0.00     0.167 HD
HETATM   11  C   UNK N   1      25.340  19.409   4.321  0.00  0.00     0.131 A 
HETATM   12  C   UNK N   1      27.041  18.473   5.682  0.00  0.00     0.142 A 
HETATM   13  N   UNK N   1      26.045  20.579   4.304  0.00  0.00    -0.337 N 
HETATM   14  C   UNK N   1      27.241  20.691   4.972  0.00  0.00     0.183 A 
ATOM     15  HN  UNK N   1      25.680  21.379   3.788  1.00  0.00     0.168 HD
HETATM   16  N   UNK N   1      27.746  19.631   5.675  0.00  0.00    -0.336 N 
ATOM     17  HN  UNK N   1      28.629  19.709   6.180  1.00  0.00     0.168 HD
BRANCH  11  18
HETATM   18  N   UNK N   1      24.102  19.306   3.655  0.00  0.00    -0.383 N 
HETATM   19  H   UNK N   1      24.016  19.587   2.716  0.00  0.00     0.157 HD
HETATM   20  H   UNK N   1      23.317  18.950   4.134  0.00  0.00     0.157 HD
ENDBRANCH  11  18
ENDBRANCH   4   6
BRANCH   3  21
HETATM   21  O   UNK N   1      27.393  16.951   9.468  0.00  0.00    -0.388 OA
HETATM   22  H   UNK N   1      26.826  16.164   9.461  0.00  0.00     0.210 HD
ENDBRANCH   3  21
BRANCH   2  23
HETATM   23  O   UNK N   1      30.227  18.588   9.696  0.00  0.00    -0.390 OA
HETATM   24  H   UNK N   1      30.425  19.535   9.634  0.00  0.00     0.210 HD
ENDBRANCH   2  23
BRANCH   1  25
HETATM   25  C   UNK N   1      31.936  17.548   7.702  0.00  0.00     0.226 C 
BRANCH  25  26
HETATM   26  O   UNK N   1      32.674  17.270   8.865  0.00  0.00    -0.257 OA
BRANCH  26  27
HETATM   27  S   UNK N   1      34.356  17.258   8.433  0.00  0.00     0.357 S 
HETATM   28  O   UNK N   1      34.611  18.187   7.234  0.00  0.00    -0.176 OA
HETATM   29  O   UNK N   1      35.231  17.831   9.561  0.00  0.00    -0.176 OA
BRANCH  27  30
HETATM   30  N   UNK N   1      34.994  15.658   8.041  0.00  0.00    -0.297 N 
HETATM   31  H   UNK N   1      35.367  14.978   8.703  0.00  0.00     0.174 HD
BRANCH  30  32
HETATM   32  C   UNK N   1      34.891  15.493   6.602  0.00  0.00     0.130 C 
HETATM   33  C   UNK N   1      33.712  14.600   6.282  0.00  0.00     0.027 C 
ENDBRANCH  30  32
ENDBRANCH  27  30
ENDBRANCH  26  27
ENDBRANCH  25  26
ENDBRANCH   1  25
TORSDOF 9
ENDMDL
