MODEL 1
REMARK VINA RESULT:      -4.6      0.000      0.000
REMARK  0 active torsions:
REMARK  status: ('A' for Active; 'I' for Inactive)
ROOT
HETATM    1  C   UNK N   1      24.815  12.698  10.475  0.00  0.00     0.182 A 
HETATM    2  C   UNK N   1      20.596  12.136  11.629  0.00  0.00     0.183 A 
HETATM    3  C   UNK N   1      22.732  13.089  10.238  0.00  0.00     0.112 A 
HETATM    4  C   UNK N   1      21.458  13.508   9.877  0.00  0.00     0.111 A 
HETATM    5  C   UNK N   1      22.897  12.227  11.259  0.00  0.00     0.137 A 
HETATM    6 Br   UNK N   1      21.153  14.727   8.439  0.00  0.00    -0.029 Br
HETATM    7  N   UNK N   1      23.928  13.406   9.721  0.00  0.00    -0.347 N 
ATOM      8  HN  UNK N   1      24.127  14.034   8.941  1.00  0.00     0.167 HD
HETATM    9  N   UNK N   1      20.403  13.015  10.591  0.00  0.00    -0.344 N 
ATOM     10  HN  UNK N   1      19.455  13.304  10.348  1.00  0.00     0.167 HD
HETATM   11  N   UNK N   1      24.196  11.960  11.436  0.00  0.00    -0.337 N 
ATOM     12  HN  UNK N   1      24.623  11.345  12.129  1.00  0.00     0.168 HD
HETATM   13  N   UNK N   1      21.858  11.734  11.972  0.00  0.00    -0.337 N 
HETATM   14  H   UNK N   1      22.006  11.105  12.715  0.00  0.00     0.168 HD
ENDROOT
TORSDOF 0
ENDMDL
MODEL 2
REMARK VINA RESULT:      -4.6     12.921     13.996
REMARK  0 active torsions:
REMARK  status: ('A' for Active; 'I' for Inactive)
ROOT
HETATM    1  C   UNK N   1      35.258  14.332  11.398  0.00  0.00     0.182 A 
HETATM    2  C   UNK N   1      36.815  14.042  15.515  0.00  0.00     0.183 A 
HETATM    3  C   UNK N   1      35.333  13.412  13.321  0.00  0.00     0.112 A 
HETATM    4  C   UNK N   1      35.193  12.640  14.467  0.00  0.00     0.111 A 
HETATM    5  C   UNK N   1      36.189  14.451  13.305  0.00  0.00     0.137 A 
HETATM    6 Br   UNK N   1      33.998  11.154  14.558  0.00  0.00    -0.029 Br
HETATM    7  N   UNK N   1      34.728  13.311  12.129  0.00  0.00    -0.347 N 
ATOM      8  HN  UNK N   1      34.031  12.626  11.835  1.00  0.00     0.167 HD
HETATM    9  N   UNK N   1      35.948  12.977  15.554  0.00  0.00    -0.344 N 
ATOM     10  HN  UNK N   1      35.867  12.429  16.411  1.00  0.00     0.167 HD
HETATM   11  N   UNK N   1      36.167  15.053  12.110  0.00  0.00    -0.337 N 
ATOM     12  HN  UNK N   1      36.706  15.863  11.803  1.00  0.00     0.168 HD
HETATM   13  N   UNK N   1      36.941  14.792  14.377  0.00  0.00    -0.337 N 
HETATM   14  H   UNK N   1      37.560  15.557  14.339  0.00  0.00     0.168 HD
ENDROOT
TORSDOF 0
ENDMDL
MODEL 3
REMARK VINA RESULT:      -4.5     12.823     14.041
REMARK  0 active torsions:
REMARK  status: ('A' for Active; 'I' for Inactive)
ROOT
HETATM    1  C   UNK N   1      36.938  14.358  15.746  0.00  0.00     0.182 A 
HETATM    2  C   UNK N   1      35.313  13.847  11.677  0.00  0.00     0.183 A 
HETATM    3  C   UNK N   1      35.730  13.334  14.318  0.00  0.00     0.112 A 
HETATM    4  C   UNK N   1      34.882  12.500  13.600  0.00  0.00     0.111 A 
HETATM    5  C   UNK N   1      36.330  14.374  13.710  0.00  0.00     0.137 A 
HETATM    6 Br   UNK N   1      33.999  11.007  14.400  0.00  0.00    -0.029 Br
HETATM    7  N   UNK N   1      36.095  13.297  15.607  0.00  0.00    -0.347 N 
ATOM      8  HN  UNK N   1      35.807  12.627  16.322  1.00  0.00     0.167 HD
HETATM    9  N   UNK N   1      34.690  12.779  12.277  0.00  0.00    -0.344 N 
ATOM     10  HN  UNK N   1      34.072  12.184  11.723  1.00  0.00     0.167 HD
HETATM   11  N   UNK N   1      37.098  15.041  14.579  0.00  0.00    -0.337 N 
ATOM     12  HN  UNK N   1      37.670  15.868  14.408  1.00  0.00     0.168 HD
HETATM   13  N   UNK N   1      36.145  14.658  12.400  0.00  0.00    -0.337 N 
HETATM   14  H   UNK N   1      36.596  15.426  11.979  0.00  0.00     0.168 HD
ENDROOT
TORSDOF 0
ENDMDL
MODEL 4
REMARK VINA RESULT:      -4.4      9.569     10.732
REMARK  0 active torsions:
REMARK  status: ('A' for Active; 'I' for Inactive)
ROOT
HETATM    1  C   UNK N   1      20.720  21.193   1.280  0.00  0.00     0.182 A 
HETATM    2  C   UNK N   1      20.862  18.025   4.346  0.00  0.00     0.183 A 
HETATM    3  C   UNK N   1      20.532  19.159   1.894  0.00  0.00     0.112 A 
HETATM    4  C   UNK N   1      20.348  17.788   2.027  0.00  0.00     0.111 A 
HETATM    5  C   UNK N   1      20.868  19.904   2.964  0.00  0.00     0.137 A 
HETATM    6 Br   UNK N   1      19.873  16.673   0.552  0.00  0.00    -0.029 Br
HETATM    7  N   UNK N   1      20.431  19.945   0.813  0.00  0.00    -0.347 N 
ATOM      8  HN  UNK N   1      20.193  19.673  -0.141  1.00  0.00     0.167 HD
HETATM    9  N   UNK N   1      20.520  17.244   3.268  0.00  0.00    -0.344 N 
ATOM     10  HN  UNK N   1      20.392  16.240   3.397  1.00  0.00     0.167 HD
HETATM   11  N   UNK N   1      20.994  21.189   2.614  0.00  0.00    -0.337 N 
ATOM     12  HN  UNK N   1      21.238  21.982   3.207  1.00  0.00     0.168 HD
HETATM   13  N   UNK N   1      21.039  19.373   4.196  0.00  0.00    -0.337 N 
HETATM   14  H   UNK N   1      21.285  19.941   4.963  0.00  0.00     0.168 HD
ENDROOT
TORSDOF 0
ENDMDL
MODEL 5
REMARK VINA RESULT:      -4.3     23.758     24.937
REMARK  0 active torsions:
REMARK  status: ('A' for Active; 'I' for Inactive)
ROOT
HETATM    1  C   UNK N   1      41.462  23.216   1.584  0.00  0.00     0.182 A 
HETATM    2  C   UNK N   1      44.749  21.584   4.031  0.00  0.00     0.183 A 
HETATM    3  C   UNK N   1      43.457  23.277   2.336  0.00  0.00     0.112 A 
HETATM    4  C   UNK N   1      44.777  23.547   2.674  0.00  0.00     0.111 A 
HETATM    5  C   UNK N   1      42.836  22.195   2.843  0.00  0.00     0.137 A 
HETATM    6 Br   UNK N   1      45.716  25.063   1.992  0.00  0.00    -0.029 Br
HETATM    7  N   UNK N   1      42.613  23.944   1.536  0.00  0.00    -0.347 N 
ATOM      8  HN  UNK N   1      42.793  24.800   1.010  1.00  0.00     0.167 HD
HETATM    9  N   UNK N   1      45.402  22.682   3.526  0.00  0.00    -0.344 N 
ATOM     10  HN  UNK N   1      46.372  22.854   3.793  1.00  0.00     0.167 HD
HETATM   11  N   UNK N   1      41.579  22.125   2.390  0.00  0.00    -0.337 N 
ATOM     12  HN  UNK N   1      40.873  21.420   2.600  1.00  0.00     0.168 HD
HETATM   13  N   UNK N   1      43.448  21.333   3.687  0.00  0.00    -0.337 N 
HETATM   14  H   UNK N   1      42.971  20.548   4.044  0.00  0.00     0.168 HD
ENDROOT
TORSDOF 0
ENDMDL
MODEL 6
REMARK VINA RESULT:      -4.3      0.743      2.903
REMARK  0 active torsions:
REMARK  status: ('A' for Active; 'I' for Inactive)
ROOT
HETATM    1  C   UNK N   1      20.542  12.251  11.325  0.00  0.00     0.182 A 
HETATM    2  C   UNK N   1      24.870  12.542  10.527  0.00  0.00     0.183 A 
HETATM    3  C   UNK N   1      22.197  12.856  10.124  0.00  0.00     0.112 A 
HETATM    4  C   UNK N   1      23.080  13.351   9.172  0.00  0.00     0.111 A 
HETATM    5  C   UNK N   1      22.665  12.234  11.223  0.00  0.00     0.137 A 
HETATM    6 Br   UNK N   1      22.484  14.242   7.592  0.00  0.00    -0.029 Br
HETATM    7  N   UNK N   1      20.857  12.882  10.159  0.00  0.00    -0.347 N 
ATOM      8  HN  UNK N   1      20.219  13.284   9.471  1.00  0.00     0.167 HD
HETATM    9  N   UNK N   1      24.416  13.180   9.398  0.00  0.00    -0.344 N 
ATOM     10  HN  UNK N   1      25.089  13.533   8.717  1.00  0.00     0.167 HD
HETATM   11  N   UNK N   1      21.651  11.840  12.001  0.00  0.00    -0.337 N 
ATOM     12  HN  UNK N   1      21.696  11.347  12.893  1.00  0.00     0.168 HD
HETATM   13  N   UNK N   1      23.987  12.061  11.455  0.00  0.00    -0.337 N 
HETATM   14  H   UNK N   1      24.303  11.602  12.267  0.00  0.00     0.168 HD
ENDROOT
TORSDOF 0
ENDMDL
MODEL 7
REMARK VINA RESULT:      -4.2      9.181     10.224
REMARK  0 active torsions:
REMARK  status: ('A' for Active; 'I' for Inactive)
ROOT
HETATM    1  C   UNK N   1      26.440  21.140   6.114  0.00  0.00     0.182 A 
HETATM    2  C   UNK N   1      29.293  17.965   5.002  0.00  0.00     0.183 A 
HETATM    3  C   UNK N   1      27.680  19.473   6.594  0.00  0.00     0.112 A 
HETATM    4  C   UNK N   1      28.393  18.426   7.165  0.00  0.00     0.111 A 
HETATM    5  C   UNK N   1      27.791  19.729   5.277  0.00  0.00     0.137 A 
HETATM    6 Br   UNK N   1      28.282  18.008   9.024  0.00  0.00    -0.029 Br
HETATM    7  N   UNK N   1      26.832  20.349   7.152  0.00  0.00    -0.347 N 
ATOM      8  HN  UNK N   1      26.546  20.409   8.130  1.00  0.00     0.167 HD
HETATM    9  N   UNK N   1      29.195  17.685   6.344  0.00  0.00    -0.344 N 
ATOM     10  HN  UNK N   1      29.732  16.909   6.734  1.00  0.00     0.167 HD
HETATM   11  N   UNK N   1      27.024  20.773   4.941  0.00  0.00    -0.337 N 
ATOM     12  HN  UNK N   1      26.904  21.195   4.020  1.00  0.00     0.168 HD
HETATM   13  N   UNK N   1      28.583  19.001   4.457  0.00  0.00    -0.337 N 
HETATM   14  H   UNK N   1      28.646  19.209   3.497  0.00  0.00     0.168 HD
ENDROOT
TORSDOF 0
ENDMDL
MODEL 8
REMARK VINA RESULT:      -4.2      8.333      9.352
REMARK  0 active torsions:
REMARK  status: ('A' for Active; 'I' for Inactive)
ROOT
HETATM    1  C   UNK N   1      28.304  17.956   9.243  0.00  0.00     0.182 A 
HETATM    2  C   UNK N   1      28.917  18.249   4.885  0.00  0.00     0.183 A 
HETATM    3  C   UNK N   1      28.016  18.921   7.364  0.00  0.00     0.112 A 
HETATM    4  C   UNK N   1      27.680  19.733   6.287  0.00  0.00     0.111 A 
HETATM    5  C   UNK N   1      28.773  17.825   7.175  0.00  0.00     0.137 A 
HETATM    6 Br   UNK N   1      26.610  21.302   6.484  0.00  0.00    -0.029 Br
HETATM    7  N   UNK N   1      27.702  19.032   8.662  0.00  0.00    -0.347 N 
ATOM      8  HN  UNK N   1      27.142  19.756   9.113  1.00  0.00     0.167 HD
HETATM    9  N   UNK N   1      28.145  19.373   5.054  0.00  0.00    -0.344 N 
ATOM     10  HN  UNK N   1      27.915  19.949   4.244  1.00  0.00     0.167 HD
HETATM   11  N   UNK N   1      28.974  17.193   8.337  0.00  0.00    -0.337 N 
ATOM     12  HN  UNK N   1      29.506  16.339   8.505  1.00  0.00     0.168 HD
HETATM   13  N   UNK N   1      29.238  17.461   5.957  0.00  0.00    -0.337 N 
HETATM   14  H   UNK N   1      29.791  16.654   5.846  0.00  0.00     0.168 HD
ENDROOT
TORSDOF 0
ENDMDL
MODEL 9
REMARK VINA RESULT:      -4.2      9.360     10.601
REMARK  0 active torsions:
REMARK  status: ('A' for Active; 'I' for Inactive)
ROOT
HETATM    1  C   UNK N   1      20.751  20.466   2.679  0.00  0.00     0.182 A 
HETATM    2  C   UNK N   1      19.805  16.660   0.660  0.00  0.00     0.183 A 
HETATM    3  C   UNK N   1      20.274  18.388   2.710  0.00  0.00     0.112 A 
HETATM    4  C   UNK N   1      19.979  17.063   3.006  0.00  0.00     0.111 A 
HETATM    5  C   UNK N   1      20.324  18.801   1.430  0.00  0.00     0.137 A 
HETATM    6 Br   UNK N   1      19.891  16.411   4.798  0.00  0.00    -0.029 Br
HETATM    7  N   UNK N   1      20.539  19.418   3.525  0.00  0.00    -0.347 N 
ATOM      8  HN  UNK N   1      20.575  19.419   4.545  1.00  0.00     0.167 HD
HETATM    9  N   UNK N   1      19.747  16.216   1.959  0.00  0.00    -0.344 N 
ATOM     10  HN  UNK N   1      19.528  15.237   2.144  1.00  0.00     0.167 HD
HETATM   11  N   UNK N   1      20.623  20.103   1.373  0.00  0.00    -0.337 N 
ATOM     12  HN  UNK N   1      20.729  20.689   0.545  1.00  0.00     0.168 HD
HETATM   13  N   UNK N   1      20.097  17.969   0.387  0.00  0.00    -0.337 N 
HETATM   14  H   UNK N   1      20.140  18.297  -0.541  0.00  0.00     0.168 HD
ENDROOT
TORSDOF 0
ENDMDL
