MODEL 1
REMARK VINA RESULT:      -5.8      0.000      0.000
REMARK  14 active torsions:
REMARK  status: ('A' for Active; 'I' for Inactive)
REMARK    1  A    between atoms: P_1  and  O_2 
REMARK    2  A    between atoms: P_1  and  O_3 
REMARK    3  A    between atoms: P_1  and  O_4 
REMARK    4  A    between atoms: O_2  and  C_16 
REMARK    5  A    between atoms: C_12  and  O_5 
REMARK    6  A    between atoms: C_13  and  O_6 
REMARK    7  A    between atoms: C_14  and  O_7 
REMARK    8  A    between atoms: C_15  and  O_8 
REMARK    9  A    between atoms: O_9  and  C_17 
REMARK   10  A    between atoms: C_12  and  C_13 
REMARK   11  A    between atoms: C_12  and  C_14 
REMARK   12  A    between atoms: C_13  and  C_15 
REMARK   13  A    between atoms: C_14  and  C_16 
REMARK   14  A    between atoms: C_15  and  C_17 
ROOT
HETATM    1  C   UNK N   1      35.326  14.414  11.709  0.00  0.00     0.180 C 
ENDROOT
BRANCH   1   2
HETATM    2  O   UNK N   1      33.935  14.277  11.730  0.00  0.00    -0.390 OA
HETATM    3  H   UNK N   1      33.311  14.988  11.515  0.00  0.00     0.210 HD
ENDBRANCH   1   2
BRANCH   1   4
HETATM    4  C   UNK N   1      35.918  14.006  13.077  0.00  0.00     0.188 C 
BRANCH   4   5
HETATM    5  O   UNK N   1      36.802  14.997  13.513  0.00  0.00    -0.390 OA
HETATM    6  H   UNK N   1      36.570  15.934  13.608  0.00  0.00     0.210 HD
ENDBRANCH   4   5
BRANCH   4   7
HETATM    7  C   UNK N   1      36.677  12.665  13.033  0.00  0.00     0.246 C 
BRANCH   7   8
HETATM    8  O   UNK N   1      37.582  12.578  14.093  0.00  0.00    -0.382 OA
HETATM    9  H   UNK N   1      38.296  13.209  14.270  0.00  0.00     0.210 HD
ENDBRANCH   7   8
BRANCH   7  10
HETATM   10  C   UNK N   1      37.427  12.443  11.741  0.00  0.00     0.172 C 
HETATM   11  O   UNK N   1      37.206  11.463  11.042  0.00  0.00    -0.648 OA
BRANCH  10  12
HETATM   12  O   UNK N   1      38.358  13.332  11.352  0.00  0.00    -0.774 OA
HETATM   13  H   UNK N   1      39.021  13.673  11.919  0.00  0.00     0.167 HD
ENDBRANCH  10  12
ENDBRANCH   7  10
ENDBRANCH   4   7
ENDBRANCH   1   4
BRANCH   1  14
HETATM   14  C   UNK N   1      35.686  15.867  11.336  0.00  0.00     0.173 C 
BRANCH  14  15
HETATM   15  O   UNK N   1      37.002  15.939  10.878  0.00  0.00    -0.391 OA
HETATM   16  H   UNK N   1      37.562  15.167  10.703  0.00  0.00     0.210 HD
ENDBRANCH  14  15
BRANCH  14  17
HETATM   17  C   UNK N   1      34.804  16.412  10.226  0.00  0.00     0.214 C 
BRANCH  17  18
HETATM   18  O   UNK N   1      35.324  17.586   9.668  0.00  0.00    -0.294 OA
BRANCH  18  19
HETATM   19  P   UNK N   1      34.172  18.031   8.441  0.00  0.00     0.390 P 
HETATM   20  O   UNK N   1      35.214  19.174   8.303  0.00  0.00    -0.632 OA
BRANCH  19  21
HETATM   21  O   UNK N   1      34.934  16.536   7.979  0.00  0.00    -0.307 OA
HETATM   22  H   UNK N   1      35.753  16.140   8.314  0.00  0.00     0.222 HD
ENDBRANCH  19  21
BRANCH  19  23
HETATM   23  O   UNK N   1      34.548  17.974   6.748  0.00  0.00    -0.307 OA
HETATM   24  H   UNK N   1      35.437  17.752   6.432  0.00  0.00     0.222 HD
ENDBRANCH  19  23
ENDBRANCH  18  19
ENDBRANCH  17  18
ENDBRANCH  14  17
ENDBRANCH   1  14
TORSDOF 14
ENDMDL
MODEL 2
REMARK VINA RESULT:      -5.7      2.337      6.181
REMARK  14 active torsions:
REMARK  status: ('A' for Active; 'I' for Inactive)
REMARK    1  A    between atoms: P_1  and  O_2 
REMARK    2  A    between atoms: P_1  and  O_3 
REMARK    3  A    between atoms: P_1  and  O_4 
REMARK    4  A    between atoms: O_2  and  C_16 
REMARK    5  A    between atoms: C_12  and  O_5 
REMARK    6  A    between atoms: C_13  and  O_6 
REMARK    7  A    between atoms: C_14  and  O_7 
REMARK    8  A    between atoms: C_15  and  O_8 
REMARK    9  A    between atoms: O_9  and  C_17 
REMARK   10  A    between atoms: C_12  and  C_13 
REMARK   11  A    between atoms: C_12  and  C_14 
REMARK   12  A    between atoms: C_13  and  C_15 
REMARK   13  A    between atoms: C_14  and  C_16 
REMARK   14  A    between atoms: C_15  and  C_17 
ROOT
HETATM    1  C   UNK N   1      34.523  15.777  10.579  0.00  0.00     0.180 C 
ENDROOT
BRANCH   1   2
HETATM    2  O   UNK N   1      33.623  14.952  11.259  0.00  0.00    -0.390 OA
HETATM    3  H   UNK N   1      33.219  14.154  10.883  0.00  0.00     0.210 HD
ENDBRANCH   1   2
BRANCH   1   4
HETATM    4  C   UNK N   1      34.044  15.996   9.126  0.00  0.00     0.188 C 
BRANCH   4   5
HETATM    5  O   UNK N   1      35.098  15.730   8.246  0.00  0.00    -0.390 OA
HETATM    6  H   UNK N   1      36.026  15.951   8.421  0.00  0.00     0.210 HD
ENDBRANCH   4   5
BRANCH   4   7
HETATM    7  C   UNK N   1      33.543  17.429   8.861  0.00  0.00     0.246 C 
BRANCH   7   8
HETATM    8  O   UNK N   1      32.271  17.406   8.285  0.00  0.00    -0.382 OA
HETATM    9  H   UNK N   1      31.957  18.018   7.602  0.00  0.00     0.210 HD
ENDBRANCH   7   8
BRANCH   7  10
HETATM   10  C   UNK N   1      34.461  18.230   7.968  0.00  0.00     0.172 C 
HETATM   11  O   UNK N   1      34.483  18.047   6.758  0.00  0.00    -0.648 OA
BRANCH  10  12
HETATM   12  O   UNK N   1      35.272  19.156   8.508  0.00  0.00    -0.774 OA
HETATM   13  H   UNK N   1      34.990  19.793   9.135  0.00  0.00     0.167 HD
ENDBRANCH  10  12
ENDBRANCH   7  10
ENDBRANCH   4   7
ENDBRANCH   1   4
BRANCH   1  14
HETATM   14  C   UNK N   1      35.930  15.148  10.633  0.00  0.00     0.173 C 
BRANCH  14  15
HETATM   15  O   UNK N   1      36.898  16.134  10.821  0.00  0.00    -0.391 OA
HETATM   16  H   UNK N   1      37.705  16.214  10.288  0.00  0.00     0.210 HD
ENDBRANCH  14  15
BRANCH  14  17
HETATM   17  C   UNK N   1      36.077  14.164  11.782  0.00  0.00     0.214 C 
BRANCH  17  18
HETATM   18  O   UNK N   1      36.172  14.811  13.020  0.00  0.00    -0.294 OA
BRANCH  18  19
HETATM   19  P   UNK N   1      36.022  13.532  14.191  0.00  0.00     0.390 P 
HETATM   20  O   UNK N   1      34.674  13.405  13.433  0.00  0.00    -0.632 OA
BRANCH  19  21
HETATM   21  O   UNK N   1      37.310  13.135  13.090  0.00  0.00    -0.307 OA
HETATM   22  H   UNK N   1      37.809  12.308  13.009  0.00  0.00     0.222 HD
ENDBRANCH  19  21
BRANCH  19  23
HETATM   23  O   UNK N   1      36.018  11.856  13.743  0.00  0.00    -0.307 OA
HETATM   24  H   UNK N   1      35.449  11.212  14.189  0.00  0.00     0.222 HD
ENDBRANCH  19  23
ENDBRANCH  18  19
ENDBRANCH  17  18
ENDBRANCH  14  17
ENDBRANCH   1  14
TORSDOF 14
ENDMDL
MODEL 3
REMARK VINA RESULT:      -5.7      1.238      2.167
REMARK  14 active torsions:
REMARK  status: ('A' for Active; 'I' for Inactive)
REMARK    1  A    between atoms: P_1  and  O_2 
REMARK    2  A    between atoms: P_1  and  O_3 
REMARK    3  A    between atoms: P_1  and  O_4 
REMARK    4  A    between atoms: O_2  and  C_16 
REMARK    5  A    between atoms: C_12  and  O_5 
REMARK    6  A    between atoms: C_13  and  O_6 
REMARK    7  A    between atoms: C_14  and  O_7 
REMARK    8  A    between atoms: C_15  and  O_8 
REMARK    9  A    between atoms: O_9  and  C_17 
REMARK   10  A    between atoms: C_12  and  C_13 
REMARK   11  A    between atoms: C_12  and  C_14 
REMARK   12  A    between atoms: C_13  and  C_15 
REMARK   13  A    between atoms: C_14  and  C_16 
REMARK   14  A    between atoms: C_15  and  C_17 
ROOT
HETATM    1  C   UNK N   1      35.454  14.320  11.497  0.00  0.00     0.180 C 
ENDROOT
BRANCH   1   2
HETATM    2  O   UNK N   1      34.139  14.107  11.922  0.00  0.00    -0.390 OA
HETATM    3  H   UNK N   1      33.836  14.214  12.837  0.00  0.00     0.210 HD
ENDBRANCH   1   2
BRANCH   1   4
HETATM    4  C   UNK N   1      36.444  13.800  12.564  0.00  0.00     0.188 C 
BRANCH   4   5
HETATM    5  O   UNK N   1      36.441  12.403  12.556  0.00  0.00    -0.390 OA
HETATM    6  H   UNK N   1      35.940  11.853  13.179  0.00  0.00     0.210 HD
ENDBRANCH   4   5
BRANCH   4   7
HETATM    7  C   UNK N   1      36.105  14.277  13.990  0.00  0.00     0.246 C 
BRANCH   7   8
HETATM    8  O   UNK N   1      37.233  14.825  14.605  0.00  0.00    -0.382 OA
HETATM    9  H   UNK N   1      37.882  14.326  15.125  0.00  0.00     0.210 HD
ENDBRANCH   7   8
BRANCH   7  10
HETATM   10  C   UNK N   1      35.560  13.181  14.875  0.00  0.00     0.172 C 
HETATM   11  O   UNK N   1      34.380  12.858  14.825  0.00  0.00    -0.648 OA
BRANCH  10  12
HETATM   12  O   UNK N   1      36.379  12.552  15.735  0.00  0.00    -0.774 OA
HETATM   13  H   UNK N   1      36.898  11.806  15.508  0.00  0.00     0.167 HD
ENDBRANCH  10  12
ENDBRANCH   7  10
ENDBRANCH   4   7
ENDBRANCH   1   4
BRANCH   1  14
HETATM   14  C   UNK N   1      35.658  15.821  11.205  0.00  0.00     0.173 C 
BRANCH  14  15
HETATM   15  O   UNK N   1      36.997  16.084  10.919  0.00  0.00    -0.391 OA
HETATM   16  H   UNK N   1      37.325  16.357  10.048  0.00  0.00     0.210 HD
ENDBRANCH  14  15
BRANCH  14  17
HETATM   17  C   UNK N   1      34.852  16.288  10.005  0.00  0.00     0.214 C 
BRANCH  17  18
HETATM   18  O   UNK N   1      35.191  17.590   9.618  0.00  0.00    -0.294 OA
BRANCH  18  19
HETATM   19  P   UNK N   1      34.059  17.975   8.352  0.00  0.00     0.390 P 
HETATM   20  O   UNK N   1      35.040  19.174   8.253  0.00  0.00    -0.632 OA
BRANCH  19  21
HETATM   21  O   UNK N   1      34.918  16.526   7.914  0.00  0.00    -0.307 OA
HETATM   22  H   UNK N   1      35.015  15.701   8.413  0.00  0.00     0.222 HD
ENDBRANCH  19  21
BRANCH  19  23
HETATM   23  O   UNK N   1      34.496  17.945   6.673  0.00  0.00    -0.307 OA
HETATM   24  H   UNK N   1      35.380  18.207   6.373  0.00  0.00     0.222 HD
ENDBRANCH  19  23
ENDBRANCH  18  19
ENDBRANCH  17  18
ENDBRANCH  14  17
ENDBRANCH   1  14
TORSDOF 14
ENDMDL
MODEL 4
REMARK VINA RESULT:      -5.3      1.688      3.044
REMARK  14 active torsions:
REMARK  status: ('A' for Active; 'I' for Inactive)
REMARK    1  A    between atoms: P_1  and  O_2 
REMARK    2  A    between atoms: P_1  and  O_3 
REMARK    3  A    between atoms: P_1  and  O_4 
REMARK    4  A    between atoms: O_2  and  C_16 
REMARK    5  A    between atoms: C_12  and  O_5 
REMARK    6  A    between atoms: C_13  and  O_6 
REMARK    7  A    between atoms: C_14  and  O_7 
REMARK    8  A    between atoms: C_15  and  O_8 
REMARK    9  A    between atoms: O_9  and  C_17 
REMARK   10  A    between atoms: C_12  and  C_13 
REMARK   11  A    between atoms: C_12  and  C_14 
REMARK   12  A    between atoms: C_13  and  C_15 
REMARK   13  A    between atoms: C_14  and  C_16 
REMARK   14  A    between atoms: C_15  and  C_17 
ROOT
HETATM    1  C   UNK N   1      35.083  15.821   9.400  0.00  0.00     0.180 C 
ENDROOT
BRANCH   1   2
HETATM    2  O   UNK N   1      34.069  14.887   9.166  0.00  0.00    -0.390 OA
HETATM    3  H   UNK N   1      33.823  14.555   8.289  0.00  0.00     0.210 HD
ENDBRANCH   1   2
BRANCH   1   4
HETATM    4  C   UNK N   1      35.591  15.696  10.854  0.00  0.00     0.188 C 
BRANCH   4   5
HETATM    5  O   UNK N   1      36.949  16.024  10.900  0.00  0.00    -0.390 OA
HETATM    6  H   UNK N   1      37.522  15.875  11.668  0.00  0.00     0.210 HD
ENDBRANCH   4   5
BRANCH   4   7
HETATM    7  C   UNK N   1      35.415  14.281  11.439  0.00  0.00     0.246 C 
BRANCH   7   8
HETATM    8  O   UNK N   1      34.149  14.141  12.012  0.00  0.00    -0.382 OA
HETATM    9  H   UNK N   1      33.633  13.320  12.030  0.00  0.00     0.210 HD
ENDBRANCH   7   8
BRANCH   7  10
HETATM   10  C   UNK N   1      36.454  13.928  12.477  0.00  0.00     0.172 C 
HETATM   11  O   UNK N   1      36.250  14.124  13.668  0.00  0.00    -0.648 OA
BRANCH  10  12
HETATM   12  O   UNK N   1      37.626  13.393  12.090  0.00  0.00    -0.774 OA
HETATM   13  H   UNK N   1      37.855  12.494  12.222  0.00  0.00     0.167 HD
ENDBRANCH  10  12
ENDBRANCH   7  10
ENDBRANCH   4   7
ENDBRANCH   1   4
BRANCH   1  14
HETATM   14  C   UNK N   1      34.551  17.236   9.095  0.00  0.00     0.173 C 
BRANCH  14  15
HETATM   15  O   UNK N   1      35.459  18.202   9.529  0.00  0.00    -0.391 OA
HETATM   16  H   UNK N   1      35.237  19.136   9.665  0.00  0.00     0.210 HD
ENDBRANCH  14  15
BRANCH  14  17
HETATM   17  C   UNK N   1      34.343  17.465   7.607  0.00  0.00     0.214 C 
BRANCH  17  18
HETATM   18  O   UNK N   1      34.838  16.405   6.837  0.00  0.00    -0.294 OA
BRANCH  18  19
HETATM   19  P   UNK N   1      33.771  16.331   5.464  0.00  0.00     0.390 P 
HETATM   20  O   UNK N   1      32.878  15.711   6.572  0.00  0.00    -0.632 OA
BRANCH  19  21
HETATM   21  O   UNK N   1      34.057  18.001   5.861  0.00  0.00    -0.307 OA
HETATM   22  H   UNK N   1      34.889  18.498   5.843  0.00  0.00     0.222 HD
ENDBRANCH  19  21
BRANCH  19  23
HETATM   23  O   UNK N   1      32.333  17.296   5.350  0.00  0.00    -0.307 OA
HETATM   24  H   UNK N   1      31.730  17.400   6.102  0.00  0.00     0.222 HD
ENDBRANCH  19  23
ENDBRANCH  18  19
ENDBRANCH  17  18
ENDBRANCH  14  17
ENDBRANCH   1  14
TORSDOF 14
ENDMDL
MODEL 5
REMARK VINA RESULT:      -5.1      2.881      6.135
REMARK  14 active torsions:
REMARK  status: ('A' for Active; 'I' for Inactive)
REMARK    1  A    between atoms: P_1  and  O_2 
REMARK    2  A    between atoms: P_1  and  O_3 
REMARK    3  A    between atoms: P_1  and  O_4 
REMARK    4  A    between atoms: O_2  and  C_16 
REMARK    5  A    between atoms: C_12  and  O_5 
REMARK    6  A    between atoms: C_13  and  O_6 
REMARK    7  A    between atoms: C_14  and  O_7 
REMARK    8  A    between atoms: C_15  and  O_8 
REMARK    9  A    between atoms: O_9  and  C_17 
REMARK   10  A    between atoms: C_12  and  C_13 
REMARK   11  A    between atoms: C_12  and  C_14 
REMARK   12  A    between atoms: C_13  and  C_15 
REMARK   13  A    between atoms: C_14  and  C_16 
REMARK   14  A    between atoms: C_15  and  C_17 
ROOT
HETATM    1  C   UNK N   1      35.390  14.633  11.687  0.00  0.00     0.180 C 
ENDROOT
BRANCH   1   2
HETATM    2  O   UNK N   1      34.004  14.470  11.598  0.00  0.00    -0.390 OA
HETATM    3  H   UNK N   1      33.491  14.582  10.782  0.00  0.00     0.210 HD
ENDBRANCH   1   2
BRANCH   1   4
HETATM    4  C   UNK N   1      35.933  15.258  10.382  0.00  0.00     0.188 C 
BRANCH   4   5
HETATM    5  O   UNK N   1      37.330  15.276  10.424  0.00  0.00    -0.390 OA
HETATM    6  H   UNK N   1      37.869  14.675  10.962  0.00  0.00     0.210 HD
ENDBRANCH   4   5
BRANCH   4   7
HETATM    7  C   UNK N   1      35.437  16.699  10.148  0.00  0.00     0.246 C 
BRANCH   7   8
HETATM    8  O   UNK N   1      34.909  17.234  11.324  0.00  0.00    -0.382 OA
HETATM    9  H   UNK N   1      34.375  18.042  11.379  0.00  0.00     0.210 HD
ENDBRANCH   7   8
BRANCH   7  10
HETATM   10  C   UNK N   1      34.393  16.803   9.061  0.00  0.00     0.172 C 
HETATM   11  O   UNK N   1      33.422  16.058   9.044  0.00  0.00    -0.648 OA
BRANCH  10  12
HETATM   12  O   UNK N   1      34.531  17.726   8.092  0.00  0.00    -0.774 OA
HETATM   13  H   UNK N   1      35.070  17.607   7.335  0.00  0.00     0.167 HD
ENDBRANCH  10  12
ENDBRANCH   7  10
ENDBRANCH   4   7
ENDBRANCH   1   4
BRANCH   1  14
HETATM   14  C   UNK N   1      36.043  13.269  11.987  0.00  0.00     0.173 C 
BRANCH  14  15
HETATM   15  O   UNK N   1      37.361  13.443  12.411  0.00  0.00    -0.391 OA
HETATM   16  H   UNK N   1      37.636  14.075  13.093  0.00  0.00     0.210 HD
ENDBRANCH  14  15
BRANCH  14  17
HETATM   17  C   UNK N   1      35.322  12.516  13.093  0.00  0.00     0.214 C 
BRANCH  17  18
HETATM   18  O   UNK N   1      34.891  13.369  14.116  0.00  0.00    -0.294 OA
BRANCH  18  19
HETATM   19  P   UNK N   1      35.623  12.723  15.557  0.00  0.00     0.390 P 
HETATM   20  O   UNK N   1      36.490  13.989  15.322  0.00  0.00    -0.632 OA
BRANCH  19  21
HETATM   21  O   UNK N   1      34.001  13.231  15.933  0.00  0.00    -0.307 OA
HETATM   22  H   UNK N   1      33.493  13.093  16.746  0.00  0.00     0.222 HD
ENDBRANCH  19  21
BRANCH  19  23
HETATM   23  O   UNK N   1      35.517  13.523  17.093  0.00  0.00    -0.307 OA
HETATM   24  H   UNK N   1      36.216  14.116  17.407  0.00  0.00     0.222 HD
ENDBRANCH  19  23
ENDBRANCH  18  19
ENDBRANCH  17  18
ENDBRANCH  14  17
ENDBRANCH   1  14
TORSDOF 14
ENDMDL
MODEL 6
REMARK VINA RESULT:      -5.1     16.667     18.337
REMARK  14 active torsions:
REMARK  status: ('A' for Active; 'I' for Inactive)
REMARK    1  A    between atoms: P_1  and  O_2 
REMARK    2  A    between atoms: P_1  and  O_3 
REMARK    3  A    between atoms: P_1  and  O_4 
REMARK    4  A    between atoms: O_2  and  C_16 
REMARK    5  A    between atoms: C_12  and  O_5 
REMARK    6  A    between atoms: C_13  and  O_6 
REMARK    7  A    between atoms: C_14  and  O_7 
REMARK    8  A    between atoms: C_15  and  O_8 
REMARK    9  A    between atoms: O_9  and  C_17 
REMARK   10  A    between atoms: C_12  and  C_13 
REMARK   11  A    between atoms: C_12  and  C_14 
REMARK   12  A    between atoms: C_13  and  C_15 
REMARK   13  A    between atoms: C_14  and  C_16 
REMARK   14  A    between atoms: C_15  and  C_17 
ROOT
HETATM    1  C   UNK N   1      21.063  18.244   3.354  0.00  0.00     0.180 C 
ENDROOT
BRANCH   1   2
HETATM    2  O   UNK N   1      21.468  17.862   4.637  0.00  0.00    -0.390 OA
HETATM    3  H   UNK N   1      20.865  17.558   5.333  0.00  0.00     0.210 HD
ENDBRANCH   1   2
BRANCH   1   4
HETATM    4  C   UNK N   1      20.795  19.766   3.316  0.00  0.00     0.188 C 
BRANCH   4   5
HETATM    5  O   UNK N   1      19.455  19.991   2.990  0.00  0.00    -0.390 OA
HETATM    6  H   UNK N   1      18.952  19.465   2.348  0.00  0.00     0.210 HD
ENDBRANCH   4   5
BRANCH   4   7
HETATM    7  C   UNK N   1      21.674  20.512   2.294  0.00  0.00     0.246 C 
BRANCH   7   8
HETATM    8  O   UNK N   1      22.163  21.700   2.841  0.00  0.00    -0.382 OA
HETATM    9  H   UNK N   1      22.106  21.948   3.776  0.00  0.00     0.210 HD
ENDBRANCH   7   8
BRANCH   7  10
HETATM   10  C   UNK N   1      20.953  20.837   1.007  0.00  0.00     0.172 C 
HETATM   11  O   UNK N   1      20.786  19.985   0.144  0.00  0.00    -0.648 OA
BRANCH  10  12
HETATM   12  O   UNK N   1      20.489  22.082   0.801  0.00  0.00    -0.774 OA
HETATM   13  H   UNK N   1      20.544  22.528  -0.021  0.00  0.00     0.167 HD
ENDBRANCH  10  12
ENDBRANCH   7  10
ENDBRANCH   4   7
ENDBRANCH   1   4
BRANCH   1  14
HETATM   14  C   UNK N   1      19.817  17.429   2.951  0.00  0.00     0.173 C 
BRANCH  14  15
HETATM   15  O   UNK N   1      19.492  17.665   1.615  0.00  0.00    -0.391 OA
HETATM   16  H   UNK N   1      18.616  17.507   1.231  0.00  0.00     0.210 HD
ENDBRANCH  14  15
BRANCH  14  17
HETATM   17  C   UNK N   1      20.038  15.932   3.092  0.00  0.00     0.214 C 
BRANCH  17  18
HETATM   18  O   UNK N   1      21.319  15.547   2.678  0.00  0.00    -0.294 OA
BRANCH  18  19
HETATM   19  P   UNK N   1      21.039  14.246   1.557  0.00  0.00     0.390 P 
HETATM   20  O   UNK N   1      21.245  15.439   0.585  0.00  0.00    -0.632 OA
BRANCH  19  21
HETATM   21  O   UNK N   1      22.539  13.954   2.392  0.00  0.00    -0.307 OA
HETATM   22  H   UNK N   1      23.304  14.539   2.491  0.00  0.00     0.222 HD
ENDBRANCH  19  21
BRANCH  19  23
HETATM   23  O   UNK N   1      22.279  13.643   0.503  0.00  0.00    -0.307 OA
HETATM   24  H   UNK N   1      23.209  13.614   0.777  0.00  0.00     0.222 HD
ENDBRANCH  19  23
ENDBRANCH  18  19
ENDBRANCH  17  18
ENDBRANCH  14  17
ENDBRANCH   1  14
TORSDOF 14
ENDMDL
MODEL 7
REMARK VINA RESULT:      -5.1     17.095     18.802
REMARK  14 active torsions:
REMARK  status: ('A' for Active; 'I' for Inactive)
REMARK    1  A    between atoms: P_1  and  O_2 
REMARK    2  A    between atoms: P_1  and  O_3 
REMARK    3  A    between atoms: P_1  and  O_4 
REMARK    4  A    between atoms: O_2  and  C_16 
REMARK    5  A    between atoms: C_12  and  O_5 
REMARK    6  A    between atoms: C_13  and  O_6 
REMARK    7  A    between atoms: C_14  and  O_7 
REMARK    8  A    between atoms: C_15  and  O_8 
REMARK    9  A    between atoms: O_9  and  C_17 
REMARK   10  A    between atoms: C_12  and  C_13 
REMARK   11  A    between atoms: C_12  and  C_14 
REMARK   12  A    between atoms: C_13  and  C_15 
REMARK   13  A    between atoms: C_14  and  C_16 
REMARK   14  A    between atoms: C_15  and  C_17 
ROOT
HETATM    1  C   UNK N   1      20.029  18.635   3.191  0.00  0.00     0.180 C 
ENDROOT
BRANCH   1   2
HETATM    2  O   UNK N   1      18.917  18.898   2.386  0.00  0.00    -0.390 OA
HETATM    3  H   UNK N   1      18.748  18.473   1.530  0.00  0.00     0.210 HD
ENDBRANCH   1   2
BRANCH   1   4
HETATM    4  C   UNK N   1      20.815  19.941   3.449  0.00  0.00     0.188 C 
BRANCH   4   5
HETATM    5  O   UNK N   1      19.915  20.988   3.662  0.00  0.00    -0.390 OA
HETATM    6  H   UNK N   1      20.099  21.918   3.456  0.00  0.00     0.210 HD
ENDBRANCH   4   5
BRANCH   4   7
HETATM    7  C   UNK N   1      21.744  20.330   2.282  0.00  0.00     0.246 C 
BRANCH   7   8
HETATM    8  O   UNK N   1      22.655  21.309   2.684  0.00  0.00    -0.382 OA
HETATM    9  H   UNK N   1      23.202  21.267   3.484  0.00  0.00     0.210 HD
ENDBRANCH   7   8
BRANCH   7  10
HETATM   10  C   UNK N   1      21.001  20.836   1.068  0.00  0.00     0.172 C 
HETATM   11  O   UNK N   1      20.818  20.117   0.094  0.00  0.00    -0.648 OA
BRANCH  10  12
HETATM   12  O   UNK N   1      20.535  22.097   1.051  0.00  0.00    -0.774 OA
HETATM   13  H   UNK N   1      20.308  22.558   0.267  0.00  0.00     0.167 HD
ENDBRANCH  10  12
ENDBRANCH   7  10
ENDBRANCH   4   7
ENDBRANCH   1   4
BRANCH   1  14
HETATM   14  C   UNK N   1      20.904  17.560   2.514  0.00  0.00     0.173 C 
BRANCH  14  15
HETATM   15  O   UNK N   1      21.488  16.733   3.473  0.00  0.00    -0.391 OA
HETATM   16  H   UNK N   1      21.984  15.925   3.268  0.00  0.00     0.210 HD
ENDBRANCH  14  15
BRANCH  14  17
HETATM   17  C   UNK N   1      20.100  16.661   1.590  0.00  0.00     0.214 C 
BRANCH  17  18
HETATM   18  O   UNK N   1      20.914  15.768   0.885  0.00  0.00    -0.294 OA
BRANCH  18  19
HETATM   19  P   UNK N   1      19.992  14.292   0.829  0.00  0.00     0.390 P 
HETATM   20  O   UNK N   1      20.507  14.269   2.293  0.00  0.00    -0.632 OA
BRANCH  19  21
HETATM   21  O   UNK N   1      18.904  15.639   0.651  0.00  0.00    -0.307 OA
HETATM   22  H   UNK N   1      17.935  15.645   0.660  0.00  0.00     0.222 HD
ENDBRANCH  19  21
BRANCH  19  23
HETATM   23  O   UNK N   1      18.522  14.080   1.725  0.00  0.00    -0.307 OA
HETATM   24  H   UNK N   1      18.265  14.690   2.433  0.00  0.00     0.222 HD
ENDBRANCH  19  23
ENDBRANCH  18  19
ENDBRANCH  17  18
ENDBRANCH  14  17
ENDBRANCH   1  14
TORSDOF 14
ENDMDL
MODEL 8
REMARK VINA RESULT:      -5.1      1.880      2.854
REMARK  14 active torsions:
REMARK  status: ('A' for Active; 'I' for Inactive)
REMARK    1  A    between atoms: P_1  and  O_2 
REMARK    2  A    between atoms: P_1  and  O_3 
REMARK    3  A    between atoms: P_1  and  O_4 
REMARK    4  A    between atoms: O_2  and  C_16 
REMARK    5  A    between atoms: C_12  and  O_5 
REMARK    6  A    between atoms: C_13  and  O_6 
REMARK    7  A    between atoms: C_14  and  O_7 
REMARK    8  A    between atoms: C_15  and  O_8 
REMARK    9  A    between atoms: O_9  and  C_17 
REMARK   10  A    between atoms: C_12  and  C_13 
REMARK   11  A    between atoms: C_12  and  C_14 
REMARK   12  A    between atoms: C_13  and  C_15 
REMARK   13  A    between atoms: C_14  and  C_16 
REMARK   14  A    between atoms: C_15  and  C_17 
ROOT
HETATM    1  C   UNK N   1      35.111  14.657  11.513  0.00  0.00     0.180 C 
ENDROOT
BRANCH   1   2
HETATM    2  O   UNK N   1      33.726  14.823  11.411  0.00  0.00    -0.390 OA
HETATM    3  H   UNK N   1      33.101  14.659  12.134  0.00  0.00     0.210 HD
ENDBRANCH   1   2
BRANCH   1   4
HETATM    4  C   UNK N   1      35.477  14.126  12.917  0.00  0.00     0.188 C 
BRANCH   4   5
HETATM    5  O   UNK N   1      36.822  14.401  13.180  0.00  0.00    -0.390 OA
HETATM    6  H   UNK N   1      37.448  13.762  13.556  0.00  0.00     0.210 HD
ENDBRANCH   4   5
BRANCH   4   7
HETATM    7  C   UNK N   1      35.255  12.608  13.068  0.00  0.00     0.246 C 
BRANCH   7   8
HETATM    8  O   UNK N   1      34.384  12.139  12.083  0.00  0.00    -0.382 OA
HETATM    9  H   UNK N   1      34.311  11.215  11.797  0.00  0.00     0.210 HD
ENDBRANCH   7   8
BRANCH   7  10
HETATM   10  C   UNK N   1      34.707  12.215  14.420  0.00  0.00     0.172 C 
HETATM   11  O   UNK N   1      34.338  13.061  15.223  0.00  0.00    -0.648 OA
BRANCH  10  12
HETATM   12  O   UNK N   1      34.627  10.914  14.752  0.00  0.00    -0.774 OA
HETATM   13  H   UNK N   1      35.242  10.266  14.468  0.00  0.00     0.167 HD
ENDBRANCH  10  12
ENDBRANCH   7  10
ENDBRANCH   4   7
ENDBRANCH   1   4
BRANCH   1  14
HETATM   14  C   UNK N   1      35.807  15.999  11.205  0.00  0.00     0.173 C 
BRANCH  14  15
HETATM   15  O   UNK N   1      37.121  15.782  10.791  0.00  0.00    -0.391 OA
HETATM   16  H   UNK N   1      37.622  14.970  10.970  0.00  0.00     0.210 HD
ENDBRANCH  14  15
BRANCH  14  17
HETATM   17  C   UNK N   1      35.116  16.763  10.089  0.00  0.00     0.214 C 
BRANCH  17  18
HETATM   18  O   UNK N   1      35.077  16.033   8.895  0.00  0.00    -0.294 OA
BRANCH  18  19
HETATM   19  P   UNK N   1      33.543  16.444   8.183  0.00  0.00     0.390 P 
HETATM   20  O   UNK N   1      33.310  14.956   8.559  0.00  0.00    -0.632 OA
BRANCH  19  21
HETATM   21  O   UNK N   1      33.742  17.356   9.653  0.00  0.00    -0.307 OA
HETATM   22  H   UNK N   1      33.633  17.065  10.570  0.00  0.00     0.222 HD
ENDBRANCH  19  21
BRANCH  19  23
HETATM   23  O   UNK N   1      32.081  16.532   9.113  0.00  0.00    -0.307 OA
HETATM   24  H   UNK N   1      31.990  17.140   9.863  0.00  0.00     0.222 HD
ENDBRANCH  19  23
ENDBRANCH  18  19
ENDBRANCH  17  18
ENDBRANCH  14  17
ENDBRANCH   1  14
TORSDOF 14
ENDMDL
MODEL 9
REMARK VINA RESULT:      -5.1     15.447     17.961
REMARK  14 active torsions:
REMARK  status: ('A' for Active; 'I' for Inactive)
REMARK    1  A    between atoms: P_1  and  O_2 
REMARK    2  A    between atoms: P_1  and  O_3 
REMARK    3  A    between atoms: P_1  and  O_4 
REMARK    4  A    between atoms: O_2  and  C_16 
REMARK    5  A    between atoms: C_12  and  O_5 
REMARK    6  A    between atoms: C_13  and  O_6 
REMARK    7  A    between atoms: C_14  and  O_7 
REMARK    8  A    between atoms: C_15  and  O_8 
REMARK    9  A    between atoms: O_9  and  C_17 
REMARK   10  A    between atoms: C_12  and  C_13 
REMARK   11  A    between atoms: C_12  and  C_14 
REMARK   12  A    between atoms: C_13  and  C_15 
REMARK   13  A    between atoms: C_14  and  C_16 
REMARK   14  A    between atoms: C_15  and  C_17 
ROOT
HETATM    1  C   UNK N   1      22.128  18.462   4.048  0.00  0.00     0.180 C 
ENDROOT
BRANCH   1   2
HETATM    2  O   UNK N   1      23.469  18.844   3.948  0.00  0.00    -0.390 OA
HETATM    3  H   UNK N   1      23.852  19.303   3.185  0.00  0.00     0.210 HD
ENDBRANCH   1   2
BRANCH   1   4
HETATM    4  C   UNK N   1      21.217  19.584   3.501  0.00  0.00     0.188 C 
BRANCH   4   5
HETATM    5  O   UNK N   1      20.025  19.025   3.033  0.00  0.00    -0.390 OA
HETATM    6  H   UNK N   1      19.244  18.860   3.585  0.00  0.00     0.210 HD
ENDBRANCH   4   5
BRANCH   4   7
HETATM    7  C   UNK N   1      21.862  20.383   2.352  0.00  0.00     0.246 C 
BRANCH   7   8
HETATM    8  O   UNK N   1      22.326  21.617   2.811  0.00  0.00    -0.382 OA
HETATM    9  H   UNK N   1      21.836  22.451   2.760  0.00  0.00     0.210 HD
ENDBRANCH   7   8
BRANCH   7  10
HETATM   10  C   UNK N   1      20.926  20.624   1.191  0.00  0.00     0.172 C 
HETATM   11  O   UNK N   1      20.383  21.709   1.032  0.00  0.00    -0.648 OA
BRANCH  10  12
HETATM   12  O   UNK N   1      20.679  19.630   0.318  0.00  0.00    -0.774 OA
HETATM   13  H   UNK N   1      20.313  19.766  -0.533  0.00  0.00     0.167 HD
ENDBRANCH  10  12
ENDBRANCH   7  10
ENDBRANCH   4   7
ENDBRANCH   1   4
BRANCH   1  14
HETATM   14  C   UNK N   1      21.805  18.122   5.518  0.00  0.00     0.173 C 
BRANCH  14  15
HETATM   15  O   UNK N   1      20.896  19.041   6.041  0.00  0.00    -0.391 OA
HETATM   16  H   UNK N   1      20.329  18.870   6.810  0.00  0.00     0.210 HD
ENDBRANCH  14  15
BRANCH  14  17
HETATM   17  C   UNK N   1      21.175  16.747   5.666  0.00  0.00     0.214 C 
BRANCH  17  18
HETATM   18  O   UNK N   1      19.964  16.645   4.970  0.00  0.00    -0.294 OA
BRANCH  18  19
HETATM   19  P   UNK N   1      19.971  15.030   4.322  0.00  0.00     0.390 P 
HETATM   20  O   UNK N   1      18.746  14.966   5.274  0.00  0.00    -0.632 OA
BRANCH  19  21
HETATM   21  O   UNK N   1      19.609  16.148   3.038  0.00  0.00    -0.307 OA
HETATM   22  H   UNK N   1      19.413  15.964   2.106  0.00  0.00     0.222 HD
ENDBRANCH  19  21
BRANCH  19  23
HETATM   23  O   UNK N   1      18.724  14.447   3.266  0.00  0.00    -0.307 OA
HETATM   24  H   UNK N   1      17.843  14.850   3.248  0.00  0.00     0.222 HD
ENDBRANCH  19  23
ENDBRANCH  18  19
ENDBRANCH  17  18
ENDBRANCH  14  17
ENDBRANCH   1  14
TORSDOF 14
ENDMDL
