MODEL 1
REMARK VINA RESULT:      -3.8      0.000      0.000
REMARK  6 active torsions:
REMARK  status: ('A' for Active; 'I' for Inactive)
REMARK    1  A    between atoms: N_1  and  C_2 
REMARK    2  A    between atoms: C_2  and  C_3 
REMARK    3  A    between atoms: C_3  and  C_4 
REMARK    4  A    between atoms: C_4  and  C_5 
REMARK    5  A    between atoms: C_5  and  C_6 
REMARK    6  A    between atoms: C_6  and  O_7 
ROOT
HETATM    1  C   UNK N   1      31.011  16.937   8.358  0.00  0.00     0.028 C 
ENDROOT
BRANCH   1   2
HETATM    2  C   UNK N   1      29.734  17.357   9.050  0.00  0.00     0.229 C 
BRANCH   2   3
HETATM    3  N   UNK N   1      30.003  18.481   9.924  0.00  0.00    -0.079 N 
HETATM    4  H   UNK N   1      30.540  18.345  10.781  0.00  0.00     0.274 HD
HETATM    5  H   UNK N   1      29.655  19.409   9.683  0.00  0.00     0.274 HD
HETATM    6  H   UNK N   1      30.192  19.273  10.539  0.00  0.00     0.274 HD
ENDBRANCH   2   3
ENDBRANCH   1   2
BRANCH   1   7
HETATM    7  C   UNK N   1      31.983  18.087   8.435  0.00  0.00     0.012 C 
BRANCH   7   8
HETATM    8  C   UNK N   1      33.378  17.585   8.756  0.00  0.00     0.110 C 
BRANCH   8   9
HETATM    9  C   UNK N   1      34.419  18.291   7.938  0.00  0.00     0.139 C 
HETATM   10  O   UNK N   1      35.198  19.079   8.455  0.00  0.00    -0.650 OA
BRANCH   9  11
HETATM   11  O   UNK N   1      34.496  18.052   6.617  0.00  0.00    -0.776 OA
HETATM   12  H   UNK N   1      33.832  18.379   6.042  0.00  0.00     0.167 HD
ENDBRANCH   9  11
ENDBRANCH   8   9
ENDBRANCH   7   8
ENDBRANCH   1   7
TORSDOF 6
ENDMDL
MODEL 2
REMARK VINA RESULT:      -3.8      2.057      2.472
REMARK  6 active torsions:
REMARK  status: ('A' for Active; 'I' for Inactive)
REMARK    1  A    between atoms: N_1  and  C_2 
REMARK    2  A    between atoms: C_2  and  C_3 
REMARK    3  A    between atoms: C_3  and  C_4 
REMARK    4  A    between atoms: C_4  and  C_5 
REMARK    5  A    between atoms: C_5  and  C_6 
REMARK    6  A    between atoms: C_6  and  O_7 
ROOT
HETATM    1  C   UNK N   1      31.272  16.715   7.690  0.00  0.00     0.028 C 
ENDROOT
BRANCH   1   2
HETATM    2  C   UNK N   1      31.084  17.090   6.237  0.00  0.00     0.229 C 
BRANCH   2   3
HETATM    3  N   UNK N   1      32.148  16.508   5.444  0.00  0.00    -0.079 N 
HETATM    4  H   UNK N   1      32.481  15.566   5.650  0.00  0.00     0.274 HD
HETATM    5  H   UNK N   1      32.563  17.040   4.680  0.00  0.00     0.274 HD
HETATM    6  H   UNK N   1      32.896  16.099   4.885  0.00  0.00     0.274 HD
ENDBRANCH   2   3
ENDBRANCH   1   2
BRANCH   1   7
HETATM    7  C   UNK N   1      31.991  17.850   8.375  0.00  0.00     0.012 C 
BRANCH   7   8
HETATM    8  C   UNK N   1      33.420  17.456   8.700  0.00  0.00     0.110 C 
BRANCH   8   9
HETATM    9  C   UNK N   1      34.406  18.228   7.874  0.00  0.00     0.139 C 
HETATM   10  O   UNK N   1      34.486  18.057   6.667  0.00  0.00    -0.650 OA
BRANCH   9  11
HETATM   11  O   UNK N   1      35.214  19.121   8.473  0.00  0.00    -0.776 OA
HETATM   12  H   UNK N   1      36.076  18.869   8.738  0.00  0.00     0.167 HD
ENDBRANCH   9  11
ENDBRANCH   8   9
ENDBRANCH   7   8
ENDBRANCH   1   7
TORSDOF 6
ENDMDL
MODEL 3
REMARK VINA RESULT:      -3.7     11.645     12.396
REMARK  6 active torsions:
REMARK  status: ('A' for Active; 'I' for Inactive)
REMARK    1  A    between atoms: N_1  and  C_2 
REMARK    2  A    between atoms: C_2  and  C_3 
REMARK    3  A    between atoms: C_3  and  C_4 
REMARK    4  A    between atoms: C_4  and  C_5 
REMARK    5  A    between atoms: C_5  and  C_6 
REMARK    6  A    between atoms: C_6  and  O_7 
ROOT
HETATM    1  C   UNK N   1      22.968  11.731  10.429  0.00  0.00     0.028 C 
ENDROOT
BRANCH   1   2
HETATM    2  C   UNK N   1      23.958  11.954  11.550  0.00  0.00     0.229 C 
BRANCH   2   3
HETATM    3  N   UNK N   1      25.118  12.658  11.042  0.00  0.00    -0.079 N 
HETATM    4  H   UNK N   1      25.362  13.576  11.414  0.00  0.00     0.274 HD
HETATM    5  H   UNK N   1      25.691  12.236  10.311  0.00  0.00     0.274 HD
HETATM    6  H   UNK N   1      25.935  13.153  10.684  0.00  0.00     0.274 HD
ENDBRANCH   2   3
ENDBRANCH   1   2
BRANCH   1   7
HETATM    7  C   UNK N   1      21.750  12.575  10.709  0.00  0.00     0.012 C 
BRANCH   7   8
HETATM    8  C   UNK N   1      21.730  13.796   9.809  0.00  0.00     0.110 C 
BRANCH   8   9
HETATM    9  C   UNK N   1      20.378  14.003   9.192  0.00  0.00     0.139 C 
HETATM   10  O   UNK N   1      19.386  14.158   9.889  0.00  0.00    -0.650 OA
BRANCH   9  11
HETATM   11  O   UNK N   1      20.258  14.018   7.853  0.00  0.00    -0.776 OA
HETATM   12  H   UNK N   1      20.698  13.373   7.335  0.00  0.00     0.167 HD
ENDBRANCH   9  11
ENDBRANCH   8   9
ENDBRANCH   7   8
ENDBRANCH   1   7
TORSDOF 6
ENDMDL
MODEL 4
REMARK VINA RESULT:      -3.7     11.181     11.812
REMARK  6 active torsions:
REMARK  status: ('A' for Active; 'I' for Inactive)
REMARK    1  A    between atoms: N_1  and  C_2 
REMARK    2  A    between atoms: C_2  and  C_3 
REMARK    3  A    between atoms: C_3  and  C_4 
REMARK    4  A    between atoms: C_4  and  C_5 
REMARK    5  A    between atoms: C_5  and  C_6 
REMARK    6  A    between atoms: C_6  and  O_7 
ROOT
HETATM    1  C   UNK N   1      21.388  13.011   9.344  0.00  0.00     0.028 C 
ENDROOT
BRANCH   1   2
HETATM    2  C   UNK N   1      20.385  14.016   9.867  0.00  0.00     0.229 C 
BRANCH   2   3
HETATM    3  N   UNK N   1      20.300  15.138   8.954  0.00  0.00    -0.079 N 
HETATM    4  H   UNK N   1      20.154  14.975   7.958  0.00  0.00     0.274 HD
HETATM    5  H   UNK N   1      20.386  16.090   9.307  0.00  0.00     0.274 HD
HETATM    6  H   UNK N   1      20.240  15.928   8.312  0.00  0.00     0.274 HD
ENDBRANCH   2   3
ENDBRANCH   1   2
BRANCH   1   7
HETATM    7  C   UNK N   1      22.613  13.077  10.220  0.00  0.00     0.012 C 
BRANCH   7   8
HETATM    8  C   UNK N   1      22.571  11.988  11.276  0.00  0.00     0.110 C 
BRANCH   8   9
HETATM    9  C   UNK N   1      23.732  12.092  12.221  0.00  0.00     0.139 C 
HETATM   10  O   UNK N   1      23.565  12.027  13.430  0.00  0.00    -0.650 OA
BRANCH   9  11
HETATM   11  O   UNK N   1      24.972  12.259  11.730  0.00  0.00    -0.776 OA
HETATM   12  H   UNK N   1      25.096  12.692  10.909  0.00  0.00     0.167 HD
ENDBRANCH   9  11
ENDBRANCH   8   9
ENDBRANCH   7   8
ENDBRANCH   1   7
TORSDOF 6
ENDMDL
MODEL 5
REMARK VINA RESULT:      -3.6      5.391      6.125
REMARK  6 active torsions:
REMARK  status: ('A' for Active; 'I' for Inactive)
REMARK    1  A    between atoms: N_1  and  C_2 
REMARK    2  A    between atoms: C_2  and  C_3 
REMARK    3  A    between atoms: C_3  and  C_4 
REMARK    4  A    between atoms: C_4  and  C_5 
REMARK    5  A    between atoms: C_5  and  C_6 
REMARK    6  A    between atoms: C_6  and  O_7 
ROOT
HETATM    1  C   UNK N   1      35.162  12.984  11.307  0.00  0.00     0.028 C 
ENDROOT
BRANCH   1   2
HETATM    2  C   UNK N   1      36.517  12.376  11.591  0.00  0.00     0.229 C 
BRANCH   2   3
HETATM    3  N   UNK N   1      37.363  13.356  12.241  0.00  0.00    -0.079 N 
HETATM    4  H   UNK N   1      37.762  13.158  13.158  0.00  0.00     0.274 HD
HETATM    5  H   UNK N   1      37.559  14.245  11.781  0.00  0.00     0.274 HD
HETATM    6  H   UNK N   1      37.958  14.047  12.698  0.00  0.00     0.274 HD
ENDBRANCH   2   3
ENDBRANCH   1   2
BRANCH   1   7
HETATM    7  C   UNK N   1      35.112  14.339  11.968  0.00  0.00     0.012 C 
BRANCH   7   8
HETATM    8  C   UNK N   1      34.670  15.399  10.977  0.00  0.00     0.110 C 
BRANCH   8   9
HETATM    9  C   UNK N   1      35.766  16.386  10.700  0.00  0.00     0.139 C 
HETATM   10  O   UNK N   1      35.509  17.524  10.335  0.00  0.00    -0.650 OA
BRANCH   9  11
HETATM   11  O   UNK N   1      37.048  16.012  10.856  0.00  0.00    -0.776 OA
HETATM   12  H   UNK N   1      37.514  16.250  11.632  0.00  0.00     0.167 HD
ENDBRANCH   9  11
ENDBRANCH   8   9
ENDBRANCH   7   8
ENDBRANCH   1   7
TORSDOF 6
ENDMDL
MODEL 6
REMARK VINA RESULT:      -3.6      9.511     10.026
REMARK  6 active torsions:
REMARK  status: ('A' for Active; 'I' for Inactive)
REMARK    1  A    between atoms: N_1  and  C_2 
REMARK    2  A    between atoms: C_2  and  C_3 
REMARK    3  A    between atoms: C_3  and  C_4 
REMARK    4  A    between atoms: C_4  and  C_5 
REMARK    5  A    between atoms: C_5  and  C_6 
REMARK    6  A    between atoms: C_6  and  O_7 
ROOT
HETATM    1  C   UNK N   1      35.093  13.635  17.915  0.00  0.00     0.028 C 
ENDROOT
BRANCH   1   2
HETATM    2  C   UNK N   1      35.289  12.472  18.861  0.00  0.00     0.229 C 
BRANCH   2   3
HETATM    3  N   UNK N   1      35.257  12.947  20.229  0.00  0.00    -0.079 N 
HETATM    4  H   UNK N   1      34.419  12.816  20.795  0.00  0.00     0.274 HD
HETATM    5  H   UNK N   1      36.072  13.414  20.626  0.00  0.00     0.274 HD
HETATM    6  H   UNK N   1      35.235  13.283  21.192  0.00  0.00     0.274 HD
ENDBRANCH   2   3
ENDBRANCH   1   2
BRANCH   1   7
HETATM    7  C   UNK N   1      34.833  13.076  16.538  0.00  0.00     0.012 C 
BRANCH   7   8
HETATM    8  C   UNK N   1      36.107  13.071  15.716  0.00  0.00     0.110 C 
BRANCH   8   9
HETATM    9  C   UNK N   1      35.887  13.663  14.354  0.00  0.00     0.139 C 
HETATM   10  O   UNK N   1      34.844  13.469  13.746  0.00  0.00    -0.650 OA
BRANCH   9  11
HETATM   11  O   UNK N   1      36.850  14.416  13.796  0.00  0.00    -0.776 OA
HETATM   12  H   UNK N   1      37.092  14.280  12.902  0.00  0.00     0.167 HD
ENDBRANCH   9  11
ENDBRANCH   8   9
ENDBRANCH   7   8
ENDBRANCH   1   7
TORSDOF 6
ENDMDL
MODEL 7
REMARK VINA RESULT:      -3.6      3.895      4.671
REMARK  6 active torsions:
REMARK  status: ('A' for Active; 'I' for Inactive)
REMARK    1  A    between atoms: N_1  and  C_2 
REMARK    2  A    between atoms: C_2  and  C_3 
REMARK    3  A    between atoms: C_3  and  C_4 
REMARK    4  A    between atoms: C_4  and  C_5 
REMARK    5  A    between atoms: C_5  and  C_6 
REMARK    6  A    between atoms: C_6  and  O_7 
ROOT
HETATM    1  C   UNK N   1      32.039  17.135   8.517  0.00  0.00     0.028 C 
ENDROOT
BRANCH   1   2
HETATM    2  C   UNK N   1      32.076  15.645   8.773  0.00  0.00     0.229 C 
BRANCH   2   3
HETATM    3  N   UNK N   1      31.753  15.382  10.160  0.00  0.00    -0.079 N 
HETATM    4  H   UNK N   1      32.499  15.295  10.851  0.00  0.00     0.274 HD
HETATM    5  H   UNK N   1      30.780  15.283  10.447  0.00  0.00     0.274 HD
HETATM    6  H   UNK N   1      31.525  15.196  11.137  0.00  0.00     0.274 HD
ENDBRANCH   2   3
ENDBRANCH   1   2
BRANCH   1   7
HETATM    7  C   UNK N   1      30.674  17.480   7.976  0.00  0.00     0.012 C 
BRANCH   7   8
HETATM    8  C   UNK N   1      29.955  18.431   8.913  0.00  0.00     0.110 C 
BRANCH   8   9
HETATM    9  C   UNK N   1      28.815  17.755   9.617  0.00  0.00     0.139 C 
HETATM   10  O   UNK N   1      29.014  16.831  10.392  0.00  0.00    -0.650 OA
BRANCH   9  11
HETATM   11  O   UNK N   1      27.557  18.173   9.392  0.00  0.00    -0.776 OA
HETATM   12  H   UNK N   1      27.398  18.883   8.802  0.00  0.00     0.167 HD
ENDBRANCH   9  11
ENDBRANCH   8   9
ENDBRANCH   7   8
ENDBRANCH   1   7
TORSDOF 6
ENDMDL
MODEL 8
REMARK VINA RESULT:      -3.6     11.368     12.225
REMARK  6 active torsions:
REMARK  status: ('A' for Active; 'I' for Inactive)
REMARK    1  A    between atoms: N_1  and  C_2 
REMARK    2  A    between atoms: C_2  and  C_3 
REMARK    3  A    between atoms: C_3  and  C_4 
REMARK    4  A    between atoms: C_4  and  C_5 
REMARK    5  A    between atoms: C_5  and  C_6 
REMARK    6  A    between atoms: C_6  and  O_7 
ROOT
HETATM    1  C   UNK N   1      24.153  11.906   9.285  0.00  0.00     0.028 C 
ENDROOT
BRANCH   1   2
HETATM    2  C   UNK N   1      24.591  12.335  10.668  0.00  0.00     0.229 C 
BRANCH   2   3
HETATM    3  N   UNK N   1      25.611  13.357  10.559  0.00  0.00    -0.079 N 
HETATM    4  H   UNK N   1      25.502  14.243  11.054  0.00  0.00     0.274 HD
HETATM    5  H   UNK N   1      26.440  13.192   9.988  0.00  0.00     0.274 HD
HETATM    6  H   UNK N   1      26.330  14.077  10.482  0.00  0.00     0.274 HD
ENDBRANCH   2   3
ENDBRANCH   1   2
BRANCH   1   7
HETATM    7  C   UNK N   1      22.678  12.193   9.155  0.00  0.00     0.012 C 
BRANCH   7   8
HETATM    8  C   UNK N   1      22.206  13.085  10.287  0.00  0.00     0.110 C 
BRANCH   8   9
HETATM    9  C   UNK N   1      20.874  12.645  10.818  0.00  0.00     0.139 C 
HETATM   10  O   UNK N   1      19.834  13.079  10.344  0.00  0.00    -0.650 OA
BRANCH   9  11
HETATM   11  O   UNK N   1      20.824  11.760  11.828  0.00  0.00    -0.776 OA
HETATM   12  H   UNK N   1      20.666  12.056  12.703  0.00  0.00     0.167 HD
ENDBRANCH   9  11
ENDBRANCH   8   9
ENDBRANCH   7   8
ENDBRANCH   1   7
TORSDOF 6
ENDMDL
MODEL 9
REMARK VINA RESULT:      -3.6     14.018     14.808
REMARK  6 active torsions:
REMARK  status: ('A' for Active; 'I' for Inactive)
REMARK    1  A    between atoms: N_1  and  C_2 
REMARK    2  A    between atoms: C_2  and  C_3 
REMARK    3  A    between atoms: C_3  and  C_4 
REMARK    4  A    between atoms: C_4  and  C_5 
REMARK    5  A    between atoms: C_5  and  C_6 
REMARK    6  A    between atoms: C_6  and  O_7 
ROOT
HETATM    1  C   UNK N   1      19.811  18.731   2.612  0.00  0.00     0.028 C 
ENDROOT
BRANCH   1   2
HETATM    2  C   UNK N   1      20.671  19.917   2.237  0.00  0.00     0.229 C 
BRANCH   2   3
HETATM    3  N   UNK N   1      20.536  20.185   0.819  0.00  0.00    -0.079 N 
HETATM    4  H   UNK N   1      20.728  19.448   0.140  0.00  0.00     0.274 HD
HETATM    5  H   UNK N   1      20.250  21.110   0.500  0.00  0.00     0.274 HD
HETATM    6  H   UNK N   1      20.441  20.374  -0.179  0.00  0.00     0.274 HD
ENDBRANCH   2   3
ENDBRANCH   1   2
BRANCH   1   7
HETATM    7  C   UNK N   1      20.662  17.490   2.511  0.00  0.00     0.012 C 
BRANCH   7   8
HETATM    8  C   UNK N   1      19.913  16.389   1.783  0.00  0.00     0.110 C 
BRANCH   8   9
HETATM    9  C   UNK N   1      19.579  16.788   0.375  0.00  0.00     0.139 C 
HETATM   10  O   UNK N   1      20.427  17.275  -0.358  0.00  0.00    -0.650 OA
BRANCH   9  11
HETATM   11  O   UNK N   1      18.328  16.607  -0.084  0.00  0.00    -0.776 OA
HETATM   12  H   UNK N   1      18.132  16.772  -0.985  0.00  0.00     0.167 HD
ENDBRANCH   9  11
ENDBRANCH   8   9
ENDBRANCH   7   8
ENDBRANCH   1   7
TORSDOF 6
ENDMDL
