MODEL 1
REMARK VINA RESULT:      -4.5      0.000      0.000
REMARK  2 active torsions:
REMARK  status: ('A' for Active; 'I' for Inactive)
REMARK    1  A    between atoms: C_2  and  C_3 
REMARK    2  A    between atoms: C_3  and  C_4 
ROOT
HETATM    1  C   UNK N   1      22.373  12.931   9.710  0.00  0.00    -0.052 A 
HETATM    2  C   UNK N   1      22.053  12.342  10.938  0.00  0.00     0.007 A 
HETATM    3  C   UNK N   1      23.069  11.890  11.788  0.00  0.00     0.001 A 
HETATM    4  C   UNK N   1      24.409  12.027  11.414  0.00  0.00     0.000 A 
HETATM    5  C   UNK N   1      24.735  12.615  10.189  0.00  0.00     0.001 A 
HETATM    6  C   UNK N   1      23.722  13.066   9.340  0.00  0.00     0.007 A 
ENDROOT
BRANCH   1   7
HETATM    7  C   UNK N   1      21.255  13.404   8.823  0.00  0.00     0.107 C 
BRANCH   7   8
HETATM    8  C   UNK N   1      20.421  14.482   9.440  0.00  0.00     0.235 C 
HETATM    9  O   UNK N   1      19.278  14.242   9.799  0.00  0.00    -0.307 OA
ENDBRANCH   7   8
ENDBRANCH   1   7
TORSDOF 2
ENDMDL
MODEL 2
REMARK VINA RESULT:      -4.4     14.620     15.485
REMARK  2 active torsions:
REMARK  status: ('A' for Active; 'I' for Inactive)
REMARK    1  A    between atoms: C_2  and  C_3 
REMARK    2  A    between atoms: C_3  and  C_4 
ROOT
HETATM    1  C   UNK N   1      35.412  12.731  17.062  0.00  0.00    -0.052 A 
HETATM    2  C   UNK N   1      35.605  11.351  17.194  0.00  0.00     0.007 A 
HETATM    3  C   UNK N   1      35.577  10.754  18.459  0.00  0.00     0.001 A 
HETATM    4  C   UNK N   1      35.357  11.534  19.598  0.00  0.00     0.000 A 
HETATM    5  C   UNK N   1      35.163  12.913  19.474  0.00  0.00     0.001 A 
HETATM    6  C   UNK N   1      35.191  13.510  18.211  0.00  0.00     0.007 A 
ENDROOT
BRANCH   1   7
HETATM    7  C   UNK N   1      35.448  13.337  15.687  0.00  0.00     0.107 C 
BRANCH   7   8
HETATM    8  C   UNK N   1      36.829  13.677  15.222  0.00  0.00     0.235 C 
HETATM    9  O   UNK N   1      37.407  14.650  15.682  0.00  0.00    -0.307 OA
ENDBRANCH   7   8
ENDBRANCH   1   7
TORSDOF 2
ENDMDL
MODEL 3
REMARK VINA RESULT:      -4.4     10.426     11.900
REMARK  2 active torsions:
REMARK  status: ('A' for Active; 'I' for Inactive)
REMARK    1  A    between atoms: C_2  and  C_3 
REMARK    2  A    between atoms: C_3  and  C_4 
ROOT
HETATM    1  C   UNK N   1      32.522  17.543   7.221  0.00  0.00    -0.052 A 
HETATM    2  C   UNK N   1      31.877  17.857   8.423  0.00  0.00     0.007 A 
HETATM    3  C   UNK N   1      30.493  17.691   8.543  0.00  0.00     0.001 A 
HETATM    4  C   UNK N   1      29.748  17.209   7.464  0.00  0.00     0.000 A 
HETATM    5  C   UNK N   1      30.385  16.893   6.261  0.00  0.00     0.001 A 
HETATM    6  C   UNK N   1      31.768  17.059   6.139  0.00  0.00     0.007 A 
ENDROOT
BRANCH   1   7
HETATM    7  C   UNK N   1      34.010  17.734   7.129  0.00  0.00     0.107 C 
BRANCH   7   8
HETATM    8  C   UNK N   1      34.636  18.174   8.415  0.00  0.00     0.235 C 
HETATM    9  O   UNK N   1      35.289  19.206   8.456  0.00  0.00    -0.307 OA
ENDBRANCH   7   8
ENDBRANCH   1   7
TORSDOF 2
ENDMDL
MODEL 4
REMARK VINA RESULT:      -4.3     13.899     14.813
REMARK  2 active torsions:
REMARK  status: ('A' for Active; 'I' for Inactive)
REMARK    1  A    between atoms: C_2  and  C_3 
REMARK    2  A    between atoms: C_3  and  C_4 
ROOT
HETATM    1  C   UNK N   1      35.653  12.265  16.564  0.00  0.00    -0.052 A 
HETATM    2  C   UNK N   1      35.716  11.127  17.375  0.00  0.00     0.007 A 
HETATM    3  C   UNK N   1      35.500  11.232  18.754  0.00  0.00     0.001 A 
HETATM    4  C   UNK N   1      35.220  12.476  19.327  0.00  0.00     0.000 A 
HETATM    5  C   UNK N   1      35.156  13.617  18.523  0.00  0.00     0.001 A 
HETATM    6  C   UNK N   1      35.371  13.513  17.146  0.00  0.00     0.007 A 
ENDROOT
BRANCH   1   7
HETATM    7  C   UNK N   1      35.890  12.114  15.087  0.00  0.00     0.107 C 
BRANCH   7   8
HETATM    8  C   UNK N   1      35.605  13.358  14.307  0.00  0.00     0.235 C 
HETATM    9  O   UNK N   1      34.687  13.379  13.502  0.00  0.00    -0.307 OA
ENDBRANCH   7   8
ENDBRANCH   1   7
TORSDOF 2
ENDMDL
MODEL 5
REMARK VINA RESULT:      -4.3     13.912     14.850
REMARK  2 active torsions:
REMARK  status: ('A' for Active; 'I' for Inactive)
REMARK    1  A    between atoms: C_2  and  C_3 
REMARK    2  A    between atoms: C_3  and  C_4 
ROOT
HETATM    1  C   UNK N   1      35.382  12.057  16.802  0.00  0.00    -0.052 A 
HETATM    2  C   UNK N   1      35.163  13.334  17.330  0.00  0.00     0.007 A 
HETATM    3  C   UNK N   1      35.143  13.529  18.716  0.00  0.00     0.001 A 
HETATM    4  C   UNK N   1      35.341  12.448  19.579  0.00  0.00     0.000 A 
HETATM    5  C   UNK N   1      35.560  11.170  19.059  0.00  0.00     0.001 A 
HETATM    6  C   UNK N   1      35.580  10.973  17.676  0.00  0.00     0.007 A 
ENDROOT
BRANCH   1   7
HETATM    7  C   UNK N   1      35.397  11.885  15.309  0.00  0.00     0.107 C 
BRANCH   7   8
HETATM    8  C   UNK N   1      35.530  13.175  14.562  0.00  0.00     0.235 C 
HETATM    9  O   UNK N   1      34.748  13.445  13.663  0.00  0.00    -0.307 OA
ENDBRANCH   7   8
ENDBRANCH   1   7
TORSDOF 2
ENDMDL
MODEL 6
REMARK VINA RESULT:      -4.3      2.501      3.772
REMARK  2 active torsions:
REMARK  status: ('A' for Active; 'I' for Inactive)
REMARK    1  A    between atoms: C_2  and  C_3 
REMARK    2  A    between atoms: C_3  and  C_4 
ROOT
HETATM    1  C   UNK N   1      22.119  12.150  10.771  0.00  0.00    -0.052 A 
HETATM    2  C   UNK N   1      21.231  13.077  10.215  0.00  0.00     0.007 A 
HETATM    3  C   UNK N   1      21.214  13.296   8.833  0.00  0.00     0.001 A 
HETATM    4  C   UNK N   1      22.086  12.588   8.001  0.00  0.00     0.000 A 
HETATM    5  C   UNK N   1      22.976  11.661   8.548  0.00  0.00     0.001 A 
HETATM    6  C   UNK N   1      22.994  11.441   9.928  0.00  0.00     0.007 A 
ENDROOT
BRANCH   1   7
HETATM    7  C   UNK N   1      22.108  11.941  12.259  0.00  0.00     0.107 C 
BRANCH   7   8
HETATM    8  C   UNK N   1      23.475  11.925  12.869  0.00  0.00     0.235 C 
HETATM    9  O   UNK N   1      23.638  12.320  14.013  0.00  0.00    -0.307 OA
ENDBRANCH   7   8
ENDBRANCH   1   7
TORSDOF 2
ENDMDL
MODEL 7
REMARK VINA RESULT:      -4.3     19.267     20.231
REMARK  2 active torsions:
REMARK  status: ('A' for Active; 'I' for Inactive)
REMARK    1  A    between atoms: C_2  and  C_3 
REMARK    2  A    between atoms: C_3  and  C_4 
ROOT
HETATM    1  C   UNK N   1      26.031  25.250  -4.860  0.00  0.00    -0.052 A 
HETATM    2  C   UNK N   1      26.475  25.859  -3.681  0.00  0.00     0.007 A 
HETATM    3  C   UNK N   1      26.152  27.193  -3.412  0.00  0.00     0.001 A 
HETATM    4  C   UNK N   1      25.382  27.924  -4.320  0.00  0.00     0.000 A 
HETATM    5  C   UNK N   1      24.934  27.323  -5.499  0.00  0.00     0.001 A 
HETATM    6  C   UNK N   1      25.257  25.991  -5.769  0.00  0.00     0.007 A 
ENDROOT
BRANCH   1   7
HETATM    7  C   UNK N   1      26.398  23.815  -5.115  0.00  0.00     0.107 C 
BRANCH   7   8
HETATM    8  C   UNK N   1      25.908  23.299  -6.431  0.00  0.00     0.235 C 
HETATM    9  O   UNK N   1      25.004  22.479  -6.469  0.00  0.00    -0.307 OA
ENDBRANCH   7   8
ENDBRANCH   1   7
TORSDOF 2
ENDMDL
MODEL 8
REMARK VINA RESULT:      -4.1      9.319     10.682
REMARK  2 active torsions:
REMARK  status: ('A' for Active; 'I' for Inactive)
REMARK    1  A    between atoms: C_2  and  C_3 
REMARK    2  A    between atoms: C_3  and  C_4 
ROOT
HETATM    1  C   UNK N   1      30.818  17.512   7.660  0.00  0.00    -0.052 A 
HETATM    2  C   UNK N   1      29.570  17.121   7.163  0.00  0.00     0.007 A 
HETATM    3  C   UNK N   1      28.400  17.451   7.857  0.00  0.00     0.001 A 
HETATM    4  C   UNK N   1      28.474  18.174   9.050  0.00  0.00     0.000 A 
HETATM    5  C   UNK N   1      29.717  18.568   9.553  0.00  0.00     0.001 A 
HETATM    6  C   UNK N   1      30.885  18.239   8.861  0.00  0.00     0.007 A 
ENDROOT
BRANCH   1   7
HETATM    7  C   UNK N   1      32.052  17.139   6.887  0.00  0.00     0.107 C 
BRANCH   7   8
HETATM    8  C   UNK N   1      33.290  17.825   7.374  0.00  0.00     0.235 C 
HETATM    9  O   UNK N   1      34.233  17.994   6.617  0.00  0.00    -0.307 OA
ENDBRANCH   7   8
ENDBRANCH   1   7
TORSDOF 2
ENDMDL
MODEL 9
REMARK VINA RESULT:      -4.1     17.976     19.101
REMARK  2 active torsions:
REMARK  status: ('A' for Active; 'I' for Inactive)
REMARK    1  A    between atoms: C_2  and  C_3 
REMARK    2  A    between atoms: C_3  and  C_4 
ROOT
HETATM    1  C   UNK N   1      28.395  23.894  -4.186  0.00  0.00    -0.052 A 
HETATM    2  C   UNK N   1      27.221  24.378  -3.599  0.00  0.00     0.007 A 
HETATM    3  C   UNK N   1      26.025  24.394  -4.326  0.00  0.00     0.001 A 
HETATM    4  C   UNK N   1      25.999  23.927  -5.643  0.00  0.00     0.000 A 
HETATM    5  C   UNK N   1      27.167  23.442  -6.235  0.00  0.00     0.001 A 
HETATM    6  C   UNK N   1      28.362  23.425  -5.511  0.00  0.00     0.007 A 
ENDROOT
BRANCH   1   7
HETATM    7  C   UNK N   1      29.660  23.892  -3.375  0.00  0.00     0.107 C 
BRANCH   7   8
HETATM    8  C   UNK N   1      29.581  23.039  -2.148  0.00  0.00     0.235 C 
HETATM    9  O   UNK N   1      30.542  22.952  -1.400  0.00  0.00    -0.307 OA
ENDBRANCH   7   8
ENDBRANCH   1   7
TORSDOF 2
ENDMDL
