MODEL 1
REMARK VINA RESULT:      -3.5      0.000      0.000
REMARK  3 active torsions:
REMARK  status: ('A' for Active; 'I' for Inactive)
REMARK    1  A    between atoms: C_2  and  O_3 
REMARK    2  A    between atoms: C_2  and  C_4 
REMARK    3  A    between atoms: C_4  and  O_6 
ROOT
HETATM    1  C   UNK N   1      23.253  11.927  13.182  0.00  0.00     0.042 C 
HETATM    2  C   UNK N   1      23.141  11.904  11.671  0.00  0.00     0.142 C 
ENDROOT
BRANCH   2   3
HETATM    3  O   UNK N   1      21.915  11.554  11.104  0.00  0.00    -0.393 OA
HETATM    4  H   UNK N   1      21.099  11.640  11.621  0.00  0.00     0.210 HD
ENDBRANCH   2   3
BRANCH   2   5
HETATM    5  C   UNK N   1      24.301  12.244  10.753  0.00  0.00     0.142 C 
HETATM    6  C   UNK N   1      24.262  12.011   9.257  0.00  0.00     0.042 C 
BRANCH   5   7
HETATM    7  O   UNK N   1      25.457  12.796  11.307  0.00  0.00    -0.393 OA
HETATM    8  H   UNK N   1      26.330  12.490  11.013  0.00  0.00     0.210 HD
ENDBRANCH   5   7
ENDBRANCH   2   5
TORSDOF 3
ENDMDL
MODEL 2
REMARK VINA RESULT:      -3.5      0.122      3.311
REMARK  3 active torsions:
REMARK  status: ('A' for Active; 'I' for Inactive)
REMARK    1  A    between atoms: C_2  and  O_3 
REMARK    2  A    between atoms: C_2  and  C_4 
REMARK    3  A    between atoms: C_4  and  O_6 
ROOT
HETATM    1  C   UNK N   1      24.311  12.219   9.214  0.00  0.00     0.042 C 
HETATM    2  C   UNK N   1      24.330  12.332  10.725  0.00  0.00     0.142 C 
ENDROOT
BRANCH   2   3
HETATM    3  O   UNK N   1      25.480  12.833  11.337  0.00  0.00    -0.393 OA
HETATM    4  H   UNK N   1      25.410  13.329  12.168  0.00  0.00     0.210 HD
ENDBRANCH   2   3
BRANCH   2   5
HETATM    5  C   UNK N   1      23.156  11.924  11.597  0.00  0.00     0.142 C 
HETATM    6  C   UNK N   1      23.232  11.877  13.110  0.00  0.00     0.042 C 
BRANCH   5   7
HETATM    7  O   UNK N   1      21.952  11.577  10.984  0.00  0.00    -0.393 OA
HETATM    8  H   UNK N   1      21.719  10.642  10.868  0.00  0.00     0.210 HD
ENDBRANCH   5   7
ENDBRANCH   2   5
TORSDOF 3
ENDMDL
MODEL 3
REMARK VINA RESULT:      -3.5     18.583     18.988
REMARK  3 active torsions:
REMARK  status: ('A' for Active; 'I' for Inactive)
REMARK    1  A    between atoms: C_2  and  O_3 
REMARK    2  A    between atoms: C_2  and  C_4 
REMARK    3  A    between atoms: C_4  and  O_6 
ROOT
HETATM    1  C   UNK N   1      30.858  24.085  -3.571  0.00  0.00     0.042 C 
HETATM    2  C   UNK N   1      30.910  22.920  -2.604  0.00  0.00     0.142 C 
ENDROOT
BRANCH   2   3
HETATM    3  O   UNK N   1      30.288  23.062  -1.363  0.00  0.00    -0.393 OA
HETATM    4  H   UNK N   1      30.221  22.302  -0.764  0.00  0.00     0.210 HD
ENDBRANCH   2   3
BRANCH   2   5
HETATM    5  C   UNK N   1      31.608  21.611  -2.926  0.00  0.00     0.142 C 
HETATM    6  C   UNK N   1      31.207  20.731  -4.092  0.00  0.00     0.042 C 
BRANCH   5   7
HETATM    7  O   UNK N   1      32.666  21.196  -2.116  0.00  0.00    -0.393 OA
HETATM    8  H   UNK N   1      33.121  21.836  -1.546  0.00  0.00     0.210 HD
ENDBRANCH   5   7
ENDBRANCH   2   5
TORSDOF 3
ENDMDL
MODEL 4
REMARK VINA RESULT:      -3.5     18.597     19.074
REMARK  3 active torsions:
REMARK  status: ('A' for Active; 'I' for Inactive)
REMARK    1  A    between atoms: C_2  and  O_3 
REMARK    2  A    between atoms: C_2  and  C_4 
REMARK    3  A    between atoms: C_4  and  O_6 
ROOT
HETATM    1  C   UNK N   1      31.315  20.749  -4.128  0.00  0.00     0.042 C 
HETATM    2  C   UNK N   1      31.650  21.606  -2.924  0.00  0.00     0.142 C 
ENDROOT
BRANCH   2   3
HETATM    3  O   UNK N   1      32.666  21.176  -2.068  0.00  0.00    -0.393 OA
HETATM    4  H   UNK N   1      33.296  20.500  -2.364  0.00  0.00     0.210 HD
ENDBRANCH   2   3
BRANCH   2   5
HETATM    5  C   UNK N   1      30.933  22.907  -2.612  0.00  0.00     0.142 C 
HETATM    6  C   UNK N   1      30.834  24.051  -3.600  0.00  0.00     0.042 C 
BRANCH   5   7
HETATM    7  O   UNK N   1      30.335  23.060  -1.360  0.00  0.00    -0.393 OA
HETATM    8  H   UNK N   1      30.524  22.425  -0.651  0.00  0.00     0.210 HD
ENDBRANCH   5   7
ENDBRANCH   2   5
TORSDOF 3
ENDMDL
MODEL 5
REMARK VINA RESULT:      -3.5     11.865     12.584
REMARK  3 active torsions:
REMARK  status: ('A' for Active; 'I' for Inactive)
REMARK    1  A    between atoms: C_2  and  O_3 
REMARK    2  A    between atoms: C_2  and  C_4 
REMARK    3  A    between atoms: C_4  and  O_6 
ROOT
HETATM    1  C   UNK N   1      34.032  15.681   9.425  0.00  0.00     0.042 C 
HETATM    2  C   UNK N   1      34.756  17.012   9.440  0.00  0.00     0.142 C 
ENDROOT
BRANCH   2   3
HETATM    3  O   UNK N   1      35.621  17.283  10.501  0.00  0.00    -0.393 OA
HETATM    4  H   UNK N   1      35.548  16.780  11.327  0.00  0.00     0.210 HD
ENDBRANCH   2   3
BRANCH   2   5
HETATM    5  C   UNK N   1      34.580  18.059   8.355  0.00  0.00     0.142 C 
HETATM    6  C   UNK N   1      33.679  17.856   7.154  0.00  0.00     0.042 C 
BRANCH   5   7
HETATM    7  O   UNK N   1      35.277  19.263   8.463  0.00  0.00    -0.393 OA
HETATM    8  H   UNK N   1      34.792  20.104   8.481  0.00  0.00     0.210 HD
ENDBRANCH   5   7
ENDBRANCH   2   5
TORSDOF 3
ENDMDL
MODEL 6
REMARK VINA RESULT:      -3.4     11.484     12.361
REMARK  3 active torsions:
REMARK  status: ('A' for Active; 'I' for Inactive)
REMARK    1  A    between atoms: C_2  and  O_3 
REMARK    2  A    between atoms: C_2  and  C_4 
REMARK    3  A    between atoms: C_4  and  O_6 
ROOT
HETATM    1  C   UNK N   1      20.485  17.181   2.343  0.00  0.00     0.042 C 
HETATM    2  C   UNK N   1      19.849  18.541   2.141  0.00  0.00     0.142 C 
ENDROOT
BRANCH   2   3
HETATM    3  O   UNK N   1      18.504  18.699   2.476  0.00  0.00    -0.393 OA
HETATM    4  H   UNK N   1      17.862  18.955   1.795  0.00  0.00     0.210 HD
ENDBRANCH   2   3
BRANCH   2   5
HETATM    5  C   UNK N   1      20.611  19.734   1.592  0.00  0.00     0.142 C 
HETATM    6  C   UNK N   1      21.315  20.740   2.479  0.00  0.00     0.042 C 
BRANCH   5   7
HETATM    7  O   UNK N   1      20.667  19.917   0.209  0.00  0.00    -0.393 OA
HETATM    8  H   UNK N   1      20.038  19.454  -0.367  0.00  0.00     0.210 HD
ENDBRANCH   5   7
ENDBRANCH   2   5
TORSDOF 3
ENDMDL
MODEL 7
REMARK VINA RESULT:      -3.4     23.490     24.145
REMARK  3 active torsions:
REMARK  status: ('A' for Active; 'I' for Inactive)
REMARK    1  A    between atoms: C_2  and  O_3 
REMARK    2  A    between atoms: C_2  and  C_4 
REMARK    3  A    between atoms: C_4  and  O_6 
ROOT
HETATM    1  C   UNK N   1      42.383  22.491   2.553  0.00  0.00     0.042 C 
HETATM    2  C   UNK N   1      43.536  22.795   3.488  0.00  0.00     0.142 C 
ENDROOT
BRANCH   2   3
HETATM    3  O   UNK N   1      43.522  24.004   4.185  0.00  0.00    -0.393 OA
HETATM    4  H   UNK N   1      42.727  24.559   4.177  0.00  0.00     0.210 HD
ENDBRANCH   2   3
BRANCH   2   5
HETATM    5  C   UNK N   1      44.700  21.843   3.698  0.00  0.00     0.142 C 
HETATM    6  C   UNK N   1      44.646  20.379   3.313  0.00  0.00     0.042 C 
BRANCH   5   7
HETATM    7  O   UNK N   1      45.874  22.334   4.272  0.00  0.00    -0.393 OA
HETATM    8  H   UNK N   1      46.365  23.048   3.835  0.00  0.00     0.210 HD
ENDBRANCH   5   7
ENDBRANCH   2   5
TORSDOF 3
ENDMDL
MODEL 8
REMARK VINA RESULT:      -3.4     11.963     12.851
REMARK  3 active torsions:
REMARK  status: ('A' for Active; 'I' for Inactive)
REMARK    1  A    between atoms: C_2  and  O_3 
REMARK    2  A    between atoms: C_2  and  C_4 
REMARK    3  A    between atoms: C_4  and  O_6 
ROOT
HETATM    1  C   UNK N   1      20.375  18.295   1.061  0.00  0.00     0.042 C 
HETATM    2  C   UNK N   1      20.707  19.765   1.214  0.00  0.00     0.142 C 
ENDROOT
BRANCH   2   3
HETATM    3  O   UNK N   1      20.665  20.575   0.078  0.00  0.00    -0.393 OA
HETATM    4  H   UNK N   1      19.867  21.091  -0.121  0.00  0.00     0.210 HD
ENDBRANCH   2   3
BRANCH   2   5
HETATM    5  C   UNK N   1      21.082  20.392   2.544  0.00  0.00     0.142 C 
HETATM    6  C   UNK N   1      20.953  19.659   3.864  0.00  0.00     0.042 C 
BRANCH   5   7
HETATM    7  O   UNK N   1      21.569  21.700   2.558  0.00  0.00    -0.393 OA
HETATM    8  H   UNK N   1      21.722  22.151   3.403  0.00  0.00     0.210 HD
ENDBRANCH   5   7
ENDBRANCH   2   5
TORSDOF 3
ENDMDL
MODEL 9
REMARK VINA RESULT:      -3.3     11.621     12.419
REMARK  3 active torsions:
REMARK  status: ('A' for Active; 'I' for Inactive)
REMARK    1  A    between atoms: C_2  and  O_3 
REMARK    2  A    between atoms: C_2  and  C_4 
REMARK    3  A    between atoms: C_4  and  O_6 
ROOT
HETATM    1  C   UNK N   1      22.827  19.467   3.500  0.00  0.00     0.042 C 
HETATM    2  C   UNK N   1      21.832  20.302   2.719  0.00  0.00     0.142 C 
ENDROOT
BRANCH   2   3
HETATM    3  O   UNK N   1      21.981  21.689   2.728  0.00  0.00    -0.393 OA
HETATM    4  H   UNK N   1      21.753  22.196   3.524  0.00  0.00     0.210 HD
ENDBRANCH   2   3
BRANCH   2   5
HETATM    5  C   UNK N   1      20.685  19.694   1.932  0.00  0.00     0.142 C 
HETATM    6  C   UNK N   1      19.553  18.929   2.585  0.00  0.00     0.042 C 
BRANCH   5   7
HETATM    7  O   UNK N   1      20.669  19.845   0.544  0.00  0.00    -0.393 OA
HETATM    8  H   UNK N   1      20.600  19.064  -0.028  0.00  0.00     0.210 HD
ENDBRANCH   5   7
ENDBRANCH   2   5
TORSDOF 3
ENDMDL
