MODEL 1
REMARK VINA RESULT:      -5.4      0.000      0.000
REMARK  7 active torsions:
REMARK  status: ('A' for Active; 'I' for Inactive)
REMARK       I    between atoms: C_2  and  N_4 
REMARK    1  A    between atoms: C_5  and  N_4 
REMARK    2  A    between atoms: C_5  and  C_6 
REMARK    3  A    between atoms: C_5  and  C_13 
REMARK    4  A    between atoms: C_6  and  C_7 
REMARK    5  A    between atoms: C_7  and  C_8 
REMARK    6  A    between atoms: C_8  and  N_9 
REMARK       I    between atoms: N_9  and  C_10 
REMARK       I    between atoms: C_10  and  N_11 
REMARK    7  A    between atoms: C_13  and  O_14 
ROOT
HETATM    1  C   UNK N   1      21.614  19.738   2.269  0.00  0.00     0.182 C 
ENDROOT
BRANCH   1   2
HETATM    2  N   UNK N   1      22.834  20.332   2.784  0.00  0.00    -0.347 N 
HETATM    3  C   UNK N   1      23.794  19.647   3.453  0.00  0.00     0.214 C 
HETATM    4  C   UNK N   1      24.980  20.376   3.980  0.00  0.00     0.117 C 
HETATM    5  O   UNK N   1      23.698  18.441   3.631  0.00  0.00    -0.274 OA
HETATM    6  H   UNK N   1      22.973  21.295   2.637  0.00  0.00     0.163 HD
ENDBRANCH   1   2
BRANCH   1   7
HETATM    7  C   UNK N   1      20.664  19.559   3.455  0.00  0.00     0.038 C 
BRANCH   7   8
HETATM    8  C   UNK N   1      19.703  18.393   3.306  0.00  0.00     0.022 C 
BRANCH   8   9
HETATM    9  C   UNK N   1      20.374  17.310   2.476  0.00  0.00     0.124 C 
BRANCH   9  10
HETATM   10  N   UNK N   1      19.404  16.614   1.666  0.00  0.00    -0.343 N 
HETATM   11  C   UNK N   1      19.452  16.608   0.313  0.00  0.00     0.313 C 
HETATM   12  N   UNK N   1      18.515  15.943  -0.385  0.00  0.00    -0.352 N 
HETATM   13  O   UNK N   1      20.343  17.202  -0.282  0.00  0.00    -0.248 OA
HETATM   14  H   UNK N   1      18.449  15.986  -1.367  0.00  0.00     0.160 HD
HETATM   15  H   UNK N   1      17.868  15.389   0.107  0.00  0.00     0.160 HD
HETATM   16  H   UNK N   1      18.678  16.125   2.116  0.00  0.00     0.164 HD
ENDBRANCH   9  10
ENDBRANCH   8   9
ENDBRANCH   7   8
ENDBRANCH   1   7
BRANCH   1  17
HETATM   17  C   UNK N   1      20.984  20.559   1.161  0.00  0.00     0.163 C 
HETATM   18  O   UNK N   1      20.784  21.755   1.301  0.00  0.00    -0.648 OA
BRANCH  17  19
HETATM   19  O   UNK N   1      20.668  19.972  -0.010  0.00  0.00    -0.775 OA
HETATM   20  H   UNK N   1      21.070  19.198  -0.355  0.00  0.00     0.167 HD
ENDBRANCH  17  19
ENDBRANCH   1  17
TORSDOF 7
ENDMDL
MODEL 2
REMARK VINA RESULT:      -5.2      7.912     10.342
REMARK  7 active torsions:
REMARK  status: ('A' for Active; 'I' for Inactive)
REMARK       I    between atoms: C_2  and  N_4 
REMARK    1  A    between atoms: C_5  and  N_4 
REMARK    2  A    between atoms: C_5  and  C_6 
REMARK    3  A    between atoms: C_5  and  C_13 
REMARK    4  A    between atoms: C_6  and  C_7 
REMARK    5  A    between atoms: C_7  and  C_8 
REMARK    6  A    between atoms: C_8  and  N_9 
REMARK       I    between atoms: N_9  and  C_10 
REMARK       I    between atoms: C_10  and  N_11 
REMARK    7  A    between atoms: C_13  and  O_14 
ROOT
HETATM    1  C   UNK N   1      29.515  17.985   7.959  0.00  0.00     0.182 C 
ENDROOT
BRANCH   1   2
HETATM    2  N   UNK N   1      30.411  16.855   8.119  0.00  0.00    -0.347 N 
HETATM    3  C   UNK N   1      31.753  16.961   8.285  0.00  0.00     0.214 C 
HETATM    4  C   UNK N   1      32.578  15.726   8.386  0.00  0.00     0.117 C 
HETATM    5  O   UNK N   1      32.294  18.056   8.351  0.00  0.00    -0.274 OA
HETATM    6  H   UNK N   1      30.020  15.952   8.105  0.00  0.00     0.163 HD
ENDBRANCH   1   2
BRANCH   1   7
HETATM    7  C   UNK N   1      28.506  17.611   6.871  0.00  0.00     0.038 C 
BRANCH   7   8
HETATM    8  C   UNK N   1      28.732  18.322   5.549  0.00  0.00     0.022 C 
BRANCH   8   9
HETATM    9  C   UNK N   1      27.518  19.186   5.247  0.00  0.00     0.124 C 
BRANCH   9  10
HETATM   10  N   UNK N   1      26.803  19.502   6.460  0.00  0.00    -0.343 N 
HETATM   11  C   UNK N   1      26.662  20.770   6.914  0.00  0.00     0.313 C 
HETATM   12  N   UNK N   1      25.987  20.998   8.054  0.00  0.00    -0.352 N 
HETATM   13  O   UNK N   1      27.142  21.712   6.296  0.00  0.00    -0.248 OA
HETATM   14  H   UNK N   1      25.937  21.886   8.478  0.00  0.00     0.160 HD
HETATM   15  H   UNK N   1      25.521  20.245   8.484  0.00  0.00     0.160 HD
HETATM   16  H   UNK N   1      26.403  18.767   6.977  0.00  0.00     0.164 HD
ENDBRANCH   9  10
ENDBRANCH   8   9
ENDBRANCH   7   8
ENDBRANCH   1   7
BRANCH   1  17
HETATM   17  C   UNK N   1      28.829  18.376   9.254  0.00  0.00     0.163 C 
HETATM   18  O   UNK N   1      29.476  18.720  10.230  0.00  0.00    -0.648 OA
BRANCH  17  19
HETATM   19  O   UNK N   1      27.483  18.375   9.324  0.00  0.00    -0.775 OA
HETATM   20  H   UNK N   1      26.906  18.737   8.679  0.00  0.00     0.167 HD
ENDBRANCH  17  19
ENDBRANCH   1  17
TORSDOF 7
ENDMDL
MODEL 3
REMARK VINA RESULT:      -5.1     12.630     15.988
REMARK  7 active torsions:
REMARK  status: ('A' for Active; 'I' for Inactive)
REMARK       I    between atoms: C_2  and  N_4 
REMARK    1  A    between atoms: C_5  and  N_4 
REMARK    2  A    between atoms: C_5  and  C_6 
REMARK    3  A    between atoms: C_5  and  C_13 
REMARK    4  A    between atoms: C_6  and  C_7 
REMARK    5  A    between atoms: C_7  and  C_8 
REMARK    6  A    between atoms: C_8  and  N_9 
REMARK       I    between atoms: N_9  and  C_10 
REMARK       I    between atoms: C_10  and  N_11 
REMARK    7  A    between atoms: C_13  and  O_14 
ROOT
HETATM    1  C   UNK N   1      33.377  17.479   8.660  0.00  0.00     0.182 C 
ENDROOT
BRANCH   1   2
HETATM    2  N   UNK N   1      32.170  17.173   7.914  0.00  0.00    -0.347 N 
HETATM    3  C   UNK N   1      30.946  17.683   8.200  0.00  0.00     0.214 C 
HETATM    4  C   UNK N   1      29.769  17.254   7.395  0.00  0.00     0.117 C 
HETATM    5  O   UNK N   1      30.796  18.486   9.109  0.00  0.00    -0.274 OA
HETATM    6  H   UNK N   1      32.244  16.555   7.152  0.00  0.00     0.163 HD
ENDBRANCH   1   2
BRANCH   1   7
HETATM    7  C   UNK N   1      33.953  16.149   9.151  0.00  0.00     0.038 C 
BRANCH   7   8
HETATM    8  C   UNK N   1      34.961  16.291  10.278  0.00  0.00     0.022 C 
BRANCH   8   9
HETATM    9  C   UNK N   1      34.698  15.205  11.308  0.00  0.00     0.124 C 
BRANCH   9  10
HETATM   10  N   UNK N   1      35.884  14.945  12.088  0.00  0.00    -0.343 N 
HETATM   11  C   UNK N   1      35.875  14.158  13.190  0.00  0.00     0.313 C 
HETATM   12  N   UNK N   1      37.014  13.958  13.875  0.00  0.00    -0.352 N 
HETATM   13  O   UNK N   1      34.840  13.624  13.567  0.00  0.00    -0.248 OA
HETATM   14  H   UNK N   1      37.044  13.475  14.734  0.00  0.00     0.160 HD
HETATM   15  H   UNK N   1      37.854  14.309  13.503  0.00  0.00     0.160 HD
HETATM   16  H   UNK N   1      36.732  15.357  11.807  0.00  0.00     0.164 HD
ENDBRANCH   9  10
ENDBRANCH   8   9
ENDBRANCH   7   8
ENDBRANCH   1   7
BRANCH   1  17
HETATM   17  C   UNK N   1      34.386  18.263   7.844  0.00  0.00     0.163 C 
HETATM   18  O   UNK N   1      34.551  18.032   6.657  0.00  0.00    -0.648 OA
BRANCH  17  19
HETATM   19  O   UNK N   1      35.092  19.253   8.426  0.00  0.00    -0.775 OA
HETATM   20  H   UNK N   1      34.902  19.636   9.261  0.00  0.00     0.167 HD
ENDBRANCH  17  19
ENDBRANCH   1  17
TORSDOF 7
ENDMDL
MODEL 4
REMARK VINA RESULT:      -5.1     10.653     13.685
REMARK  7 active torsions:
REMARK  status: ('A' for Active; 'I' for Inactive)
REMARK       I    between atoms: C_2  and  N_4 
REMARK    1  A    between atoms: C_5  and  N_4 
REMARK    2  A    between atoms: C_5  and  C_6 
REMARK    3  A    between atoms: C_5  and  C_13 
REMARK    4  A    between atoms: C_6  and  C_7 
REMARK    5  A    between atoms: C_7  and  C_8 
REMARK    6  A    between atoms: C_8  and  N_9 
REMARK       I    between atoms: N_9  and  C_10 
REMARK       I    between atoms: C_10  and  N_11 
REMARK    7  A    between atoms: C_13  and  O_14 
ROOT
HETATM    1  C   UNK N   1      33.821  16.996   8.628  0.00  0.00     0.182 C 
ENDROOT
BRANCH   1   2
HETATM    2  N   UNK N   1      34.395  16.896   9.957  0.00  0.00    -0.347 N 
HETATM    3  C   UNK N   1      35.310  15.964  10.325  0.00  0.00     0.214 C 
HETATM    4  C   UNK N   1      35.788  15.926  11.734  0.00  0.00     0.117 C 
HETATM    5  O   UNK N   1      35.744  15.156   9.518  0.00  0.00    -0.274 OA
HETATM    6  H   UNK N   1      34.101  17.545  10.635  0.00  0.00     0.163 HD
ENDBRANCH   1   2
BRANCH   1   7
HETATM    7  C   UNK N   1      32.313  17.182   8.800  0.00  0.00     0.038 C 
BRANCH   7   8
HETATM    8  C   UNK N   1      31.475  16.329   7.864  0.00  0.00     0.022 C 
BRANCH   8   9
HETATM    9  C   UNK N   1      30.509  17.233   7.115  0.00  0.00     0.124 C 
BRANCH   9  10
HETATM   10  N   UNK N   1      29.212  17.227   7.747  0.00  0.00    -0.343 N 
HETATM   11  C   UNK N   1      28.804  18.209   8.587  0.00  0.00     0.313 C 
HETATM   12  N   UNK N   1      27.584  18.143   9.146  0.00  0.00    -0.352 N 
HETATM   13  O   UNK N   1      29.536  19.157   8.839  0.00  0.00    -0.248 OA
HETATM   14  H   UNK N   1      27.277  18.777   9.835  0.00  0.00     0.160 HD
HETATM   15  H   UNK N   1      26.970  17.431   8.854  0.00  0.00     0.160 HD
HETATM   16  H   UNK N   1      28.599  16.480   7.560  0.00  0.00     0.164 HD
ENDBRANCH   9  10
ENDBRANCH   8   9
ENDBRANCH   7   8
ENDBRANCH   1   7
BRANCH   1  17
HETATM   17  C   UNK N   1      34.437  18.114   7.807  0.00  0.00     0.163 C 
HETATM   18  O   UNK N   1      34.341  18.127   6.591  0.00  0.00    -0.648 OA
BRANCH  17  19
HETATM   19  O   UNK N   1      35.073  19.127   8.428  0.00  0.00    -0.775 OA
HETATM   20  H   UNK N   1      35.828  19.575   8.100  0.00  0.00     0.167 HD
ENDBRANCH  17  19
ENDBRANCH   1  17
TORSDOF 7
ENDMDL
MODEL 5
REMARK VINA RESULT:      -5.0     11.563     13.543
REMARK  7 active torsions:
REMARK  status: ('A' for Active; 'I' for Inactive)
REMARK       I    between atoms: C_2  and  N_4 
REMARK    1  A    between atoms: C_5  and  N_4 
REMARK    2  A    between atoms: C_5  and  C_6 
REMARK    3  A    between atoms: C_5  and  C_13 
REMARK    4  A    between atoms: C_6  and  C_7 
REMARK    5  A    between atoms: C_7  and  C_8 
REMARK    6  A    between atoms: C_8  and  N_9 
REMARK       I    between atoms: N_9  and  C_10 
REMARK       I    between atoms: C_10  and  N_11 
REMARK    7  A    between atoms: C_13  and  O_14 
ROOT
HETATM    1  C   UNK N   1      33.361  17.263   8.495  0.00  0.00     0.182 C 
ENDROOT
BRANCH   1   2
HETATM    2  N   UNK N   1      33.846  16.895   9.812  0.00  0.00    -0.347 N 
HETATM    3  C   UNK N   1      34.677  15.851  10.056  0.00  0.00     0.214 C 
HETATM    4  C   UNK N   1      35.067  15.538  11.458  0.00  0.00     0.117 C 
HETATM    5  O   UNK N   1      35.109  15.164   9.141  0.00  0.00    -0.274 OA
HETATM    6  H   UNK N   1      33.553  17.438  10.579  0.00  0.00     0.163 HD
ENDBRANCH   1   2
BRANCH   1   7
HETATM    7  C   UNK N   1      31.998  17.933   8.687  0.00  0.00     0.038 C 
BRANCH   7   8
HETATM    8  C   UNK N   1      30.818  16.998   8.495  0.00  0.00     0.022 C 
BRANCH   8   9
HETATM    9  C   UNK N   1      31.007  16.235   7.194  0.00  0.00     0.124 C 
BRANCH   9  10
HETATM   10  N   UNK N   1      30.815  17.106   6.060  0.00  0.00    -0.343 N 
HETATM   11  C   UNK N   1      31.638  17.097   4.984  0.00  0.00     0.313 C 
HETATM   12  N   UNK N   1      31.406  17.937   3.961  0.00  0.00    -0.352 N 
HETATM   13  O   UNK N   1      32.590  16.329   4.934  0.00  0.00    -0.248 OA
HETATM   14  H   UNK N   1      32.026  18.039   3.202  0.00  0.00     0.160 HD
HETATM   15  H   UNK N   1      30.582  18.474   3.970  0.00  0.00     0.160 HD
HETATM   16  H   UNK N   1      30.055  17.732   6.069  0.00  0.00     0.164 HD
ENDBRANCH   9  10
ENDBRANCH   8   9
ENDBRANCH   7   8
ENDBRANCH   1   7
BRANCH   1  17
HETATM   17  C   UNK N   1      34.328  18.158   7.744  0.00  0.00     0.163 C 
HETATM   18  O   UNK N   1      34.922  19.059   8.312  0.00  0.00    -0.648 OA
BRANCH  17  19
HETATM   19  O   UNK N   1      34.562  17.938   6.435  0.00  0.00    -0.775 OA
HETATM   20  H   UNK N   1      34.440  18.565   5.749  0.00  0.00     0.167 HD
ENDBRANCH  17  19
ENDBRANCH   1  17
TORSDOF 7
ENDMDL
MODEL 6
REMARK VINA RESULT:      -4.9      3.066      3.970
REMARK  7 active torsions:
REMARK  status: ('A' for Active; 'I' for Inactive)
REMARK       I    between atoms: C_2  and  N_4 
REMARK    1  A    between atoms: C_5  and  N_4 
REMARK    2  A    between atoms: C_5  and  C_6 
REMARK    3  A    between atoms: C_5  and  C_13 
REMARK    4  A    between atoms: C_6  and  C_7 
REMARK    5  A    between atoms: C_7  and  C_8 
REMARK    6  A    between atoms: C_8  and  N_9 
REMARK       I    between atoms: N_9  and  C_10 
REMARK       I    between atoms: C_10  and  N_11 
REMARK    7  A    between atoms: C_13  and  O_14 
ROOT
HETATM    1  C   UNK N   1      24.837  19.320   3.796  0.00  0.00     0.182 C 
ENDROOT
BRANCH   1   2
HETATM    2  N   UNK N   1      25.175  19.750   5.140  0.00  0.00    -0.347 N 
HETATM    3  C   UNK N   1      26.299  20.437   5.463  0.00  0.00     0.214 C 
HETATM    4  C   UNK N   1      26.564  20.779   6.887  0.00  0.00     0.117 C 
HETATM    5  O   UNK N   1      27.097  20.777   4.601  0.00  0.00    -0.274 OA
HETATM    6  H   UNK N   1      24.547  19.529   5.865  0.00  0.00     0.163 HD
ENDBRANCH   1   2
BRANCH   1   7
HETATM    7  C   UNK N   1      23.706  18.298   3.920  0.00  0.00     0.038 C 
BRANCH   7   8
HETATM    8  C   UNK N   1      22.988  18.330   5.257  0.00  0.00     0.022 C 
BRANCH   8   9
HETATM    9  C   UNK N   1      21.507  18.573   5.010  0.00  0.00     0.124 C 
BRANCH   9  10
HETATM   10  N   UNK N   1      21.251  18.765   3.603  0.00  0.00    -0.343 N 
HETATM   11  C   UNK N   1      20.575  19.837   3.124  0.00  0.00     0.313 C 
HETATM   12  N   UNK N   1      20.367  19.956   1.801  0.00  0.00    -0.352 N 
HETATM   13  O   UNK N   1      20.155  20.699   3.884  0.00  0.00    -0.248 OA
HETATM   14  H   UNK N   1      19.801  20.662   1.410  0.00  0.00     0.160 HD
HETATM   15  H   UNK N   1      20.798  19.310   1.197  0.00  0.00     0.160 HD
HETATM   16  H   UNK N   1      21.580  18.089   2.967  0.00  0.00     0.164 HD
ENDBRANCH   9  10
ENDBRANCH   8   9
ENDBRANCH   7   8
ENDBRANCH   1   7
BRANCH   1  17
HETATM   17  C   UNK N   1      24.456  20.475   2.890  0.00  0.00     0.163 C 
HETATM   18  O   UNK N   1      23.362  21.008   2.977  0.00  0.00    -0.648 OA
BRANCH  17  19
HETATM   19  O   UNK N   1      25.348  20.945   1.995  0.00  0.00    -0.775 OA
HETATM   20  H   UNK N   1      25.342  21.807   1.625  0.00  0.00     0.167 HD
ENDBRANCH  17  19
ENDBRANCH   1  17
TORSDOF 7
ENDMDL
MODEL 7
REMARK VINA RESULT:      -4.9      7.483      8.938
REMARK  7 active torsions:
REMARK  status: ('A' for Active; 'I' for Inactive)
REMARK       I    between atoms: C_2  and  N_4 
REMARK    1  A    between atoms: C_5  and  N_4 
REMARK    2  A    between atoms: C_5  and  C_6 
REMARK    3  A    between atoms: C_5  and  C_13 
REMARK    4  A    between atoms: C_6  and  C_7 
REMARK    5  A    between atoms: C_7  and  C_8 
REMARK    6  A    between atoms: C_8  and  N_9 
REMARK       I    between atoms: N_9  and  C_10 
REMARK       I    between atoms: C_10  and  N_11 
REMARK    7  A    between atoms: C_13  and  O_14 
ROOT
HETATM    1  C   UNK N   1      19.545  16.253   8.173  0.00  0.00     0.182 C 
ENDROOT
BRANCH   1   2
HETATM    2  N   UNK N   1      19.886  16.343   6.765  0.00  0.00    -0.347 N 
HETATM    3  C   UNK N   1      19.008  16.135   5.752  0.00  0.00     0.214 C 
HETATM    4  C   UNK N   1      19.487  16.204   4.344  0.00  0.00     0.117 C 
HETATM    5  O   UNK N   1      17.833  15.889   5.979  0.00  0.00    -0.274 OA
HETATM    6  H   UNK N   1      20.814  16.570   6.530  0.00  0.00     0.163 HD
ENDBRANCH   1   2
BRANCH   1   7
HETATM    7  C   UNK N   1      20.712  15.556   8.876  0.00  0.00     0.038 C 
BRANCH   7   8
HETATM    8  C   UNK N   1      20.316  14.300   9.632  0.00  0.00     0.022 C 
BRANCH   8   9
HETATM    9  C   UNK N   1      21.328  13.207   9.328  0.00  0.00     0.124 C 
BRANCH   9  10
HETATM   10  N   UNK N   1      22.507  13.363  10.146  0.00  0.00    -0.343 N 
HETATM   11  C   UNK N   1      23.224  12.308  10.601  0.00  0.00     0.313 C 
HETATM   12  N   UNK N   1      24.312  12.520  11.362  0.00  0.00    -0.352 N 
HETATM   13  O   UNK N   1      22.892  11.163  10.324  0.00  0.00    -0.248 OA
HETATM   14  H   UNK N   1      24.811  11.791  11.797  0.00  0.00     0.160 HD
HETATM   15  H   UNK N   1      24.623  13.445  11.490  0.00  0.00     0.160 HD
HETATM   16  H   UNK N   1      22.801  14.272  10.382  0.00  0.00     0.164 HD
ENDBRANCH   9  10
ENDBRANCH   8   9
ENDBRANCH   7   8
ENDBRANCH   1   7
BRANCH   1  17
HETATM   17  C   UNK N   1      19.242  17.604   8.790  0.00  0.00     0.163 C 
HETATM   18  O   UNK N   1      20.114  18.449   8.915  0.00  0.00    -0.648 OA
BRANCH  17  19
HETATM   19  O   UNK N   1      17.984  17.895   9.179  0.00  0.00    -0.775 OA
HETATM   20  H   UNK N   1      17.616  18.756   9.224  0.00  0.00     0.167 HD
ENDBRANCH  17  19
ENDBRANCH   1  17
TORSDOF 7
ENDMDL
MODEL 8
REMARK VINA RESULT:      -4.8     12.651     15.878
REMARK  7 active torsions:
REMARK  status: ('A' for Active; 'I' for Inactive)
REMARK       I    between atoms: C_2  and  N_4 
REMARK    1  A    between atoms: C_5  and  N_4 
REMARK    2  A    between atoms: C_5  and  C_6 
REMARK    3  A    between atoms: C_5  and  C_13 
REMARK    4  A    between atoms: C_6  and  C_7 
REMARK    5  A    between atoms: C_7  and  C_8 
REMARK    6  A    between atoms: C_8  and  N_9 
REMARK       I    between atoms: N_9  and  C_10 
REMARK       I    between atoms: C_10  and  N_11 
REMARK    7  A    between atoms: C_13  and  O_14 
ROOT
HETATM    1  C   UNK N   1      34.083  16.863   7.936  0.00  0.00     0.182 C 
ENDROOT
BRANCH   1   2
HETATM    2  N   UNK N   1      33.995  17.180   6.523  0.00  0.00    -0.347 N 
HETATM    3  C   UNK N   1      32.830  17.336   5.846  0.00  0.00     0.214 C 
HETATM    4  C   UNK N   1      32.866  17.609   4.383  0.00  0.00     0.117 C 
HETATM    5  O   UNK N   1      31.754  17.253   6.419  0.00  0.00    -0.274 OA
HETATM    6  H   UNK N   1      34.836  17.289   6.023  0.00  0.00     0.163 HD
ENDBRANCH   1   2
BRANCH   1   7
HETATM    7  C   UNK N   1      34.758  15.494   8.051  0.00  0.00     0.038 C 
BRANCH   7   8
HETATM    8  C   UNK N   1      33.952  14.472   8.832  0.00  0.00     0.022 C 
BRANCH   8   9
HETATM    9  C   UNK N   1      34.907  13.630   9.663  0.00  0.00     0.124 C 
BRANCH   9  10
HETATM   10  N   UNK N   1      35.720  14.469  10.510  0.00  0.00    -0.343 N 
HETATM   11  C   UNK N   1      35.534  14.552  11.849  0.00  0.00     0.313 C 
HETATM   12  N   UNK N   1      36.324  15.355  12.582  0.00  0.00    -0.352 N 
HETATM   13  O   UNK N   1      34.655  13.902  12.398  0.00  0.00    -0.248 OA
HETATM   14  H   UNK N   1      36.171  15.526  13.540  0.00  0.00     0.160 HD
HETATM   15  H   UNK N   1      37.089  15.791  12.143  0.00  0.00     0.160 HD
HETATM   16  H   UNK N   1      36.438  15.001  10.097  0.00  0.00     0.164 HD
ENDBRANCH   9  10
ENDBRANCH   8   9
ENDBRANCH   7   8
ENDBRANCH   1   7
BRANCH   1  17
HETATM   17  C   UNK N   1      34.821  17.924   8.730  0.00  0.00     0.163 C 
HETATM   18  O   UNK N   1      34.944  19.059   8.300  0.00  0.00    -0.648 OA
BRANCH  17  19
HETATM   19  O   UNK N   1      35.322  17.622   9.944  0.00  0.00    -0.775 OA
HETATM   20  H   UNK N   1      36.175  17.858  10.253  0.00  0.00     0.167 HD
ENDBRANCH  17  19
ENDBRANCH   1  17
TORSDOF 7
ENDMDL
MODEL 9
REMARK VINA RESULT:      -4.6     10.855     14.064
REMARK  7 active torsions:
REMARK  status: ('A' for Active; 'I' for Inactive)
REMARK       I    between atoms: C_2  and  N_4 
REMARK    1  A    between atoms: C_5  and  N_4 
REMARK    2  A    between atoms: C_5  and  C_6 
REMARK    3  A    between atoms: C_5  and  C_13 
REMARK    4  A    between atoms: C_6  and  C_7 
REMARK    5  A    between atoms: C_7  and  C_8 
REMARK    6  A    between atoms: C_8  and  N_9 
REMARK       I    between atoms: N_9  and  C_10 
REMARK       I    between atoms: C_10  and  N_11 
REMARK    7  A    between atoms: C_13  and  O_14 
ROOT
HETATM    1  C   UNK N   1      34.141  16.333   8.741  0.00  0.00     0.182 C 
ENDROOT
BRANCH   1   2
HETATM    2  N   UNK N   1      34.892  15.370   7.957  0.00  0.00    -0.347 N 
HETATM    3  C   UNK N   1      35.141  15.493   6.630  0.00  0.00     0.214 C 
HETATM    4  C   UNK N   1      35.880  14.412   5.921  0.00  0.00     0.117 C 
HETATM    5  O   UNK N   1      34.767  16.477   6.008  0.00  0.00    -0.274 OA
HETATM    6  H   UNK N   1      35.243  14.575   8.419  0.00  0.00     0.163 HD
ENDBRANCH   1   2
BRANCH   1   7
HETATM    7  C   UNK N   1      32.750  15.740   8.972  0.00  0.00     0.038 C 
BRANCH   7   8
HETATM    8  C   UNK N   1      31.659  16.376   8.129  0.00  0.00     0.022 C 
BRANCH   8   9
HETATM    9  C   UNK N   1      31.435  17.799   8.613  0.00  0.00     0.124 C 
BRANCH   9  10
HETATM   10  N   UNK N   1      30.148  17.922   9.254  0.00  0.00    -0.343 N 
HETATM   11  C   UNK N   1      29.020  18.237   8.572  0.00  0.00     0.313 C 
HETATM   12  N   UNK N   1      27.852  18.339   9.229  0.00  0.00    -0.352 N 
HETATM   13  O   UNK N   1      29.055  18.427   7.363  0.00  0.00    -0.248 OA
HETATM   14  H   UNK N   1      27.024  18.658   8.800  0.00  0.00     0.160 HD
HETATM   15  H   UNK N   1      27.822  18.084  10.178  0.00  0.00     0.160 HD
HETATM   16  H   UNK N   1      30.088  17.772  10.225  0.00  0.00     0.164 HD
ENDBRANCH   9  10
ENDBRANCH   8   9
ENDBRANCH   7   8
ENDBRANCH   1   7
BRANCH   1  17
HETATM   17  C   UNK N   1      34.827  16.689  10.046  0.00  0.00     0.163 C 
HETATM   18  O   UNK N   1      35.550  17.668  10.130  0.00  0.00    -0.648 OA
BRANCH  17  19
HETATM   19  O   UNK N   1      34.612  15.933  11.141  0.00  0.00    -0.775 OA
HETATM   20  H   UNK N   1      34.742  16.213  12.027  0.00  0.00     0.167 HD
ENDBRANCH  17  19
ENDBRANCH   1  17
TORSDOF 7
ENDMDL
