REMARK  7 active torsions:
REMARK  status: ('A' for Active; 'I' for Inactive)
REMARK    1  A    between atoms: C_2  and  C_3 
REMARK    2  A    between atoms: C_3  and  C_4 
REMARK    3  A    between atoms: C_4  and  C_5 
REMARK    4  A    between atoms: C_5  and  N_6 
REMARK    5  A    between atoms: C_5  and  P_7 
REMARK    6  A    between atoms: P_7  and  O_8 
REMARK    7  A    between atoms: P_7  and  O_9 
ROOT
HETATM    1  C   UNK N   1       4.641  -2.377  -0.151  0.00  0.00     0.186 C 
ENDROOT
BRANCH   1   2
HETATM    2  C   UNK N   1       3.419  -1.934   0.636  0.00  0.00     0.037 C 
BRANCH   2   3
HETATM    3  C   UNK N   1       2.594  -0.967  -0.199  0.00  0.00     0.002 C 
BRANCH   3   4
HETATM    4  C   UNK N   1       1.196  -0.821   0.370  0.00  0.00    -0.004 C 
HETATM    5  C   UNK N   1       0.329  -1.985  -0.071  0.00  0.00     0.005 C 
ENDBRANCH   3   4
ENDBRANCH   2   3
ENDBRANCH   1   2
BRANCH   1   6
HETATM    6  N   UNK N   1       5.213  -3.561   0.466  0.00  0.00    -0.417 N 
HETATM    7  H   UNK N   1       4.695  -4.324   0.899  0.00  0.00     0.150 HD
HETATM    8  H   UNK N   1       6.231  -3.635   0.466  0.00  0.00     0.150 HD
ENDBRANCH   1   6
BRANCH   1   9
HETATM    9  P   UNK N   1       5.942  -1.043  -0.233  0.00  0.00     0.258 P 
HETATM   10  O   UNK N   1       5.342   0.292  -0.755  0.00  0.00    -0.652 OA
BRANCH   9  11
HETATM   11  O   UNK N   1       6.677  -0.619   1.280  0.00  0.00    -0.328 OA
HETATM   12  H   UNK N   1       7.088  -0.856   2.127  0.00  0.00     0.220 HD
ENDBRANCH   9  11
BRANCH   9  13
HETATM   13  O   UNK N   1       7.233  -1.378  -1.344  0.00  0.00    -0.328 OA
HETATM   14  H   UNK N   1       7.431  -2.096  -1.964  0.00  0.00     0.220 HD
ENDBRANCH   9  13
ENDBRANCH   1   9
TORSDOF 7
