MODEL 1
REMARK VINA RESULT:      -5.3      0.000      0.000
REMARK  9 active torsions:
REMARK  status: ('A' for Active; 'I' for Inactive)
REMARK    1  A    between atoms: O_1  and  C_2 
REMARK    2  A    between atoms: C_3  and  C_2 
REMARK    3  A    between atoms: C_5  and  O_6 
REMARK    4  A    between atoms: O_6  and  P_7 
REMARK    5  A    between atoms: P_7  and  O_8 
REMARK    6  A    between atoms: P_7  and  O_9 
REMARK    7  A    between atoms: C_11  and  O_12 
REMARK    8  A    between atoms: C_13  and  O_14 
REMARK    9  A    between atoms: C_15  and  O_16 
ROOT
HETATM    1  C   UNK N   1      36.951  14.276  10.018  0.00  0.00     0.179 C 
HETATM    2  O   UNK N   1      36.591  15.611  10.249  0.00  0.00    -0.348 OA
HETATM    3  C   UNK N   1      35.195  15.699  10.093  0.00  0.00     0.303 C 
HETATM    4  C   UNK N   1      34.521  15.010  11.287  0.00  0.00     0.205 C 
HETATM    5  C   UNK N   1      34.972  13.548  11.329  0.00  0.00     0.183 C 
HETATM    6  C   UNK N   1      36.496  13.439  11.225  0.00  0.00     0.180 C 
ENDROOT
BRANCH   3   7
HETATM    7  O   UNK N   1      34.831  17.051  10.038  0.00  0.00    -0.263 OA
BRANCH   7   8
HETATM    8  P   UNK N   1      34.446  17.376   8.369  0.00  0.00     0.393 P 
HETATM    9  O   UNK N   1      35.164  18.695   8.767  0.00  0.00    -0.631 OA
BRANCH   8  10
HETATM   10  O   UNK N   1      33.300  18.604   7.932  0.00  0.00    -0.307 OA
HETATM   11  H   UNK N   1      32.377  18.394   7.718  0.00  0.00     0.222 HD
ENDBRANCH   8  10
BRANCH   8  12
HETATM   12  O   UNK N   1      32.985  17.227   9.294  0.00  0.00    -0.307 OA
HETATM   13  H   UNK N   1      32.953  17.115  10.258  0.00  0.00     0.222 HD
ENDBRANCH   8  12
ENDBRANCH   7   8
ENDBRANCH   3   7
BRANCH   4  14
HETATM   14  O   UNK N   1      33.132  15.069  11.160  0.00  0.00    -0.388 OA
HETATM   15  H   UNK N   1      32.593  14.697  10.444  0.00  0.00     0.210 HD
ENDBRANCH   4  14
BRANCH   1  16
HETATM   16  C   UNK N   1      38.458  14.218   9.817  0.00  0.00     0.198 C 
BRANCH  16  17
HETATM   17  O   UNK N   1      38.823  13.025   9.191  0.00  0.00    -0.398 OA
HETATM   18  H   UNK N   1      38.373  12.172   9.090  0.00  0.00     0.209 HD
ENDBRANCH  16  17
ENDBRANCH   1  16
BRANCH   5  19
HETATM   19  O   UNK N   1      34.528  12.940  12.504  0.00  0.00    -0.390 OA
HETATM   20  H   UNK N   1      33.893  12.206  12.514  0.00  0.00     0.210 HD
ENDBRANCH   5  19
BRANCH   6  21
HETATM   21  O   UNK N   1      36.853  12.099  11.067  0.00  0.00    -0.390 OA
HETATM   22  H   UNK N   1      36.630  11.361  11.655  0.00  0.00     0.210 HD
ENDBRANCH   6  21
TORSDOF 9
ENDMDL
MODEL 2
REMARK VINA RESULT:      -5.3     11.903     13.427
REMARK  9 active torsions:
REMARK  status: ('A' for Active; 'I' for Inactive)
REMARK    1  A    between atoms: O_1  and  C_2 
REMARK    2  A    between atoms: C_3  and  C_2 
REMARK    3  A    between atoms: C_5  and  O_6 
REMARK    4  A    between atoms: O_6  and  P_7 
REMARK    5  A    between atoms: P_7  and  O_8 
REMARK    6  A    between atoms: P_7  and  O_9 
REMARK    7  A    between atoms: C_11  and  O_12 
REMARK    8  A    between atoms: C_13  and  O_14 
REMARK    9  A    between atoms: C_15  and  O_16 
ROOT
HETATM    1  C   UNK N   1      23.797  12.457   9.066  0.00  0.00     0.179 C 
HETATM    2  O   UNK N   1      22.580  13.143   8.957  0.00  0.00    -0.348 OA
HETATM    3  C   UNK N   1      21.615  12.394   9.656  0.00  0.00     0.303 C 
HETATM    4  C   UNK N   1      21.884  12.527  11.162  0.00  0.00     0.205 C 
HETATM    5  C   UNK N   1      23.294  12.007  11.456  0.00  0.00     0.183 C 
HETATM    6  C   UNK N   1      24.319  12.628  10.503  0.00  0.00     0.180 C 
ENDROOT
BRANCH   3   7
HETATM    7  O   UNK N   1      20.343  12.890   9.341  0.00  0.00    -0.263 OA
BRANCH   7   8
HETATM    8  P   UNK N   1      20.560  14.588   9.009  0.00  0.00     0.393 P 
HETATM    9  O   UNK N   1      19.206  14.608   9.770  0.00  0.00    -0.631 OA
BRANCH   8  10
HETATM   10  O   UNK N   1      19.503  15.436   7.923  0.00  0.00    -0.307 OA
HETATM   11  H   UNK N   1      18.948  16.174   8.218  0.00  0.00     0.222 HD
ENDBRANCH   8  10
BRANCH   8  12
HETATM   12  O   UNK N   1      20.359  13.715   7.522  0.00  0.00    -0.307 OA
HETATM   13  H   UNK N   1      20.644  14.038   6.652  0.00  0.00     0.222 HD
ENDBRANCH   8  12
ENDBRANCH   7   8
ENDBRANCH   3   7
BRANCH   4  14
HETATM   14  O   UNK N   1      20.950  11.786  11.888  0.00  0.00    -0.388 OA
HETATM   15  H   UNK N   1      20.682  10.867  11.732  0.00  0.00     0.210 HD
ENDBRANCH   4  14
BRANCH   1  16
HETATM   16  C   UNK N   1      24.760  13.028   8.035  0.00  0.00     0.198 C 
BRANCH  16  17
HETATM   17  O   UNK N   1      25.516  14.059   8.591  0.00  0.00    -0.398 OA
HETATM   18  H   UNK N   1      25.413  15.024   8.590  0.00  0.00     0.209 HD
ENDBRANCH  16  17
ENDBRANCH   1  16
BRANCH   5  19
HETATM   19  O   UNK N   1      23.642  12.282  12.779  0.00  0.00    -0.390 OA
HETATM   20  H   UNK N   1      23.434  13.122  13.219  0.00  0.00     0.210 HD
ENDBRANCH   5  19
BRANCH   6  21
HETATM   21  O   UNK N   1      25.548  11.988  10.667  0.00  0.00    -0.390 OA
HETATM   22  H   UNK N   1      25.774  11.316  11.328  0.00  0.00     0.210 HD
ENDBRANCH   6  21
TORSDOF 9
ENDMDL
MODEL 3
REMARK VINA RESULT:      -5.2      4.939      7.666
REMARK  9 active torsions:
REMARK  status: ('A' for Active; 'I' for Inactive)
REMARK    1  A    between atoms: O_1  and  C_2 
REMARK    2  A    between atoms: C_3  and  C_2 
REMARK    3  A    between atoms: C_5  and  O_6 
REMARK    4  A    between atoms: O_6  and  P_7 
REMARK    5  A    between atoms: P_7  and  O_8 
REMARK    6  A    between atoms: P_7  and  O_9 
REMARK    7  A    between atoms: C_11  and  O_12 
REMARK    8  A    between atoms: C_13  and  O_14 
REMARK    9  A    between atoms: C_15  and  O_16 
ROOT
HETATM    1  C   UNK N   1      29.447  17.500   8.141  0.00  0.00     0.179 C 
HETATM    2  O   UNK N   1      30.845  17.591   8.187  0.00  0.00    -0.348 OA
HETATM    3  C   UNK N   1      31.353  16.667   7.255  0.00  0.00     0.303 C 
HETATM    4  C   UNK N   1      31.079  17.193   5.840  0.00  0.00     0.205 C 
HETATM    5  C   UNK N   1      29.568  17.366   5.665  0.00  0.00     0.183 C 
HETATM    6  C   UNK N   1      28.966  18.150   6.833  0.00  0.00     0.180 C 
ENDROOT
BRANCH   3   7
HETATM    7  O   UNK N   1      32.732  16.525   7.466  0.00  0.00    -0.263 OA
BRANCH   7   8
HETATM    8  P   UNK N   1      33.303  18.094   7.966  0.00  0.00     0.393 P 
HETATM    9  O   UNK N   1      34.353  17.731   6.880  0.00  0.00    -0.631 OA
BRANCH   8  10
HETATM   10  O   UNK N   1      34.818  18.279   8.795  0.00  0.00    -0.307 OA
HETATM   11  H   UNK N   1      35.089  17.682   9.509  0.00  0.00     0.222 HD
ENDBRANCH   8  10
BRANCH   8  12
HETATM   12  O   UNK N   1      33.439  16.969   9.280  0.00  0.00    -0.307 OA
HETATM   13  H   UNK N   1      34.163  16.331   9.386  0.00  0.00     0.222 HD
ENDBRANCH   8  12
ENDBRANCH   7   8
ENDBRANCH   3   7
BRANCH   4  14
HETATM   14  O   UNK N   1      31.562  16.294   4.887  0.00  0.00    -0.388 OA
HETATM   15  H   UNK N   1      32.483  16.171   4.610  0.00  0.00     0.210 HD
ENDBRANCH   4  14
BRANCH   1  16
HETATM   16  C   UNK N   1      28.884  18.200   9.370  0.00  0.00     0.198 C 
BRANCH  16  17
HETATM   17  O   UNK N   1      27.503  18.020   9.445  0.00  0.00    -0.398 OA
HETATM   18  H   UNK N   1      26.834  17.779   8.785  0.00  0.00     0.209 HD
ENDBRANCH  16  17
ENDBRANCH   1  16
BRANCH   5  19
HETATM   19  O   UNK N   1      29.294  18.015   4.460  0.00  0.00    -0.390 OA
HETATM   20  H   UNK N   1      29.545  18.936   4.285  0.00  0.00     0.210 HD
ENDBRANCH   5  19
BRANCH   6  21
HETATM   21  O   UNK N   1      27.573  18.117   6.743  0.00  0.00    -0.390 OA
HETATM   22  H   UNK N   1      27.015  18.619   6.129  0.00  0.00     0.210 HD
ENDBRANCH   6  21
TORSDOF 9
ENDMDL
MODEL 4
REMARK VINA RESULT:      -5.1     16.888     17.653
REMARK  9 active torsions:
REMARK  status: ('A' for Active; 'I' for Inactive)
REMARK    1  A    between atoms: O_1  and  C_2 
REMARK    2  A    between atoms: C_3  and  C_2 
REMARK    3  A    between atoms: C_5  and  O_6 
REMARK    4  A    between atoms: O_6  and  P_7 
REMARK    5  A    between atoms: P_7  and  O_8 
REMARK    6  A    between atoms: P_7  and  O_9 
REMARK    7  A    between atoms: C_11  and  O_12 
REMARK    8  A    between atoms: C_13  and  O_14 
REMARK    9  A    between atoms: C_15  and  O_16 
ROOT
HETATM    1  C   UNK N   1      20.019  15.923   3.732  0.00  0.00     0.179 C 
HETATM    2  O   UNK N   1      19.453  17.190   3.537  0.00  0.00    -0.348 OA
HETATM    3  C   UNK N   1      20.125  17.783   2.452  0.00  0.00     0.303 C 
HETATM    4  C   UNK N   1      19.692  17.076   1.160  0.00  0.00     0.205 C 
HETATM    5  C   UNK N   1      20.046  15.591   1.271  0.00  0.00     0.183 C 
HETATM    6  C   UNK N   1      19.545  15.004   2.594  0.00  0.00     0.180 C 
ENDROOT
BRANCH   3   7
HETATM    7  O   UNK N   1      19.788  19.143   2.401  0.00  0.00    -0.263 OA
BRANCH   7   8
HETATM    8  P   UNK N   1      21.267  20.013   2.713  0.00  0.00     0.393 P 
HETATM    9  O   UNK N   1      20.359  20.556   3.852  0.00  0.00    -0.631 OA
BRANCH   8  10
HETATM   10  O   UNK N   1      21.358  21.735   2.511  0.00  0.00    -0.307 OA
HETATM   11  H   UNK N   1      21.684  22.140   1.693  0.00  0.00     0.222 HD
ENDBRANCH   8  10
BRANCH   8  12
HETATM   12  O   UNK N   1      20.605  20.500   1.184  0.00  0.00    -0.307 OA
HETATM   13  H   UNK N   1      19.870  20.053   0.735  0.00  0.00     0.222 HD
ENDBRANCH   8  12
ENDBRANCH   7   8
ENDBRANCH   3   7
BRANCH   4  14
HETATM   14  O   UNK N   1      20.348  17.633   0.060  0.00  0.00    -0.388 OA
HETATM   15  H   UNK N   1      20.831  18.474   0.030  0.00  0.00     0.210 HD
ENDBRANCH   4  14
BRANCH   1  16
HETATM   16  C   UNK N   1      19.585  15.412   5.098  0.00  0.00     0.198 C 
BRANCH  16  17
HETATM   17  O   UNK N   1      18.361  14.750   5.007  0.00  0.00    -0.398 OA
HETATM   18  H   UNK N   1      17.689  14.517   5.666  0.00  0.00     0.209 HD
ENDBRANCH  16  17
ENDBRANCH   1  16
BRANCH   5  19
HETATM   19  O   UNK N   1      19.504  14.884   0.197  0.00  0.00    -0.390 OA
HETATM   20  H   UNK N   1      19.267  13.944   0.246  0.00  0.00     0.210 HD
ENDBRANCH   5  19
BRANCH   6  21
HETATM   21  O   UNK N   1      20.054  13.714   2.748  0.00  0.00    -0.390 OA
HETATM   22  H   UNK N   1      20.215  13.061   2.050  0.00  0.00     0.210 HD
ENDBRANCH   6  21
TORSDOF 9
ENDMDL
MODEL 5
REMARK VINA RESULT:      -5.0     14.609     16.851
REMARK  9 active torsions:
REMARK  status: ('A' for Active; 'I' for Inactive)
REMARK    1  A    between atoms: O_1  and  C_2 
REMARK    2  A    between atoms: C_3  and  C_2 
REMARK    3  A    between atoms: C_5  and  O_6 
REMARK    4  A    between atoms: O_6  and  P_7 
REMARK    5  A    between atoms: P_7  and  O_8 
REMARK    6  A    between atoms: P_7  and  O_9 
REMARK    7  A    between atoms: C_11  and  O_12 
REMARK    8  A    between atoms: C_13  and  O_14 
REMARK    9  A    between atoms: C_15  and  O_16 
ROOT
HETATM    1  C   UNK N   1      22.339  19.112   3.787  0.00  0.00     0.179 C 
HETATM    2  O   UNK N   1      21.942  17.806   3.465  0.00  0.00    -0.348 OA
HETATM    3  C   UNK N   1      20.539  17.764   3.554  0.00  0.00     0.303 C 
HETATM    4  C   UNK N   1      19.947  18.542   2.370  0.00  0.00     0.205 C 
HETATM    5  C   UNK N   1      20.451  19.986   2.431  0.00  0.00     0.183 C 
HETATM    6  C   UNK N   1      21.971  20.030   2.610  0.00  0.00     0.180 C 
ENDROOT
BRANCH   3   7
HETATM    7  O   UNK N   1      20.124  16.426   3.516  0.00  0.00    -0.263 OA
BRANCH   7   8
HETATM    8  P   UNK N   1      20.096  15.886   5.174  0.00  0.00     0.393 P 
HETATM    9  O   UNK N   1      20.548  14.588   4.450  0.00  0.00    -0.631 OA
BRANCH   8  10
HETATM   10  O   UNK N   1      18.947  14.704   5.717  0.00  0.00    -0.307 OA
HETATM   11  H   UNK N   1      18.058  14.951   6.017  0.00  0.00     0.222 HD
ENDBRANCH   8  10
BRANCH   8  12
HETATM   12  O   UNK N   1      18.489  16.291   4.656  0.00  0.00    -0.307 OA
HETATM   13  H   UNK N   1      18.193  17.188   4.431  0.00  0.00     0.222 HD
ENDBRANCH   8  12
ENDBRANCH   7   8
ENDBRANCH   3   7
BRANCH   4  14
HETATM   14  O   UNK N   1      18.552  18.530   2.432  0.00  0.00    -0.388 OA
HETATM   15  H   UNK N   1      17.941  19.143   1.994  0.00  0.00     0.210 HD
ENDBRANCH   4  14
BRANCH   1  16
HETATM   16  C   UNK N   1      23.836  19.102   4.059  0.00  0.00     0.198 C 
BRANCH  16  17
HETATM   17  O   UNK N   1      24.108  18.479   5.277  0.00  0.00    -0.398 OA
HETATM   18  H   UNK N   1      23.928  18.727   6.197  0.00  0.00     0.209 HD
ENDBRANCH  16  17
ENDBRANCH   1  16
BRANCH   5  19
HETATM   19  O   UNK N   1      20.085  20.673   1.273  0.00  0.00    -0.390 OA
HETATM   20  H   UNK N   1      20.153  21.638   1.185  0.00  0.00     0.210 HD
ENDBRANCH   5  19
BRANCH   6  21
HETATM   21  O   UNK N   1      22.369  21.345   2.858  0.00  0.00    -0.390 OA
HETATM   22  H   UNK N   1      23.183  21.776   2.558  0.00  0.00     0.210 HD
ENDBRANCH   6  21
TORSDOF 9
ENDMDL
MODEL 6
REMARK VINA RESULT:      -5.0     14.164     16.468
REMARK  9 active torsions:
REMARK  status: ('A' for Active; 'I' for Inactive)
REMARK    1  A    between atoms: O_1  and  C_2 
REMARK    2  A    between atoms: C_3  and  C_2 
REMARK    3  A    between atoms: C_5  and  O_6 
REMARK    4  A    between atoms: O_6  and  P_7 
REMARK    5  A    between atoms: P_7  and  O_8 
REMARK    6  A    between atoms: P_7  and  O_9 
REMARK    7  A    between atoms: C_11  and  O_12 
REMARK    8  A    between atoms: C_13  and  O_14 
REMARK    9  A    between atoms: C_15  and  O_16 
ROOT
HETATM    1  C   UNK N   1      21.601  19.608   3.328  0.00  0.00     0.179 C 
HETATM    2  O   UNK N   1      22.076  18.411   3.883  0.00  0.00    -0.348 OA
HETATM    3  C   UNK N   1      20.999  17.812   4.563  0.00  0.00     0.303 C 
HETATM    4  C   UNK N   1      20.002  17.271   3.530  0.00  0.00     0.205 C 
HETATM    5  C   UNK N   1      19.516  18.434   2.661  0.00  0.00     0.183 C 
HETATM    6  C   UNK N   1      20.695  19.258   2.135  0.00  0.00     0.180 C 
ENDROOT
BRANCH   3   7
HETATM    7  O   UNK N   1      21.493  16.769   5.359  0.00  0.00    -0.263 OA
BRANCH   7   8
HETATM    8  P   UNK N   1      22.887  16.145   4.519  0.00  0.00     0.393 P 
HETATM    9  O   UNK N   1      22.173  14.826   4.926  0.00  0.00    -0.631 OA
BRANCH   8  10
HETATM   10  O   UNK N   1      24.124  15.263   5.359  0.00  0.00    -0.307 OA
HETATM   11  H   UNK N   1      25.062  15.499   5.288  0.00  0.00     0.222 HD
ENDBRANCH   8  10
BRANCH   8  12
HETATM   12  O   UNK N   1      23.388  16.982   5.955  0.00  0.00    -0.307 OA
HETATM   13  H   UNK N   1      22.886  16.997   6.786  0.00  0.00     0.222 HD
ENDBRANCH   8  12
ENDBRANCH   7   8
ENDBRANCH   3   7
BRANCH   4  14
HETATM   14  O   UNK N   1      18.913  16.678   4.171  0.00  0.00    -0.388 OA
HETATM   15  H   UNK N   1      18.913  15.854   4.683  0.00  0.00     0.210 HD
ENDBRANCH   4  14
BRANCH   1  16
HETATM   16  C   UNK N   1      22.799  20.447   2.909  0.00  0.00     0.198 C 
BRANCH  16  17
HETATM   17  O   UNK N   1      22.449  21.795   2.832  0.00  0.00    -0.398 OA
HETATM   18  H   UNK N   1      21.936  22.305   2.187  0.00  0.00     0.209 HD
ENDBRANCH  16  17
ENDBRANCH   1  16
BRANCH   5  19
HETATM   19  O   UNK N   1      18.753  17.955   1.596  0.00  0.00    -0.390 OA
HETATM   20  H   UNK N   1      18.906  18.217   0.674  0.00  0.00     0.210 HD
ENDBRANCH   5  19
BRANCH   6  21
HETATM   21  O   UNK N   1      20.212  20.414   1.520  0.00  0.00    -0.390 OA
HETATM   22  H   UNK N   1      19.285  20.685   1.429  0.00  0.00     0.210 HD
ENDBRANCH   6  21
TORSDOF 9
ENDMDL
MODEL 7
REMARK VINA RESULT:      -5.0      5.488      7.957
REMARK  9 active torsions:
REMARK  status: ('A' for Active; 'I' for Inactive)
REMARK    1  A    between atoms: O_1  and  C_2 
REMARK    2  A    between atoms: C_3  and  C_2 
REMARK    3  A    between atoms: C_5  and  O_6 
REMARK    4  A    between atoms: O_6  and  P_7 
REMARK    5  A    between atoms: P_7  and  O_8 
REMARK    6  A    between atoms: P_7  and  O_9 
REMARK    7  A    between atoms: C_11  and  O_12 
REMARK    8  A    between atoms: C_13  and  O_14 
REMARK    9  A    between atoms: C_15  and  O_16 
ROOT
HETATM    1  C   UNK N   1      29.114  17.898   5.938  0.00  0.00     0.179 C 
HETATM    2  O   UNK N   1      30.080  16.981   6.376  0.00  0.00    -0.348 OA
HETATM    3  C   UNK N   1      30.730  17.558   7.482  0.00  0.00     0.303 C 
HETATM    4  C   UNK N   1      29.768  17.552   8.678  0.00  0.00     0.205 C 
HETATM    5  C   UNK N   1      28.517  18.352   8.305  0.00  0.00     0.183 C 
HETATM    6  C   UNK N   1      27.958  17.901   6.953  0.00  0.00     0.180 C 
ENDROOT
BRANCH   3   7
HETATM    7  O   UNK N   1      31.877  16.808   7.774  0.00  0.00    -0.263 OA
BRANCH   7   8
HETATM    8  P   UNK N   1      33.117  17.390   6.695  0.00  0.00     0.393 P 
HETATM    9  O   UNK N   1      33.737  16.042   7.155  0.00  0.00    -0.631 OA
BRANCH   8  10
HETATM   10  O   UNK N   1      34.683  17.851   7.287  0.00  0.00    -0.307 OA
HETATM   11  H   UNK N   1      35.490  17.711   6.769  0.00  0.00     0.222 HD
ENDBRANCH   8  10
BRANCH   8  12
HETATM   12  O   UNK N   1      32.982  18.446   8.066  0.00  0.00    -0.307 OA
HETATM   13  H   UNK N   1      33.029  19.415   8.021  0.00  0.00     0.222 HD
ENDBRANCH   8  12
ENDBRANCH   7   8
ENDBRANCH   3   7
BRANCH   4  14
HETATM   14  O   UNK N   1      30.377  18.129   9.794  0.00  0.00    -0.388 OA
HETATM   15  H   UNK N   1      30.904  17.678  10.472  0.00  0.00     0.210 HD
ENDBRANCH   4  14
BRANCH   1  16
HETATM   16  C   UNK N   1      28.655  17.479   4.549  0.00  0.00     0.198 C 
BRANCH  16  17
HETATM   17  O   UNK N   1      28.218  18.586   3.823  0.00  0.00    -0.398 OA
HETATM   18  H   UNK N   1      27.391  18.783   3.357  0.00  0.00     0.209 HD
ENDBRANCH  16  17
ENDBRANCH   1  16
BRANCH   5  19
HETATM   19  O   UNK N   1      27.544  18.214   9.295  0.00  0.00    -0.390 OA
HETATM   20  H   UNK N   1      26.591  18.230   9.109  0.00  0.00     0.210 HD
ENDBRANCH   5  19
BRANCH   6  21
HETATM   21  O   UNK N   1      26.947  18.777   6.556  0.00  0.00    -0.390 OA
HETATM   22  H   UNK N   1      27.050  19.601   6.055  0.00  0.00     0.210 HD
ENDBRANCH   6  21
TORSDOF 9
ENDMDL
MODEL 8
REMARK VINA RESULT:      -5.0     14.924     16.960
REMARK  9 active torsions:
REMARK  status: ('A' for Active; 'I' for Inactive)
REMARK    1  A    between atoms: O_1  and  C_2 
REMARK    2  A    between atoms: C_3  and  C_2 
REMARK    3  A    between atoms: C_5  and  O_6 
REMARK    4  A    between atoms: O_6  and  P_7 
REMARK    5  A    between atoms: P_7  and  O_8 
REMARK    6  A    between atoms: P_7  and  O_9 
REMARK    7  A    between atoms: C_11  and  O_12 
REMARK    8  A    between atoms: C_13  and  O_14 
REMARK    9  A    between atoms: C_15  and  O_16 
ROOT
HETATM    1  C   UNK N   1      30.227  21.341  -5.028  0.00  0.00     0.179 C 
HETATM    2  O   UNK N   1      30.035  22.728  -4.954  0.00  0.00    -0.348 OA
HETATM    3  C   UNK N   1      29.642  23.024  -3.636  0.00  0.00     0.303 C 
HETATM    4  C   UNK N   1      30.855  22.855  -2.711  0.00  0.00     0.205 C 
HETATM    5  C   UNK N   1      31.356  21.412  -2.817  0.00  0.00     0.183 C 
HETATM    6  C   UNK N   1      31.526  20.996  -4.280  0.00  0.00     0.180 C 
ENDROOT
BRANCH   3   7
HETATM    7  O   UNK N   1      29.173  24.344  -3.591  0.00  0.00    -0.263 OA
BRANCH   7   8
HETATM    8  P   UNK N   1      27.526  24.287  -4.162  0.00  0.00     0.393 P 
HETATM    9  O   UNK N   1      27.795  25.817  -4.191  0.00  0.00    -0.631 OA
BRANCH   8  10
HETATM   10  O   UNK N   1      26.223  24.940  -3.220  0.00  0.00    -0.307 OA
HETATM   11  H   UNK N   1      25.854  24.470  -2.456  0.00  0.00     0.222 HD
ENDBRANCH   8  10
BRANCH   8  12
HETATM   12  O   UNK N   1      27.602  23.732  -2.519  0.00  0.00    -0.307 OA
HETATM   13  H   UNK N   1      27.726  24.309  -1.748  0.00  0.00     0.222 HD
ENDBRANCH   8  12
ENDBRANCH   7   8
ENDBRANCH   3   7
BRANCH   4  14
HETATM   14  O   UNK N   1      30.499  23.131  -1.389  0.00  0.00    -0.388 OA
HETATM   15  H   UNK N   1      30.184  22.501  -0.723  0.00  0.00     0.210 HD
ENDBRANCH   4  14
BRANCH   1  16
HETATM   16  C   UNK N   1      30.290  20.946  -6.496  0.00  0.00     0.198 C 
BRANCH  16  17
HETATM   17  O   UNK N   1      31.593  21.058  -6.979  0.00  0.00    -0.398 OA
HETATM   18  H   UNK N   1      32.431  20.653  -6.709  0.00  0.00     0.209 HD
ENDBRANCH  16  17
ENDBRANCH   1  16
BRANCH   5  19
HETATM   19  O   UNK N   1      32.564  21.270  -2.134  0.00  0.00    -0.390 OA
HETATM   20  H   UNK N   1      32.649  21.387  -1.174  0.00  0.00     0.210 HD
ENDBRANCH   5  19
BRANCH   6  21
HETATM   21  O   UNK N   1      31.789  19.626  -4.343  0.00  0.00    -0.390 OA
HETATM   22  H   UNK N   1      32.657  19.200  -4.408  0.00  0.00     0.210 HD
ENDBRANCH   6  21
TORSDOF 9
ENDMDL
MODEL 9
REMARK VINA RESULT:      -5.0     12.099     13.808
REMARK  9 active torsions:
REMARK  status: ('A' for Active; 'I' for Inactive)
REMARK    1  A    between atoms: O_1  and  C_2 
REMARK    2  A    between atoms: C_3  and  C_2 
REMARK    3  A    between atoms: C_5  and  O_6 
REMARK    4  A    between atoms: O_6  and  P_7 
REMARK    5  A    between atoms: P_7  and  O_8 
REMARK    6  A    between atoms: P_7  and  O_9 
REMARK    7  A    between atoms: C_11  and  O_12 
REMARK    8  A    between atoms: C_13  and  O_14 
REMARK    9  A    between atoms: C_15  and  O_16 
ROOT
HETATM    1  C   UNK N   1      22.913  12.779  10.779  0.00  0.00     0.179 C 
HETATM    2  O   UNK N   1      21.714  12.683  10.059  0.00  0.00    -0.348 OA
HETATM    3  C   UNK N   1      21.706  13.733   9.122  0.00  0.00     0.303 C 
HETATM    4  C   UNK N   1      22.726  13.417   8.020  0.00  0.00     0.205 C 
HETATM    5  C   UNK N   1      24.109  13.271   8.660  0.00  0.00     0.183 C 
HETATM    6  C   UNK N   1      24.061  12.325   9.863  0.00  0.00     0.180 C 
ENDROOT
BRANCH   3   7
HETATM    7  O   UNK N   1      20.419  13.844   8.579  0.00  0.00    -0.263 OA
BRANCH   7   8
HETATM    8  P   UNK N   1      19.929  15.497   8.845  0.00  0.00     0.393 P 
HETATM    9  O   UNK N   1      18.851  14.735   9.665  0.00  0.00    -0.631 OA
BRANCH   8  10
HETATM   10  O   UNK N   1      18.434  16.106   8.206  0.00  0.00    -0.307 OA
HETATM   11  H   UNK N   1      18.114  15.861   7.324  0.00  0.00     0.222 HD
ENDBRANCH   8  10
BRANCH   8  12
HETATM   12  O   UNK N   1      19.753  15.090   7.166  0.00  0.00    -0.307 OA
HETATM   13  H   UNK N   1      18.927  15.172   6.663  0.00  0.00     0.222 HD
ENDBRANCH   8  12
ENDBRANCH   7   8
ENDBRANCH   3   7
BRANCH   4  14
HETATM   14  O   UNK N   1      22.753  14.445   7.076  0.00  0.00    -0.388 OA
HETATM   15  H   UNK N   1      23.345  15.214   7.063  0.00  0.00     0.210 HD
ENDBRANCH   4  14
BRANCH   1  16
HETATM   16  C   UNK N   1      22.793  11.908  12.022  0.00  0.00     0.198 C 
BRANCH  16  17
HETATM   17  O   UNK N   1      23.746  12.277  12.971  0.00  0.00    -0.398 OA
HETATM   18  H   UNK N   1      23.971  11.927  13.847  0.00  0.00     0.209 HD
ENDBRANCH  16  17
ENDBRANCH   1  16
BRANCH   5  19
HETATM   19  O   UNK N   1      25.028  12.803   7.719  0.00  0.00    -0.390 OA
HETATM   20  H   UNK N   1      24.807  12.139   7.046  0.00  0.00     0.210 HD
ENDBRANCH   5  19
BRANCH   6  21
HETATM   21  O   UNK N   1      25.284  12.370  10.535  0.00  0.00    -0.390 OA
HETATM   22  H   UNK N   1      25.938  13.086  10.512  0.00  0.00     0.210 HD
ENDBRANCH   6  21
TORSDOF 9
ENDMDL
