REMARK  4 active torsions:
REMARK  status: ('A' for Active; 'I' for Inactive)
REMARK    1  A    between atoms: O_1  and  C_2 
REMARK    2  A    between atoms: C_2  and  C_4 
REMARK    3  A    between atoms: C_4  and  C_5 
REMARK    4  A    between atoms: C_5  and  C_6 
ROOT
HETATM    1  C   UNK N   1       0.952   0.953   0.000  0.00  0.00    -0.058 A 
HETATM    2  C   UNK N   1       2.178   0.282   0.000  0.00  0.00     0.007 A 
HETATM    3  C   UNK N   1       2.216  -1.114   0.000  0.00  0.00     0.001 A 
HETATM    4  C   UNK N   1       1.025  -1.846  -0.000  0.00  0.00     0.000 A 
HETATM    5  C   UNK N   1      -0.205  -1.182  -0.000  0.00  0.00     0.001 A 
HETATM    6  C   UNK N   1      -0.243   0.215  -0.000  0.00  0.00     0.007 A 
ENDROOT
BRANCH   1   7
HETATM    7  C   UNK N   1       0.961   2.449   0.000  0.00  0.00     0.049 C 
BRANCH   7   8
HETATM    8  C   UNK N   1      -0.428   3.078   0.000  0.00  0.00     0.114 C 
BRANCH   8   9
HETATM    9  C   UNK N   1      -0.362   4.575  -0.000  0.00  0.00     0.139 C 
HETATM   10  O   UNK N   1       0.712   5.157  -0.000  0.00  0.00    -0.650 OA
BRANCH   9  11
HETATM   11  O   UNK N   1      -1.504   5.285   0.000  0.00  0.00    -0.776 OA
HETATM   12  H   UNK N   1      -1.473   6.221   0.000  0.00  0.00     0.167 HD
ENDBRANCH   9  11
ENDBRANCH   8   9
ENDBRANCH   7   8
ENDBRANCH   1   7
TORSDOF 4
