REMARK  7 active torsions:
REMARK  status: ('A' for Active; 'I' for Inactive)
REMARK    1  A    between atoms: C_2  and  N_1 
REMARK    2  A    between atoms: C_2  and  C_3 
REMARK    3  A    between atoms: C_2  and  C_9 
REMARK    4  A    between atoms: C_3  and  C_4 
REMARK    5  A    between atoms: C_4  and  C_5 
REMARK       I    between atoms: C_5  and  N_7 
REMARK    6  A    between atoms: N_7  and  O_8 
REMARK    7  A    between atoms: C_9  and  O_10 
ROOT
HETATM    1  C   UNK N   1       5.274   2.128  -0.000  0.00  0.00     0.173 C 
ENDROOT
BRANCH   1   2
HETATM    2  N   UNK N   1       5.970   3.403   0.000  0.00  0.00    -0.418 N 
HETATM    3  H   UNK N   1       6.990   3.427   0.000  0.00  0.00     0.150 HD
HETATM    4  H   UNK N   1       5.440   4.274   0.000  0.00  0.00     0.150 HD
ENDBRANCH   1   2
BRANCH   1   5
HETATM    5  C   UNK N   1       3.748   2.210   0.000  0.00  0.00     0.045 C 
BRANCH   5   6
HETATM    6  C   UNK N   1       3.033   0.865  -0.000  0.00  0.00     0.107 C 
BRANCH   6   7
HETATM    7  C   UNK N   1       1.538   1.016  -0.000  0.00  0.00     0.240 C 
HETATM    8  O   UNK N   1       0.840   0.014  -0.000  0.00  0.00    -0.271 OA
HETATM    9  N   UNK N   1       0.964   2.243   0.000  0.00  0.00    -0.237 N 
HETATM   10  H   UNK N   1       1.535   3.045   0.000  0.00  0.00     0.197 HD
BRANCH   9  11
HETATM   11  O   UNK N   1      -0.368   2.381   0.000  0.00  0.00    -0.287 OA
HETATM   12  H   UNK N   1      -0.764   3.267   0.000  0.00  0.00     0.244 HD
ENDBRANCH   9  11
ENDBRANCH   6   7
ENDBRANCH   5   6
ENDBRANCH   1   5
BRANCH   1  13
HETATM   13  C   UNK N   1       6.131   0.890   0.000  0.00  0.00     0.163 C 
HETATM   14  O   UNK N   1       5.626  -0.221   0.000  0.00  0.00    -0.648 OA
BRANCH  13  15
HETATM   15  O   UNK N   1       7.473   1.006   0.000  0.00  0.00    -0.775 OA
HETATM   16  H   UNK N   1       8.010   0.239   0.000  0.00  0.00     0.167 HD
ENDBRANCH  13  15
ENDBRANCH   1  13
TORSDOF 7
