MODEL 1
REMARK VINA RESULT:      -4.0      0.000      0.000
REMARK  1 active torsions:
REMARK  status: ('A' for Active; 'I' for Inactive)
REMARK    1  A    between atoms: N_1  and  C_2 
ROOT
HETATM    1  C   UNK N   1      23.803  12.682  10.754  0.00  0.00     0.115 A 
HETATM    2  C   UNK N   1      23.270  11.749  11.647  0.00  0.00     0.136 A 
HETATM    3  N   UNK N   1      21.920  11.620  11.752  0.00  0.00    -0.369 N 
ATOM      4  HN  UNK N   1      21.530  10.939  12.404  1.00  0.00     0.164 HD
HETATM    5  C   UNK N   1      21.085  12.384  11.001  0.00  0.00     0.130 A 
HETATM    6  C   UNK N   1      21.619  13.314  10.110  0.00  0.00     0.120 A 
HETATM    7 Cl   UNK N   1      20.556  14.303   9.139  0.00  0.00    -0.063 Cl
HETATM    8  N   UNK N   1      22.969  13.446  10.002  0.00  0.00    -0.331 N 
ATOM      9  HN  UNK N   1      23.359  14.127   9.350  1.00  0.00     0.168 HD
ENDROOT
BRANCH   1  10
HETATM   10  N   UNK N   1      25.199  12.828  10.633  0.00  0.00    -0.384 N 
HETATM   11  H   UNK N   1      25.797  12.400  11.287  0.00  0.00     0.157 HD
HETATM   12  H   UNK N   1      25.576  13.358   9.894  0.00  0.00     0.157 HD
ENDBRANCH   1  10
TORSDOF 1
ENDMDL
MODEL 2
REMARK VINA RESULT:      -3.9      9.979     11.133
REMARK  1 active torsions:
REMARK  status: ('A' for Active; 'I' for Inactive)
REMARK    1  A    between atoms: N_1  and  C_2 
ROOT
HETATM    1  C   UNK N   1      20.562  20.177   1.419  0.00  0.00     0.115 A 
HETATM    2  C   UNK N   1      20.852  20.669   2.693  0.00  0.00     0.136 A 
HETATM    3  N   UNK N   1      20.910  19.809   3.745  0.00  0.00    -0.369 N 
ATOM      4  HN  UNK N   1      21.122  20.167   4.677  1.00  0.00     0.164 HD
HETATM    5  C   UNK N   1      20.689  18.479   3.573  0.00  0.00     0.130 A 
HETATM    6  C   UNK N   1      20.399  17.991   2.299  0.00  0.00     0.120 A 
HETATM    7 Cl   UNK N   1      20.113  16.284   2.064  0.00  0.00    -0.063 Cl
HETATM    8  N   UNK N   1      20.341  18.848   1.245  0.00  0.00    -0.331 N 
ATOM      9  HN  UNK N   1      20.129  18.490   0.314  1.00  0.00     0.168 HD
ENDROOT
BRANCH   1  10
HETATM   10  N   UNK N   1      20.499  21.056   0.319  0.00  0.00    -0.384 N 
HETATM   11  H   UNK N   1      19.990  20.803  -0.484  0.00  0.00     0.157 HD
HETATM   12  H   UNK N   1      20.964  21.923   0.355  0.00  0.00     0.157 HD
ENDBRANCH   1  10
TORSDOF 1
ENDMDL
MODEL 3
REMARK VINA RESULT:      -3.8      1.573      2.770
REMARK  1 active torsions:
REMARK  status: ('A' for Active; 'I' for Inactive)
REMARK    1  A    between atoms: N_1  and  C_2 
ROOT
HETATM    1  C   UNK N   1      22.451  12.188  11.143  0.00  0.00     0.115 A 
HETATM    2  C   UNK N   1      23.671  11.950  11.780  0.00  0.00     0.136 A 
HETATM    3  N   UNK N   1      24.828  12.322  11.170  0.00  0.00    -0.369 N 
ATOM      4  HN  UNK N   1      25.720  12.149  11.635  1.00  0.00     0.164 HD
HETATM    5  C   UNK N   1      24.814  12.921   9.950  0.00  0.00     0.130 A 
HETATM    6  C   UNK N   1      23.594  13.156   9.316  0.00  0.00     0.120 A 
HETATM    7 Cl   UNK N   1      23.561  13.925   7.748  0.00  0.00    -0.063 Cl
HETATM    8  N   UNK N   1      22.435  12.786   9.923  0.00  0.00    -0.331 N 
ATOM      9  HN  UNK N   1      21.544  12.959   9.458  1.00  0.00     0.168 HD
ENDROOT
BRANCH   1  10
HETATM   10  N   UNK N   1      21.244  11.808  11.762  0.00  0.00    -0.384 N 
HETATM   11  H   UNK N   1      20.480  11.519  11.214  0.00  0.00     0.157 HD
HETATM   12  H   UNK N   1      21.166  11.832  12.743  0.00  0.00     0.157 HD
ENDBRANCH   1  10
TORSDOF 1
ENDMDL
MODEL 4
REMARK VINA RESULT:      -3.7     23.151     23.919
REMARK  1 active torsions:
REMARK  status: ('A' for Active; 'I' for Inactive)
REMARK    1  A    between atoms: N_1  and  C_2 
ROOT
HETATM    1  C   UNK N   1      44.427  22.168   3.649  0.00  0.00     0.115 A 
HETATM    2  C   UNK N   1      43.812  23.333   3.187  0.00  0.00     0.136 A 
HETATM    3  N   UNK N   1      42.567  23.263   2.643  0.00  0.00    -0.369 N 
ATOM      4  HN  UNK N   1      42.118  24.114   2.305  1.00  0.00     0.164 HD
HETATM    5  C   UNK N   1      41.915  22.075   2.545  0.00  0.00     0.130 A 
HETATM    6  C   UNK N   1      42.531  20.913   3.008  0.00  0.00     0.120 A 
HETATM    7 Cl   UNK N   1      41.703  19.379   2.887  0.00  0.00    -0.063 Cl
HETATM    8  N   UNK N   1      43.776  20.980   3.552  0.00  0.00    -0.331 N 
ATOM      9  HN  UNK N   1      44.226  20.129   3.890  1.00  0.00     0.168 HD
ENDROOT
BRANCH   1  10
HETATM   10  N   UNK N   1      45.716  22.225   4.215  0.00  0.00    -0.384 N 
HETATM   11  H   UNK N   1      45.836  22.550   5.135  0.00  0.00     0.157 HD
HETATM   12  H   UNK N   1      46.498  21.939   3.688  0.00  0.00     0.157 HD
ENDBRANCH   1  10
TORSDOF 1
ENDMDL
MODEL 5
REMARK VINA RESULT:      -3.7      2.024      3.056
REMARK  1 active torsions:
REMARK  status: ('A' for Active; 'I' for Inactive)
REMARK    1  A    between atoms: N_1  and  C_2 
ROOT
HETATM    1  C   UNK N   1      21.063  13.428  10.153  0.00  0.00     0.115 A 
HETATM    2  C   UNK N   1      20.763  12.427  11.079  0.00  0.00     0.136 A 
HETATM    3  N   UNK N   1      21.765  11.656  11.581  0.00  0.00    -0.369 N 
ATOM      4  HN  UNK N   1      21.545  10.925  12.257  1.00  0.00     0.164 HD
HETATM    5  C   UNK N   1      23.053  11.848  11.194  0.00  0.00     0.130 A 
HETATM    6  C   UNK N   1      23.351  12.848  10.269  0.00  0.00     0.120 A 
HETATM    7 Cl   UNK N   1      25.003  13.105   9.764  0.00  0.00    -0.063 Cl
HETATM    8  N   UNK N   1      22.351  13.621   9.765  0.00  0.00    -0.331 N 
ATOM      9  HN  UNK N   1      22.570  14.352   9.089  1.00  0.00     0.168 HD
ENDROOT
BRANCH   1  10
HETATM   10  N   UNK N   1      20.036  14.234   9.624  0.00  0.00    -0.384 N 
HETATM   11  H   UNK N   1      19.155  13.843   9.427  0.00  0.00     0.157 HD
HETATM   12  H   UNK N   1      20.200  15.190   9.451  0.00  0.00     0.157 HD
ENDBRANCH   1  10
TORSDOF 1
ENDMDL
MODEL 6
REMARK VINA RESULT:      -3.7      1.697      2.300
REMARK  1 active torsions:
REMARK  status: ('A' for Active; 'I' for Inactive)
REMARK    1  A    between atoms: N_1  and  C_2 
ROOT
HETATM    1  C   UNK N   1      24.260  12.949  10.156  0.00  0.00     0.115 A 
HETATM    2  C   UNK N   1      24.071  12.950   8.772  0.00  0.00     0.136 A 
HETATM    3  N   UNK N   1      22.830  12.716   8.266  0.00  0.00    -0.369 N 
ATOM      4  HN  UNK N   1      22.692  12.717   7.255  1.00  0.00     0.164 HD
HETATM    5  C   UNK N   1      21.774  12.482   9.087  0.00  0.00     0.130 A 
HETATM    6  C   UNK N   1      21.965  12.481  10.469  0.00  0.00     0.120 A 
HETATM    7 Cl   UNK N   1      20.616  12.181  11.536  0.00  0.00    -0.063 Cl
HETATM    8  N   UNK N   1      23.205  12.715  10.979  0.00  0.00    -0.331 N 
ATOM      9  HN  UNK N   1      23.343  12.714  11.989  1.00  0.00     0.168 HD
ENDROOT
BRANCH   1  10
HETATM   10  N   UNK N   1      25.539  13.190  10.695  0.00  0.00    -0.384 N 
HETATM   11  H   UNK N   1      26.270  12.553  10.532  0.00  0.00     0.157 HD
HETATM   12  H   UNK N   1      25.701  13.997  11.237  0.00  0.00     0.157 HD
ENDBRANCH   1  10
TORSDOF 1
ENDMDL
MODEL 7
REMARK VINA RESULT:      -3.6      2.319      3.568
REMARK  1 active torsions:
REMARK  status: ('A' for Active; 'I' for Inactive)
REMARK    1  A    between atoms: N_1  and  C_2 
ROOT
HETATM    1  C   UNK N   1      20.869  12.233  11.294  0.00  0.00     0.115 A 
HETATM    2  C   UNK N   1      20.491  13.194  10.355  0.00  0.00     0.136 A 
HETATM    3  N   UNK N   1      21.442  13.789   9.586  0.00  0.00    -0.369 N 
ATOM      4  HN  UNK N   1      21.166  14.492   8.900  1.00  0.00     0.164 HD
HETATM    5  C   UNK N   1      22.753  13.461   9.719  0.00  0.00     0.130 A 
HETATM    6  C   UNK N   1      23.129  12.500  10.658  0.00  0.00     0.120 A 
HETATM    7 Cl   UNK N   1      24.811  12.068  10.839  0.00  0.00    -0.063 Cl
HETATM    8  N   UNK N   1      22.180  11.903  11.429  0.00  0.00    -0.331 N 
ATOM      9  HN  UNK N   1      22.456  11.200  12.115  1.00  0.00     0.168 HD
ENDROOT
BRANCH   1  10
HETATM   10  N   UNK N   1      19.896  11.608  12.099  0.00  0.00    -0.384 N 
HETATM   11  H   UNK N   1      20.153  11.201  12.957  0.00  0.00     0.157 HD
HETATM   12  H   UNK N   1      18.957  11.578  11.801  0.00  0.00     0.157 HD
ENDBRANCH   1  10
TORSDOF 1
ENDMDL
MODEL 8
REMARK VINA RESULT:      -3.5     13.112     14.137
REMARK  1 active torsions:
REMARK  status: ('A' for Active; 'I' for Inactive)
REMARK    1  A    between atoms: N_1  and  C_2 
ROOT
HETATM    1  C   UNK N   1      35.294  13.234  13.332  0.00  0.00     0.115 A 
HETATM    2  C   UNK N   1      36.261  14.231  13.190  0.00  0.00     0.136 A 
HETATM    3  N   UNK N   1      36.931  14.675  14.287  0.00  0.00    -0.369 N 
ATOM      4  HN  UNK N   1      37.638  15.403  14.184  1.00  0.00     0.164 HD
HETATM    5  C   UNK N   1      36.673  14.161  15.518  0.00  0.00     0.130 A 
HETATM    6  C   UNK N   1      35.706  13.165  15.657  0.00  0.00     0.120 A 
HETATM    7 Cl   UNK N   1      35.364  12.496  17.233  0.00  0.00    -0.063 Cl
HETATM    8  N   UNK N   1      35.034  12.719  14.561  0.00  0.00    -0.331 N 
ATOM      9  HN  UNK N   1      34.328  11.991  14.664  1.00  0.00     0.168 HD
ENDROOT
BRANCH   1  10
HETATM   10  N   UNK N   1      34.592  12.764  12.204  0.00  0.00    -0.384 N 
HETATM   11  H   UNK N   1      34.184  11.869  12.216  0.00  0.00     0.157 HD
HETATM   12  H   UNK N   1      34.510  13.332  11.404  0.00  0.00     0.157 HD
ENDBRANCH   1  10
TORSDOF 1
ENDMDL
MODEL 9
REMARK VINA RESULT:      -3.5     22.538     23.413
REMARK  1 active torsions:
REMARK  status: ('A' for Active; 'I' for Inactive)
REMARK    1  A    between atoms: N_1  and  C_2 
ROOT
HETATM    1  C   UNK N   1      43.231  22.462   3.414  0.00  0.00     0.115 A 
HETATM    2  C   UNK N   1      42.685  21.177   3.375  0.00  0.00     0.136 A 
HETATM    3  N   UNK N   1      41.592  20.937   2.602  0.00  0.00    -0.369 N 
ATOM      4  HN  UNK N   1      41.193  19.999   2.573  1.00  0.00     0.164 HD
HETATM    5  C   UNK N   1      41.026  21.930   1.867  0.00  0.00     0.130 A 
HETATM    6  C   UNK N   1      41.573  23.212   1.908  0.00  0.00     0.120 A 
HETATM    7 Cl   UNK N   1      40.854  24.497   0.968  0.00  0.00    -0.063 Cl
HETATM    8  N   UNK N   1      42.666  23.455   2.681  0.00  0.00    -0.331 N 
ATOM      9  HN  UNK N   1      43.065  24.394   2.709  1.00  0.00     0.168 HD
ENDROOT
BRANCH   1  10
HETATM   10  N   UNK N   1      44.363  22.726   4.211  0.00  0.00    -0.384 N 
HETATM   11  H   UNK N   1      44.365  22.473   5.162  0.00  0.00     0.157 HD
HETATM   12  H   UNK N   1      45.151  23.165   3.816  0.00  0.00     0.157 HD
ENDBRANCH   1  10
TORSDOF 1
ENDMDL
