REMARK  3 active torsions:
REMARK  status: ('A' for Active; 'I' for Inactive)
REMARK    1  A    between atoms: C_4  and  C_3 
REMARK    2  A    between atoms: C_5  and  C_4 
REMARK    3  A    between atoms: O_7  and  C_5 
ROOT
HETATM    1  C   UNK N   1      -0.472  -0.807  -0.000  0.00  0.00     0.244 C 
HETATM    2  O   UNK N   1       0.156  -1.853  -0.000  0.00  0.00    -0.281 OA
ENDROOT
BRANCH   1   3
HETATM    3  C   UNK N   1       0.237   0.506  -0.000  0.00  0.00     0.057 C 
HETATM    4  C   UNK N   1       1.577   0.638   0.000  0.00  0.00    -0.027 C 
HETATM    5  C   UNK N   1       2.518  -0.525  -0.000  0.00  0.00     0.036 C 
ENDBRANCH   1   3
BRANCH   1   6
HETATM    6  C   UNK N   1      -1.947  -0.867   0.000  0.00  0.00     0.218 C 
HETATM    7  O   UNK N   1      -2.614   0.154   0.000  0.00  0.00    -0.644 OA
BRANCH   6   8
HETATM    8  O   UNK N   1      -2.564  -2.066   0.000  0.00  0.00    -0.770 OA
HETATM    9  H   UNK N   1      -3.500  -2.111   0.000  0.00  0.00     0.168 HD
ENDBRANCH   6   8
ENDBRANCH   1   6
TORSDOF 3
