MODEL 1
REMARK VINA RESULT:      -6.1      0.000      0.000
REMARK WARNING: 32 MAX_TORS EXCEEDED!!!
REMARK  38 active torsions:
REMARK  status: ('A' for Active; 'I' for Inactive)
REMARK    1  A    between atoms: C_1  and  N_38 
REMARK    2  A    between atoms: C_3  and  O_6 
REMARK    3  A    between atoms: C_4  and  C_32 
REMARK    4  A    between atoms: C_5  and  O_33 
REMARK    5  A    between atoms: N_9  and  C_7 
REMARK    6  A    between atoms: C_7  and  C_8 
REMARK    7  A    between atoms: C_8  and  S_51 
REMARK       I    between atoms: C_10  and  N_9 
REMARK    8  A    between atoms: C_13  and  C_10 
REMARK    9  A    between atoms: C_12  and  N_14 
REMARK   10  A    between atoms: C_13  and  C_12 
REMARK       I    between atoms: C_16  and  N_14 
REMARK   11  A    between atoms: C_16  and  C_21 
REMARK   12  A    between atoms: C_19  and  C_17 
REMARK   13  A    between atoms: C_17  and  O_23 
REMARK   14  A    between atoms: C_21  and  C_19 
REMARK   15  A    between atoms: C_21  and  O_22 
REMARK   16  A    between atoms: O_23  and  P_30 
REMARK   17  A    between atoms: P_30  and  O_24 
REMARK   18  A    between atoms: O_24  and  P_31 
REMARK   19  A    between atoms: P_31  and  O_25 
REMARK   20  A    between atoms: C_32  and  O_25 
REMARK   21  A    between atoms: P_30  and  O_27 
REMARK   22  A    between atoms: O_33  and  P_36 
REMARK   23  A    between atoms: P_36  and  O_34 
REMARK   24  A    between atoms: P_36  and  O_35 
REMARK   25  A    between atoms: N_50  and  C_46 
REMARK   26  A    between atoms: S_51  and  C_53 
REMARK   27  A    between atoms: C_53  and  C_54 
REMARK   28  A    between atoms: C_54  and  C_55 
REMARK   29  A    between atoms: C_55  and  C_56 
REMARK   30  A    between atoms: C_56  and  C_57 
REMARK   31  A    between atoms: C_57  and  C_58 
REMARK   32  A    between atoms: C_58  and  C_59 
REMARK   33  A    between atoms: C_59  and  C_60 
REMARK   34  A    between atoms: C_60  and  C_61 
REMARK   35  A    between atoms: C_61  and  C_62 
REMARK   36  A    between atoms: C_62  and  C_63 
REMARK   37  A    between atoms: C_63  and  C_64 
REMARK   38  A    between atoms: C_64  and  C_65 
ROOT
HETATM    1  O   UNK N   1      32.114  14.206   2.861  0.00  0.00    -0.631 OA
HETATM    2  O   UNK N   1      33.032  16.641   2.550  0.00  0.00    -0.307 OA
HETATM    3  P   UNK N   1      31.967  15.629   3.471  0.00  0.00     0.401 P 
HETATM    4  H   UNK N   1      33.511  17.222   1.940  0.00  0.00     0.222 HD
ENDROOT
BRANCH   3   5
HETATM    5  O   UNK N   1      30.301  16.200   3.310  0.00  0.00    -0.195 OA
BRANCH   5   6
HETATM    6  P   UNK N   1      29.304  14.808   2.969  0.00  0.00     0.401 P 
HETATM    7  O   UNK N   1      28.244  15.940   3.069  0.00  0.00    -0.631 OA
BRANCH   6   8
HETATM    8  O   UNK N   1      27.972  14.023   3.768  0.00  0.00    -0.296 OA
BRANCH   8   9
HETATM    9  C   UNK N   1      27.706  14.872   4.857  0.00  0.00     0.192 C 
BRANCH   9  10
HETATM   10  C   UNK N   1      26.338  14.630   5.528  0.00  0.00     0.009 C 
HETATM   11  C   UNK N   1      26.108  13.170   5.891  0.00  0.00     0.020 C 
HETATM   12  C   UNK N   1      26.370  15.415   6.826  0.00  0.00     0.020 C 
BRANCH  10  13
HETATM   13  C   UNK N   1      25.165  15.189   4.693  0.00  0.00     0.219 C 
BRANCH  13  14
HETATM   14  C   UNK N   1      24.723  16.612   4.911  0.00  0.00     0.247 C 
HETATM   15  N   UNK N   1      23.455  16.899   5.296  0.00  0.00    -0.358 N 
HETATM   16  H   UNK N   1      22.872  16.160   5.584  0.00  0.00     0.162 HD
HETATM   17  O   UNK N   1      25.516  17.512   4.680  0.00  0.00    -0.271 OA
BRANCH  15  18
HETATM   18  C   UNK N   1      22.921  18.242   5.305  0.00  0.00     0.132 C 
BRANCH  18  19
HETATM   19  C   UNK N   1      21.535  18.349   4.687  0.00  0.00     0.122 C 
BRANCH  19  20
HETATM   20  C   UNK N   1      21.594  19.244   3.476  0.00  0.00     0.219 C 
HETATM   21  N   UNK N   1      20.725  19.115   2.439  0.00  0.00    -0.360 N 
HETATM   22  H   UNK N   1      20.831  19.708   1.661  0.00  0.00     0.162 HD
HETATM   23  O   UNK N   1      22.448  20.113   3.431  0.00  0.00    -0.274 OA
BRANCH  21  24
HETATM   24  C   UNK N   1      19.654  18.149   2.427  0.00  0.00     0.133 C 
BRANCH  24  25
HETATM   25  C   UNK N   1      19.976  17.011   1.479  0.00  0.00     0.102 C 
BRANCH  25  26
HETATM   26  S   UNK N   1      19.975  15.462   2.424  0.00  0.00    -0.091 SA
BRANCH  26  27
HETATM   27  C   UNK N   1      21.641  15.091   1.911  0.00  0.00     0.186 C 
HETATM   28  O   UNK N   1      22.588  15.604   2.488  0.00  0.00    -0.286 OA
BRANCH  27  29
HETATM   29  C   UNK N   1      21.866  14.145   0.785  0.00  0.00     0.091 C 
BRANCH  29  30
HETATM   30  C   UNK N   1      23.344  13.855   0.654  0.00  0.00     0.008 C 
BRANCH  30  31
HETATM   31  C   UNK N   1      23.565  12.355   0.653  0.00  0.00     0.000 C 
BRANCH  31  32
HETATM   32  C   UNK N   1      24.098  11.877   1.998  0.00  0.00     0.000 C 
BRANCH  32  33
HETATM   33  C   UNK N   1      22.996  11.451   2.963  0.00  0.00     0.000 C 
BRANCH  33  34
HETATM   34  C   UNK N   1      22.867  12.394   4.146  0.00  0.00     0.000 C 
BRANCH  34  35
HETATM   35  C   UNK N   1      21.415  12.473   4.578  0.00  0.00     0.000 C 
BRANCH  35  36
HETATM   36  C   UNK N   1      21.309  12.794   6.056  0.00  0.00     0.000 C 
BRANCH  36  37
HETATM   37  C   UNK N   1      22.663  12.608   6.713  0.00  0.00     0.000 C 
BRANCH  37  38
HETATM   38  C   UNK N   1      22.789  13.501   7.933  0.00  0.00     0.000 C 
BRANCH  38  39
HETATM   39  C   UNK N   1      21.928  14.738   7.776  0.00  0.00    -0.000 C 
BRANCH  39  40
HETATM   40  C   UNK N   1      21.072  14.907   9.014  0.00  0.00    -0.005 C 
HETATM   41  C   UNK N   1      19.895  15.804   8.695  0.00  0.00     0.005 C 
ENDBRANCH  39  40
ENDBRANCH  38  39
ENDBRANCH  37  38
ENDBRANCH  36  37
ENDBRANCH  35  36
ENDBRANCH  34  35
ENDBRANCH  33  34
ENDBRANCH  32  33
ENDBRANCH  31  32
ENDBRANCH  30  31
ENDBRANCH  29  30
ENDBRANCH  27  29
ENDBRANCH  26  27
ENDBRANCH  25  26
ENDBRANCH  24  25
ENDBRANCH  21  24
ENDBRANCH  19  20
ENDBRANCH  18  19
ENDBRANCH  15  18
ENDBRANCH  13  14
BRANCH  13  42
HETATM   42  O   UNK N   1      25.359  14.955   3.327  0.00  0.00    -0.385 OA
HETATM   43  H   UNK N   1      24.988  15.346   2.521  0.00  0.00     0.210 HD
ENDBRANCH  13  42
ENDBRANCH  10  13
ENDBRANCH   9  10
ENDBRANCH   8   9
ENDBRANCH   6   8
BRANCH   6  44
HETATM   44  O   UNK N   1      29.805  14.612   4.621  0.00  0.00    -0.307 OA
HETATM   45  H   UNK N   1      30.439  15.206   5.052  0.00  0.00     0.222 HD
ENDBRANCH   6  44
ENDBRANCH   5   6
ENDBRANCH   3   5
BRANCH   3  46
HETATM   46  O   UNK N   1      32.555  15.504   5.101  0.00  0.00    -0.294 OA
BRANCH  46  47
HETATM   47  C   UNK N   1      32.820  16.803   5.530  0.00  0.00     0.215 C 
BRANCH  47  48
HETATM   48  C   UNK N   1      31.819  17.245   6.588  0.00  0.00     0.180 C 
HETATM   49  O   UNK N   1      30.521  16.744   6.383  0.00  0.00    -0.353 OA
HETATM   50  C   UNK N   1      29.879  16.931   7.631  0.00  0.00     0.262 C 
HETATM   51  C   UNK N   1      30.956  17.251   8.661  0.00  0.00     0.199 C 
HETATM   52  C   UNK N   1      32.206  16.815   7.967  0.00  0.00     0.197 C 
BRANCH  50  53
HETATM   53  N   UNK N   1      28.906  18.022   7.523  0.00  0.00    -0.297 N 
HETATM   54  C   UNK N   1      28.447  18.635   6.423  0.00  0.00     0.142 A 
HETATM   55  C   UNK N   1      27.538  19.565   6.779  0.00  0.00     0.122 A 
HETATM   56  N   UNK N   1      28.769  18.389   5.132  0.00  0.00    -0.336 N 
HETATM   57  C   UNK N   1      26.894  20.315   5.810  0.00  0.00     0.131 A 
HETATM   58  N   UNK N   1      27.400  19.584   8.116  0.00  0.00    -0.346 N 
HETATM   59  N   UNK N   1      27.209  20.076   4.503  0.00  0.00    -0.337 N 
HETATM   60  C   UNK N   1      28.138  19.122   4.163  0.00  0.00     0.183 A 
ATOM     61  HN  UNK N   1      26.746  20.612   3.768  1.00  0.00     0.168 HD
HETATM   62  C   UNK N   1      28.253  18.618   8.556  0.00  0.00     0.188 A 
ATOM     63  HN  UNK N   1      26.795  20.187   8.674  1.00  0.00     0.167 HD
ATOM     64  HN  UNK N   1      29.459  17.678   4.888  1.00  0.00     0.168 HD
BRANCH  57  65
HETATM   65  N   UNK N   1      25.934  21.288   6.154  0.00  0.00    -0.383 N 
HETATM   66  H   UNK N   1      25.746  21.553   7.084  0.00  0.00     0.157 HD
HETATM   67  H   UNK N   1      25.428  21.723   5.431  0.00  0.00     0.157 HD
ENDBRANCH  57  65
ENDBRANCH  50  53
BRANCH  51  68
HETATM   68  O   UNK N   1      30.748  16.518   9.830  0.00  0.00    -0.388 OA
HETATM   69  H   UNK N   1      30.433  15.627  10.049  0.00  0.00     0.210 HD
ENDBRANCH  51  68
BRANCH  52  70
HETATM   70  O   UNK N   1      33.327  17.535   8.395  0.00  0.00    -0.286 OA
BRANCH  70  71
HETATM   71  P   UNK N   1      34.356  16.442   9.285  0.00  0.00     0.391 P 
HETATM   72  O   UNK N   1      35.082  15.477   8.306  0.00  0.00    -0.632 OA
BRANCH  71  73
HETATM   73  O   UNK N   1      35.580  17.303  10.160  0.00  0.00    -0.307 OA
HETATM   74  H   UNK N   1      36.516  17.492   9.987  0.00  0.00     0.222 HD
ENDBRANCH  71  73
BRANCH  71  75
HETATM   75  O   UNK N   1      33.405  15.479  10.360  0.00  0.00    -0.307 OA
HETATM   76  H   UNK N   1      32.963  15.887  11.121  0.00  0.00     0.222 HD
ENDBRANCH  71  75
ENDBRANCH  70  71
ENDBRANCH  52  70
ENDBRANCH  47  48
ENDBRANCH  46  47
ENDBRANCH   3  46
TORSDOF 38
ENDMDL
MODEL 2
REMARK VINA RESULT:      -6.0      4.332      6.291
REMARK WARNING: 32 MAX_TORS EXCEEDED!!!
REMARK  38 active torsions:
REMARK  status: ('A' for Active; 'I' for Inactive)
REMARK    1  A    between atoms: C_1  and  N_38 
REMARK    2  A    between atoms: C_3  and  O_6 
REMARK    3  A    between atoms: C_4  and  C_32 
REMARK    4  A    between atoms: C_5  and  O_33 
REMARK    5  A    between atoms: N_9  and  C_7 
REMARK    6  A    between atoms: C_7  and  C_8 
REMARK    7  A    between atoms: C_8  and  S_51 
REMARK       I    between atoms: C_10  and  N_9 
REMARK    8  A    between atoms: C_13  and  C_10 
REMARK    9  A    between atoms: C_12  and  N_14 
REMARK   10  A    between atoms: C_13  and  C_12 
REMARK       I    between atoms: C_16  and  N_14 
REMARK   11  A    between atoms: C_16  and  C_21 
REMARK   12  A    between atoms: C_19  and  C_17 
REMARK   13  A    between atoms: C_17  and  O_23 
REMARK   14  A    between atoms: C_21  and  C_19 
REMARK   15  A    between atoms: C_21  and  O_22 
REMARK   16  A    between atoms: O_23  and  P_30 
REMARK   17  A    between atoms: P_30  and  O_24 
REMARK   18  A    between atoms: O_24  and  P_31 
REMARK   19  A    between atoms: P_31  and  O_25 
REMARK   20  A    between atoms: C_32  and  O_25 
REMARK   21  A    between atoms: P_30  and  O_27 
REMARK   22  A    between atoms: O_33  and  P_36 
REMARK   23  A    between atoms: P_36  and  O_34 
REMARK   24  A    between atoms: P_36  and  O_35 
REMARK   25  A    between atoms: N_50  and  C_46 
REMARK   26  A    between atoms: S_51  and  C_53 
REMARK   27  A    between atoms: C_53  and  C_54 
REMARK   28  A    between atoms: C_54  and  C_55 
REMARK   29  A    between atoms: C_55  and  C_56 
REMARK   30  A    between atoms: C_56  and  C_57 
REMARK   31  A    between atoms: C_57  and  C_58 
REMARK   32  A    between atoms: C_58  and  C_59 
REMARK   33  A    between atoms: C_59  and  C_60 
REMARK   34  A    between atoms: C_60  and  C_61 
REMARK   35  A    between atoms: C_61  and  C_62 
REMARK   36  A    between atoms: C_62  and  C_63 
REMARK   37  A    between atoms: C_63  and  C_64 
REMARK   38  A    between atoms: C_64  and  C_65 
ROOT
HETATM    1  O   UNK N   1      31.819  12.969   6.078  0.00  0.00    -0.631 OA
HETATM    2  O   UNK N   1      34.422  13.177   6.297  0.00  0.00    -0.307 OA
HETATM    3  P   UNK N   1      32.896  13.828   6.799  0.00  0.00     0.401 P 
HETATM    4  H   UNK N   1      35.263  12.907   5.897  0.00  0.00     0.222 HD
ENDROOT
BRANCH   3   5
HETATM    5  O   UNK N   1      32.767  15.520   6.303  0.00  0.00    -0.195 OA
BRANCH   5   6
HETATM    6  P   UNK N   1      31.382  15.650   5.246  0.00  0.00     0.401 P 
HETATM    7  O   UNK N   1      31.997  17.073   5.138  0.00  0.00    -0.631 OA
BRANCH   6   8
HETATM    8  O   UNK N   1      29.979  16.675   5.180  0.00  0.00    -0.296 OA
BRANCH   8   9
HETATM    9  C   UNK N   1      28.926  15.801   5.502  0.00  0.00     0.192 C 
BRANCH   9  10
HETATM   10  C   UNK N   1      27.572  16.501   5.740  0.00  0.00     0.009 C 
HETATM   11  C   UNK N   1      26.546  16.183   4.661  0.00  0.00     0.020 C 
HETATM   12  C   UNK N   1      27.039  15.936   7.044  0.00  0.00     0.020 C 
BRANCH  10  13
HETATM   13  C   UNK N   1      27.722  18.025   5.937  0.00  0.00     0.219 C 
BRANCH  13  14
HETATM   14  C   UNK N   1      26.994  18.959   5.006  0.00  0.00     0.247 C 
HETATM   15  N   UNK N   1      25.759  19.427   5.310  0.00  0.00    -0.358 N 
HETATM   16  H   UNK N   1      25.409  19.276   6.218  0.00  0.00     0.162 HD
HETATM   17  O   UNK N   1      27.517  19.245   3.940  0.00  0.00    -0.271 OA
BRANCH  15  18
HETATM   18  C   UNK N   1      24.933  20.139   4.363  0.00  0.00     0.132 C 
BRANCH  18  19
HETATM   19  C   UNK N   1      23.906  19.257   3.668  0.00  0.00     0.122 C 
BRANCH  19  20
HETATM   20  C   UNK N   1      22.812  20.119   3.093  0.00  0.00     0.219 C 
HETATM   21  N   UNK N   1      21.495  19.844   3.291  0.00  0.00    -0.360 N 
HETATM   22  H   UNK N   1      20.825  20.425   2.864  0.00  0.00     0.162 HD
HETATM   23  O   UNK N   1      23.122  21.095   2.432  0.00  0.00    -0.274 OA
BRANCH  21  24
HETATM   24  C   UNK N   1      21.036  18.740   4.097  0.00  0.00     0.133 C 
BRANCH  24  25
HETATM   25  C   UNK N   1      20.425  17.662   3.224  0.00  0.00     0.102 C 
BRANCH  25  26
HETATM   26  S   UNK N   1      20.075  16.217   4.263  0.00  0.00    -0.091 SA
BRANCH  26  27
HETATM   27  C   UNK N   1      21.487  15.346   3.611  0.00  0.00     0.186 C 
HETATM   28  O   UNK N   1      21.404  14.758   2.543  0.00  0.00    -0.286 OA
BRANCH  27  29
HETATM   29  C   UNK N   1      22.766  15.353   4.373  0.00  0.00     0.091 C 
BRANCH  29  30
HETATM   30  C   UNK N   1      22.494  15.724   5.813  0.00  0.00     0.008 C 
BRANCH  30  31
HETATM   31  C   UNK N   1      23.612  15.193   6.689  0.00  0.00     0.000 C 
BRANCH  31  32
HETATM   32  C   UNK N   1      23.544  13.676   6.807  0.00  0.00     0.000 C 
BRANCH  32  33
HETATM   33  C   UNK N   1      24.401  13.124   7.941  0.00  0.00     0.000 C 
BRANCH  33  34
HETATM   34  C   UNK N   1      23.692  13.183   9.283  0.00  0.00     0.000 C 
BRANCH  34  35
HETATM   35  C   UNK N   1      22.329  12.530   9.168  0.00  0.00     0.000 C 
BRANCH  35  36
HETATM   36  C   UNK N   1      21.256  13.406   9.786  0.00  0.00     0.000 C 
BRANCH  36  37
HETATM   37  C   UNK N   1      20.574  14.214   8.697  0.00  0.00     0.000 C 
BRANCH  37  38
HETATM   38  C   UNK N   1      20.655  15.697   9.007  0.00  0.00     0.000 C 
BRANCH  38  39
HETATM   39  C   UNK N   1      19.673  16.471   8.152  0.00  0.00    -0.000 C 
BRANCH  39  40
HETATM   40  C   UNK N   1      19.198  17.687   8.921  0.00  0.00    -0.005 C 
HETATM   41  C   UNK N   1      17.857  17.389   9.557  0.00  0.00     0.005 C 
ENDBRANCH  39  40
ENDBRANCH  38  39
ENDBRANCH  37  38
ENDBRANCH  36  37
ENDBRANCH  35  36
ENDBRANCH  34  35
ENDBRANCH  33  34
ENDBRANCH  32  33
ENDBRANCH  31  32
ENDBRANCH  30  31
ENDBRANCH  29  30
ENDBRANCH  27  29
ENDBRANCH  26  27
ENDBRANCH  25  26
ENDBRANCH  24  25
ENDBRANCH  21  24
ENDBRANCH  19  20
ENDBRANCH  18  19
ENDBRANCH  15  18
ENDBRANCH  13  14
BRANCH  13  42
HETATM   42  O   UNK N   1      27.478  18.390   7.265  0.00  0.00    -0.385 OA
HETATM   43  H   UNK N   1      26.671  18.543   7.780  0.00  0.00     0.210 HD
ENDBRANCH  13  42
ENDBRANCH  10  13
ENDBRANCH   9  10
ENDBRANCH   8   9
ENDBRANCH   6   8
BRANCH   6  44
HETATM   44  O   UNK N   1      30.726  15.644   6.856  0.00  0.00    -0.307 OA
HETATM   45  H   UNK N   1      30.245  14.887   7.224  0.00  0.00     0.222 HD
ENDBRANCH   6  44
ENDBRANCH   5   6
ENDBRANCH   3   5
BRANCH   3  46
HETATM   46  O   UNK N   1      32.673  13.533   8.497  0.00  0.00    -0.294 OA
BRANCH  46  47
HETATM   47  C   UNK N   1      32.676  14.779   9.121  0.00  0.00     0.215 C 
BRANCH  47  48
HETATM   48  C   UNK N   1      33.773  14.861  10.174  0.00  0.00     0.180 C 
HETATM   49  O   UNK N   1      34.448  13.646  10.383  0.00  0.00    -0.353 OA
HETATM   50  C   UNK N   1      35.630  14.021  11.066  0.00  0.00     0.262 C 
HETATM   51  C   UNK N   1      35.770  15.535  10.948  0.00  0.00     0.199 C 
HETATM   52  C   UNK N   1      34.831  15.859   9.830  0.00  0.00     0.197 C 
BRANCH  50  53
HETATM   53  N   UNK N   1      35.539  13.604  12.468  0.00  0.00    -0.297 N 
HETATM   54  C   UNK N   1      34.982  12.499  12.983  0.00  0.00     0.142 A 
HETATM   55  C   UNK N   1      35.149  12.498  14.320  0.00  0.00     0.122 A 
HETATM   56  N   UNK N   1      34.367  11.488  12.326  0.00  0.00    -0.336 N 
HETATM   57  C   UNK N   1      34.684  11.439  15.079  0.00  0.00     0.131 A 
HETATM   58  N   UNK N   1      35.805  13.608  14.701  0.00  0.00    -0.346 N 
HETATM   59  N   UNK N   1      34.062  10.411  14.429  0.00  0.00    -0.337 N 
HETATM   60  C   UNK N   1      33.902  10.433  13.064  0.00  0.00     0.183 A 
ATOM     61  HN  UNK N   1      33.713   9.615  14.964  1.00  0.00     0.168 HD
HETATM   62  C   UNK N   1      36.041  14.275  13.538  0.00  0.00     0.188 A 
ATOM     63  HN  UNK N   1      36.066  13.886  15.647  1.00  0.00     0.167 HD
ATOM     64  HN  UNK N   1      34.253  11.511  11.312  1.00  0.00     0.168 HD
BRANCH  57  65
HETATM   65  N   UNK N   1      34.854  11.409  16.478  0.00  0.00    -0.383 N 
HETATM   66  H   UNK N   1      35.567  10.895  16.923  0.00  0.00     0.157 HD
HETATM   67  H   UNK N   1      34.230  11.926  17.037  0.00  0.00     0.157 HD
ENDBRANCH  57  65
ENDBRANCH  50  53
BRANCH  51  68
HETATM   68  O   UNK N   1      37.081  15.880  10.620  0.00  0.00    -0.388 OA
HETATM   69  H   UNK N   1      37.965  15.675  10.964  0.00  0.00     0.210 HD
ENDBRANCH  51  68
BRANCH  52  70
HETATM   70  O   UNK N   1      34.316  17.157   9.933  0.00  0.00    -0.286 OA
BRANCH  70  71
HETATM   71  P   UNK N   1      34.313  17.858   8.335  0.00  0.00     0.391 P 
HETATM   72  O   UNK N   1      35.028  16.907   7.334  0.00  0.00    -0.632 OA
BRANCH  71  73
HETATM   73  O   UNK N   1      32.696  18.095   7.755  0.00  0.00    -0.307 OA
HETATM   74  H   UNK N   1      31.821  17.868   8.108  0.00  0.00     0.222 HD
ENDBRANCH  71  73
BRANCH  71  75
HETATM   75  O   UNK N   1      35.179  19.354   8.344  0.00  0.00    -0.307 OA
HETATM   76  H   UNK N   1      35.284  19.853   9.170  0.00  0.00     0.222 HD
ENDBRANCH  71  75
ENDBRANCH  70  71
ENDBRANCH  52  70
ENDBRANCH  47  48
ENDBRANCH  46  47
ENDBRANCH   3  46
TORSDOF 38
ENDMDL
MODEL 3
REMARK VINA RESULT:      -6.0      3.735      6.837
REMARK WARNING: 32 MAX_TORS EXCEEDED!!!
REMARK  38 active torsions:
REMARK  status: ('A' for Active; 'I' for Inactive)
REMARK    1  A    between atoms: C_1  and  N_38 
REMARK    2  A    between atoms: C_3  and  O_6 
REMARK    3  A    between atoms: C_4  and  C_32 
REMARK    4  A    between atoms: C_5  and  O_33 
REMARK    5  A    between atoms: N_9  and  C_7 
REMARK    6  A    between atoms: C_7  and  C_8 
REMARK    7  A    between atoms: C_8  and  S_51 
REMARK       I    between atoms: C_10  and  N_9 
REMARK    8  A    between atoms: C_13  and  C_10 
REMARK    9  A    between atoms: C_12  and  N_14 
REMARK   10  A    between atoms: C_13  and  C_12 
REMARK       I    between atoms: C_16  and  N_14 
REMARK   11  A    between atoms: C_16  and  C_21 
REMARK   12  A    between atoms: C_19  and  C_17 
REMARK   13  A    between atoms: C_17  and  O_23 
REMARK   14  A    between atoms: C_21  and  C_19 
REMARK   15  A    between atoms: C_21  and  O_22 
REMARK   16  A    between atoms: O_23  and  P_30 
REMARK   17  A    between atoms: P_30  and  O_24 
REMARK   18  A    between atoms: O_24  and  P_31 
REMARK   19  A    between atoms: P_31  and  O_25 
REMARK   20  A    between atoms: C_32  and  O_25 
REMARK   21  A    between atoms: P_30  and  O_27 
REMARK   22  A    between atoms: O_33  and  P_36 
REMARK   23  A    between atoms: P_36  and  O_34 
REMARK   24  A    between atoms: P_36  and  O_35 
REMARK   25  A    between atoms: N_50  and  C_46 
REMARK   26  A    between atoms: S_51  and  C_53 
REMARK   27  A    between atoms: C_53  and  C_54 
REMARK   28  A    between atoms: C_54  and  C_55 
REMARK   29  A    between atoms: C_55  and  C_56 
REMARK   30  A    between atoms: C_56  and  C_57 
REMARK   31  A    between atoms: C_57  and  C_58 
REMARK   32  A    between atoms: C_58  and  C_59 
REMARK   33  A    between atoms: C_59  and  C_60 
REMARK   34  A    between atoms: C_60  and  C_61 
REMARK   35  A    between atoms: C_61  and  C_62 
REMARK   36  A    between atoms: C_62  and  C_63 
REMARK   37  A    between atoms: C_63  and  C_64 
REMARK   38  A    between atoms: C_64  and  C_65 
ROOT
HETATM    1  O   UNK N   1      29.477  18.781   9.855  0.00  0.00    -0.631 OA
HETATM    2  O   UNK N   1      27.390  17.215   9.617  0.00  0.00    -0.307 OA
HETATM    3  P   UNK N   1      28.548  18.182   8.762  0.00  0.00     0.401 P 
HETATM    4  H   UNK N   1      26.663  16.804  10.110  0.00  0.00     0.222 HD
ENDROOT
BRANCH   3   5
HETATM    5  O   UNK N   1      27.723  19.472   7.879  0.00  0.00    -0.195 OA
BRANCH   5   6
HETATM    6  P   UNK N   1      28.049  19.232   6.180  0.00  0.00     0.401 P 
HETATM    7  O   UNK N   1      27.013  20.389   6.143  0.00  0.00    -0.631 OA
BRANCH   6   8
HETATM    8  O   UNK N   1      27.084  18.844   4.786  0.00  0.00    -0.296 OA
BRANCH   8   9
HETATM    9  C   UNK N   1      25.960  19.676   4.931  0.00  0.00     0.192 C 
BRANCH   9  10
HETATM   10  C   UNK N   1      24.757  19.275   4.052  0.00  0.00     0.009 C 
HETATM   11  C   UNK N   1      24.176  20.449   3.275  0.00  0.00     0.020 C 
HETATM   12  C   UNK N   1      25.300  18.289   3.034  0.00  0.00     0.020 C 
BRANCH  10  13
HETATM   13  C   UNK N   1      23.661  18.538   4.852  0.00  0.00     0.219 C 
BRANCH  13  14
HETATM   14  C   UNK N   1      22.392  18.129   4.152  0.00  0.00     0.247 C 
HETATM   15  N   UNK N   1      22.248  16.884   3.636  0.00  0.00    -0.358 N 
HETATM   16  H   UNK N   1      22.919  16.200   3.863  0.00  0.00     0.162 HD
HETATM   17  O   UNK N   1      21.511  18.963   4.007  0.00  0.00    -0.271 OA
BRANCH  15  18
HETATM   18  C   UNK N   1      21.153  16.514   2.770  0.00  0.00     0.132 C 
BRANCH  18  19
HETATM   19  C   UNK N   1      20.397  15.280   3.238  0.00  0.00     0.122 C 
BRANCH  19  20
HETATM   20  C   UNK N   1      19.674  15.592   4.523  0.00  0.00     0.219 C 
HETATM   21  N   UNK N   1      19.704  14.754   5.593  0.00  0.00    -0.360 N 
HETATM   22  H   UNK N   1      19.187  14.997   6.394  0.00  0.00     0.162 HD
HETATM   23  O   UNK N   1      19.045  16.634   4.603  0.00  0.00    -0.274 OA
BRANCH  21  24
HETATM   24  C   UNK N   1      20.460  13.526   5.606  0.00  0.00     0.133 C 
BRANCH  24  25
HETATM   25  C   UNK N   1      20.847  13.156   7.024  0.00  0.00     0.102 C 
BRANCH  25  26
HETATM   26  S   UNK N   1      20.748  14.647   8.051  0.00  0.00    -0.091 SA
BRANCH  26  27
HETATM   27  C   UNK N   1      20.969  13.694   9.542  0.00  0.00     0.186 C 
HETATM   28  O   UNK N   1      19.996  13.265  10.143  0.00  0.00    -0.286 OA
BRANCH  27  29
HETATM   29  C   UNK N   1      22.345  13.418  10.036  0.00  0.00     0.091 C 
BRANCH  29  30
HETATM   30  C   UNK N   1      22.634  11.937   9.927  0.00  0.00     0.008 C 
BRANCH  30  31
HETATM   31  C   UNK N   1      23.882  11.728   9.091  0.00  0.00     0.000 C 
BRANCH  31  32
HETATM   32  C   UNK N   1      24.514  13.059   8.705  0.00  0.00     0.000 C 
BRANCH  32  33
HETATM   33  C   UNK N   1      24.780  13.185   7.209  0.00  0.00     0.000 C 
BRANCH  33  34
HETATM   34  C   UNK N   1      24.640  11.859   6.483  0.00  0.00     0.000 C 
BRANCH  34  35
HETATM   35  C   UNK N   1      23.848  12.058   5.205  0.00  0.00     0.000 C 
BRANCH  35  36
HETATM   36  C   UNK N   1      24.223  13.367   4.537  0.00  0.00     0.000 C 
BRANCH  36  37
HETATM   37  C   UNK N   1      23.566  13.445   3.172  0.00  0.00     0.000 C 
BRANCH  37  38
HETATM   38  C   UNK N   1      24.457  14.188   2.195  0.00  0.00     0.000 C 
BRANCH  38  39
HETATM   39  C   UNK N   1      25.561  14.917   2.933  0.00  0.00    -0.000 C 
BRANCH  39  40
HETATM   40  C   UNK N   1      26.862  14.739   2.179  0.00  0.00    -0.005 C 
HETATM   41  C   UNK N   1      27.222  13.269   2.133  0.00  0.00     0.005 C 
ENDBRANCH  39  40
ENDBRANCH  38  39
ENDBRANCH  37  38
ENDBRANCH  36  37
ENDBRANCH  35  36
ENDBRANCH  34  35
ENDBRANCH  33  34
ENDBRANCH  32  33
ENDBRANCH  31  32
ENDBRANCH  30  31
ENDBRANCH  29  30
ENDBRANCH  27  29
ENDBRANCH  26  27
ENDBRANCH  25  26
ENDBRANCH  24  25
ENDBRANCH  21  24
ENDBRANCH  19  20
ENDBRANCH  18  19
ENDBRANCH  15  18
ENDBRANCH  13  14
BRANCH  13  42
HETATM   42  O   UNK N   1      24.192  17.448   5.552  0.00  0.00    -0.385 OA
HETATM   43  H   UNK N   1      25.053  17.003   5.543  0.00  0.00     0.210 HD
ENDBRANCH  13  42
ENDBRANCH  10  13
ENDBRANCH   9  10
ENDBRANCH   8   9
ENDBRANCH   6   8
BRANCH   6  44
HETATM   44  O   UNK N   1      27.078  17.871   6.652  0.00  0.00    -0.307 OA
HETATM   45  H   UNK N   1      27.454  17.067   7.043  0.00  0.00     0.222 HD
ENDBRANCH   6  44
ENDBRANCH   5   6
ENDBRANCH   3   5
BRANCH   3  46
HETATM   46  O   UNK N   1      29.561  17.151   7.798  0.00  0.00    -0.294 OA
BRANCH  46  47
HETATM   47  C   UNK N   1      30.876  17.450   8.143  0.00  0.00     0.215 C 
BRANCH  47  48
HETATM   48  C   UNK N   1      31.819  16.327   7.734  0.00  0.00     0.180 C 
HETATM   49  O   UNK N   1      32.082  15.407   8.764  0.00  0.00    -0.353 OA
HETATM   50  C   UNK N   1      32.624  14.284   8.093  0.00  0.00     0.262 C 
HETATM   51  C   UNK N   1      32.353  14.462   6.603  0.00  0.00     0.199 C 
HETATM   52  C   UNK N   1      31.295  15.518   6.591  0.00  0.00     0.197 C 
BRANCH  50  53
HETATM   53  N   UNK N   1      34.062  14.196   8.365  0.00  0.00    -0.297 N 
HETATM   54  C   UNK N   1      34.767  14.766   9.351  0.00  0.00     0.142 A 
HETATM   55  C   UNK N   1      36.059  14.397   9.244  0.00  0.00     0.122 A 
HETATM   56  N   UNK N   1      34.319  15.564  10.349  0.00  0.00    -0.336 N 
HETATM   57  C   UNK N   1      36.987  14.834  10.173  0.00  0.00     0.131 A 
HETATM   58  N   UNK N   1      36.220  13.592   8.180  0.00  0.00    -0.346 N 
HETATM   59  N   UNK N   1      36.548  15.639  11.186  0.00  0.00    -0.337 N 
HETATM   60  C   UNK N   1      35.226  16.003  11.275  0.00  0.00     0.183 A 
ATOM     61  HN  UNK N   1      37.211  15.972  11.886  1.00  0.00     0.168 HD
HETATM   62  C   UNK N   1      34.969  13.478   7.653  0.00  0.00     0.188 A 
ATOM     63  HN  UNK N   1      37.083  13.166   7.842  1.00  0.00     0.167 HD
ATOM     64  HN  UNK N   1      33.335  15.828  10.409  1.00  0.00     0.168 HD
BRANCH  57  65
HETATM   65  N   UNK N   1      38.343  14.456  10.089  0.00  0.00    -0.383 N 
HETATM   66  H   UNK N   1      38.637  13.583   9.742  0.00  0.00     0.157 HD
HETATM   67  H   UNK N   1      39.027  15.094  10.393  0.00  0.00     0.157 HD
ENDBRANCH  57  65
ENDBRANCH  50  53
BRANCH  51  68
HETATM   68  O   UNK N   1      31.883  13.273   6.045  0.00  0.00    -0.388 OA
HETATM   69  H   UNK N   1      31.015  12.900   5.824  0.00  0.00     0.210 HD
ENDBRANCH  51  68
BRANCH  52  70
HETATM   70  O   UNK N   1      31.319  16.278   5.416  0.00  0.00    -0.286 OA
BRANCH  70  71
HETATM   71  P   UNK N   1      29.895  15.878   4.492  0.00  0.00     0.391 P 
HETATM   72  O   UNK N   1      30.153  14.604   3.639  0.00  0.00    -0.632 OA
BRANCH  71  73
HETATM   73  O   UNK N   1      28.547  15.539   5.529  0.00  0.00    -0.307 OA
HETATM   74  H   UNK N   1      27.698  15.981   5.686  0.00  0.00     0.222 HD
ENDBRANCH  71  73
BRANCH  71  75
HETATM   75  O   UNK N   1      29.514  17.167   3.405  0.00  0.00    -0.307 OA
HETATM   76  H   UNK N   1      28.935  17.009   2.642  0.00  0.00     0.222 HD
ENDBRANCH  71  75
ENDBRANCH  70  71
ENDBRANCH  52  70
ENDBRANCH  47  48
ENDBRANCH  46  47
ENDBRANCH   3  46
TORSDOF 38
ENDMDL
MODEL 4
REMARK VINA RESULT:      -5.9      4.350      6.605
REMARK WARNING: 32 MAX_TORS EXCEEDED!!!
REMARK  38 active torsions:
REMARK  status: ('A' for Active; 'I' for Inactive)
REMARK    1  A    between atoms: C_1  and  N_38 
REMARK    2  A    between atoms: C_3  and  O_6 
REMARK    3  A    between atoms: C_4  and  C_32 
REMARK    4  A    between atoms: C_5  and  O_33 
REMARK    5  A    between atoms: N_9  and  C_7 
REMARK    6  A    between atoms: C_7  and  C_8 
REMARK    7  A    between atoms: C_8  and  S_51 
REMARK       I    between atoms: C_10  and  N_9 
REMARK    8  A    between atoms: C_13  and  C_10 
REMARK    9  A    between atoms: C_12  and  N_14 
REMARK   10  A    between atoms: C_13  and  C_12 
REMARK       I    between atoms: C_16  and  N_14 
REMARK   11  A    between atoms: C_16  and  C_21 
REMARK   12  A    between atoms: C_19  and  C_17 
REMARK   13  A    between atoms: C_17  and  O_23 
REMARK   14  A    between atoms: C_21  and  C_19 
REMARK   15  A    between atoms: C_21  and  O_22 
REMARK   16  A    between atoms: O_23  and  P_30 
REMARK   17  A    between atoms: P_30  and  O_24 
REMARK   18  A    between atoms: O_24  and  P_31 
REMARK   19  A    between atoms: P_31  and  O_25 
REMARK   20  A    between atoms: C_32  and  O_25 
REMARK   21  A    between atoms: P_30  and  O_27 
REMARK   22  A    between atoms: O_33  and  P_36 
REMARK   23  A    between atoms: P_36  and  O_34 
REMARK   24  A    between atoms: P_36  and  O_35 
REMARK   25  A    between atoms: N_50  and  C_46 
REMARK   26  A    between atoms: S_51  and  C_53 
REMARK   27  A    between atoms: C_53  and  C_54 
REMARK   28  A    between atoms: C_54  and  C_55 
REMARK   29  A    between atoms: C_55  and  C_56 
REMARK   30  A    between atoms: C_56  and  C_57 
REMARK   31  A    between atoms: C_57  and  C_58 
REMARK   32  A    between atoms: C_58  and  C_59 
REMARK   33  A    between atoms: C_59  and  C_60 
REMARK   34  A    between atoms: C_60  and  C_61 
REMARK   35  A    between atoms: C_61  and  C_62 
REMARK   36  A    between atoms: C_62  and  C_63 
REMARK   37  A    between atoms: C_63  and  C_64 
REMARK   38  A    between atoms: C_64  and  C_65 
ROOT
HETATM    1  O   UNK N   1      31.847  13.192   6.170  0.00  0.00    -0.631 OA
HETATM    2  O   UNK N   1      34.418  13.604   6.467  0.00  0.00    -0.307 OA
HETATM    3  P   UNK N   1      32.832  14.103   6.957  0.00  0.00     0.401 P 
HETATM    4  H   UNK N   1      35.288  13.423   6.078  0.00  0.00     0.222 HD
ENDROOT
BRANCH   3   5
HETATM    5  O   UNK N   1      32.574  15.800   6.533  0.00  0.00    -0.195 OA
BRANCH   5   6
HETATM    6  P   UNK N   1      31.326  15.849   5.311  0.00  0.00     0.401 P 
HETATM    7  O   UNK N   1      31.930  17.276   5.204  0.00  0.00    -0.631 OA
BRANCH   6   8
HETATM    8  O   UNK N   1      29.927  16.840   5.021  0.00  0.00    -0.296 OA
BRANCH   8   9
HETATM    9  C   UNK N   1      28.859  15.936   5.156  0.00  0.00     0.192 C 
BRANCH   9  10
HETATM   10  C   UNK N   1      27.497  16.603   5.443  0.00  0.00     0.009 C 
HETATM   11  C   UNK N   1      26.521  16.475   4.282  0.00  0.00     0.020 C 
HETATM   12  C   UNK N   1      26.903  15.841   6.614  0.00  0.00     0.020 C 
BRANCH  10  13
HETATM   13  C   UNK N   1      27.643  18.074   5.891  0.00  0.00     0.219 C 
BRANCH  13  14
HETATM   14  C   UNK N   1      26.967  19.154   5.088  0.00  0.00     0.247 C 
HETATM   15  N   UNK N   1      25.661  19.459   5.288  0.00  0.00    -0.358 N 
HETATM   16  H   UNK N   1      25.202  19.076   6.070  0.00  0.00     0.162 HD
HETATM   17  O   UNK N   1      27.604  19.716   4.211  0.00  0.00    -0.271 OA
BRANCH  15  18
HETATM   18  C   UNK N   1      24.911  20.321   4.404  0.00  0.00     0.132 C 
BRANCH  18  19
HETATM   19  C   UNK N   1      24.138  19.569   3.332  0.00  0.00     0.122 C 
BRANCH  19  20
HETATM   20  C   UNK N   1      22.845  20.289   3.047  0.00  0.00     0.219 C 
HETATM   21  N   UNK N   1      21.639  19.666   3.118  0.00  0.00    -0.360 N 
HETATM   22  H   UNK N   1      20.831  20.180   2.891  0.00  0.00     0.162 HD
HETATM   23  O   UNK N   1      22.887  21.471   2.748  0.00  0.00    -0.274 OA
BRANCH  21  24
HETATM   24  C   UNK N   1      21.490  18.286   3.510  0.00  0.00     0.133 C 
BRANCH  24  25
HETATM   25  C   UNK N   1      20.655  17.532   2.494  0.00  0.00     0.102 C 
BRANCH  25  26
HETATM   26  S   UNK N   1      20.466  15.822   3.067  0.00  0.00    -0.091 SA
BRANCH  26  27
HETATM   27  C   UNK N   1      21.788  15.269   2.006  0.00  0.00     0.186 C 
HETATM   28  O   UNK N   1      21.572  15.048   0.824  0.00  0.00    -0.286 OA
BRANCH  27  29
HETATM   29  C   UNK N   1      23.153  15.092   2.571  0.00  0.00     0.091 C 
BRANCH  29  30
HETATM   30  C   UNK N   1      23.068  15.006   4.079  0.00  0.00     0.008 C 
BRANCH  30  31
HETATM   31  C   UNK N   1      23.230  13.561   4.510  0.00  0.00     0.000 C 
BRANCH  31  32
HETATM   32  C   UNK N   1      24.372  13.410   5.507  0.00  0.00     0.000 C 
BRANCH  32  33
HETATM   33  C   UNK N   1      24.782  11.958   5.734  0.00  0.00     0.000 C 
BRANCH  33  34
HETATM   34  C   UNK N   1      25.971  11.553   4.880  0.00  0.00     0.000 C 
BRANCH  34  35
HETATM   35  C   UNK N   1      26.856  12.759   4.634  0.00  0.00     0.000 C 
BRANCH  35  36
HETATM   36  C   UNK N   1      27.358  12.778   3.203  0.00  0.00     0.000 C 
BRANCH  36  37
HETATM   37  C   UNK N   1      26.207  13.094   2.268  0.00  0.00     0.000 C 
BRANCH  37  38
HETATM   38  C   UNK N   1      25.841  11.874   1.443  0.00  0.00     0.000 C 
BRANCH  38  39
HETATM   39  C   UNK N   1      24.384  11.515   1.645  0.00  0.00    -0.000 C 
BRANCH  39  40
HETATM   40  C   UNK N   1      23.736  11.296   0.295  0.00  0.00    -0.005 C 
HETATM   41  C   UNK N   1      23.587  12.624  -0.416  0.00  0.00     0.005 C 
ENDBRANCH  39  40
ENDBRANCH  38  39
ENDBRANCH  37  38
ENDBRANCH  36  37
ENDBRANCH  35  36
ENDBRANCH  34  35
ENDBRANCH  33  34
ENDBRANCH  32  33
ENDBRANCH  31  32
ENDBRANCH  30  31
ENDBRANCH  29  30
ENDBRANCH  27  29
ENDBRANCH  26  27
ENDBRANCH  25  26
ENDBRANCH  24  25
ENDBRANCH  21  24
ENDBRANCH  19  20
ENDBRANCH  18  19
ENDBRANCH  15  18
ENDBRANCH  13  14
BRANCH  13  42
HETATM   42  O   UNK N   1      27.335  18.223   7.247  0.00  0.00    -0.385 OA
HETATM   43  H   UNK N   1      27.815  18.031   8.068  0.00  0.00     0.210 HD
ENDBRANCH  13  42
ENDBRANCH  10  13
ENDBRANCH   9  10
ENDBRANCH   8   9
ENDBRANCH   6   8
BRANCH   6  44
HETATM   44  O   UNK N   1      30.479  15.909   6.827  0.00  0.00    -0.307 OA
HETATM   45  H   UNK N   1      29.555  16.193   6.902  0.00  0.00     0.222 HD
ENDBRANCH   6  44
ENDBRANCH   5   6
ENDBRANCH   3   5
BRANCH   3  46
HETATM   46  O   UNK N   1      32.595  13.712   8.633  0.00  0.00    -0.294 OA
BRANCH  46  47
HETATM   47  C   UNK N   1      32.617  14.917   9.330  0.00  0.00     0.215 C 
BRANCH  47  48
HETATM   48  C   UNK N   1      33.772  14.956  10.321  0.00  0.00     0.180 C 
HETATM   49  O   UNK N   1      34.386  13.708  10.523  0.00  0.00    -0.353 OA
HETATM   50  C   UNK N   1      35.622  14.026  11.134  0.00  0.00     0.262 C 
HETATM   51  C   UNK N   1      35.845  15.526  10.972  0.00  0.00     0.199 C 
HETATM   52  C   UNK N   1      34.868  15.882   9.898  0.00  0.00     0.197 C 
BRANCH  50  53
HETATM   53  N   UNK N   1      35.584  13.645  12.549  0.00  0.00    -0.297 N 
HETATM   54  C   UNK N   1      35.024  12.566  13.115  0.00  0.00     0.142 A 
HETATM   55  C   UNK N   1      35.250  12.594  14.443  0.00  0.00     0.122 A 
HETATM   56  N   UNK N   1      34.358  11.555  12.510  0.00  0.00    -0.336 N 
HETATM   57  C   UNK N   1      34.795  11.564  15.248  0.00  0.00     0.131 A 
HETATM   58  N   UNK N   1      35.947  13.696  14.768  0.00  0.00    -0.346 N 
HETATM   59  N   UNK N   1      34.122  10.536  14.651  0.00  0.00    -0.337 N 
HETATM   60  C   UNK N   1      33.903  10.529  13.294  0.00  0.00     0.183 A 
ATOM     61  HN  UNK N   1      33.778   9.762  15.220  1.00  0.00     0.168 HD
HETATM   62  C   UNK N   1      36.147  14.330  13.579  0.00  0.00     0.188 A 
ATOM     63  HN  UNK N   1      36.255  13.991  15.694  1.00  0.00     0.167 HD
ATOM     64  HN  UNK N   1      34.202  11.556  11.502  1.00  0.00     0.168 HD
BRANCH  57  65
HETATM   65  N   UNK N   1      35.025  11.564  16.639  0.00  0.00    -0.383 N 
HETATM   66  H   UNK N   1      35.290  10.759  17.140  0.00  0.00     0.157 HD
HETATM   67  H   UNK N   1      34.915  12.409  17.132  0.00  0.00     0.157 HD
ENDBRANCH  57  65
ENDBRANCH  50  53
BRANCH  51  68
HETATM   68  O   UNK N   1      37.154  15.785  10.566  0.00  0.00    -0.388 OA
HETATM   69  H   UNK N   1      37.690  15.605   9.778  0.00  0.00     0.210 HD
ENDBRANCH  51  68
BRANCH  52  70
HETATM   70  O   UNK N   1      34.436  17.210   9.995  0.00  0.00    -0.286 OA
BRANCH  70  71
HETATM   71  P   UNK N   1      34.411  17.883   8.386  0.00  0.00     0.391 P 
HETATM   72  O   UNK N   1      35.272  19.176   8.335  0.00  0.00    -0.632 OA
BRANCH  71  73
HETATM   73  O   UNK N   1      35.079  16.775   7.231  0.00  0.00    -0.307 OA
HETATM   74  H   UNK N   1      35.373  16.867   6.311  0.00  0.00     0.222 HD
ENDBRANCH  71  73
BRANCH  71  75
HETATM   75  O   UNK N   1      32.795  18.313   7.949  0.00  0.00    -0.307 OA
HETATM   76  H   UNK N   1      32.276  18.905   8.517  0.00  0.00     0.222 HD
ENDBRANCH  71  75
ENDBRANCH  70  71
ENDBRANCH  52  70
ENDBRANCH  47  48
ENDBRANCH  46  47
ENDBRANCH   3  46
TORSDOF 38
ENDMDL
MODEL 5
REMARK VINA RESULT:      -5.8      4.745     10.604
REMARK WARNING: 32 MAX_TORS EXCEEDED!!!
REMARK  38 active torsions:
REMARK  status: ('A' for Active; 'I' for Inactive)
REMARK    1  A    between atoms: C_1  and  N_38 
REMARK    2  A    between atoms: C_3  and  O_6 
REMARK    3  A    between atoms: C_4  and  C_32 
REMARK    4  A    between atoms: C_5  and  O_33 
REMARK    5  A    between atoms: N_9  and  C_7 
REMARK    6  A    between atoms: C_7  and  C_8 
REMARK    7  A    between atoms: C_8  and  S_51 
REMARK       I    between atoms: C_10  and  N_9 
REMARK    8  A    between atoms: C_13  and  C_10 
REMARK    9  A    between atoms: C_12  and  N_14 
REMARK   10  A    between atoms: C_13  and  C_12 
REMARK       I    between atoms: C_16  and  N_14 
REMARK   11  A    between atoms: C_16  and  C_21 
REMARK   12  A    between atoms: C_19  and  C_17 
REMARK   13  A    between atoms: C_17  and  O_23 
REMARK   14  A    between atoms: C_21  and  C_19 
REMARK   15  A    between atoms: C_21  and  O_22 
REMARK   16  A    between atoms: O_23  and  P_30 
REMARK   17  A    between atoms: P_30  and  O_24 
REMARK   18  A    between atoms: O_24  and  P_31 
REMARK   19  A    between atoms: P_31  and  O_25 
REMARK   20  A    between atoms: C_32  and  O_25 
REMARK   21  A    between atoms: P_30  and  O_27 
REMARK   22  A    between atoms: O_33  and  P_36 
REMARK   23  A    between atoms: P_36  and  O_34 
REMARK   24  A    between atoms: P_36  and  O_35 
REMARK   25  A    between atoms: N_50  and  C_46 
REMARK   26  A    between atoms: S_51  and  C_53 
REMARK   27  A    between atoms: C_53  and  C_54 
REMARK   28  A    between atoms: C_54  and  C_55 
REMARK   29  A    between atoms: C_55  and  C_56 
REMARK   30  A    between atoms: C_56  and  C_57 
REMARK   31  A    between atoms: C_57  and  C_58 
REMARK   32  A    between atoms: C_58  and  C_59 
REMARK   33  A    between atoms: C_59  and  C_60 
REMARK   34  A    between atoms: C_60  and  C_61 
REMARK   35  A    between atoms: C_61  and  C_62 
REMARK   36  A    between atoms: C_62  and  C_63 
REMARK   37  A    between atoms: C_63  and  C_64 
REMARK   38  A    between atoms: C_64  and  C_65 
ROOT
HETATM    1  O   UNK N   1      19.418  15.528   7.197  0.00  0.00    -0.631 OA
HETATM    2  O   UNK N   1      20.279  17.273   8.952  0.00  0.00    -0.307 OA
HETATM    3  P   UNK N   1      20.641  16.448   7.471  0.00  0.00     0.401 P 
HETATM    4  H   UNK N   1      20.136  17.614   9.849  0.00  0.00     0.222 HD
ENDROOT
BRANCH   3   5
HETATM    5  O   UNK N   1      22.109  15.480   7.663  0.00  0.00    -0.195 OA
BRANCH   5   6
HETATM    6  P   UNK N   1      21.613  13.823   7.904  0.00  0.00     0.401 P 
HETATM    7  O   UNK N   1      23.040  13.819   8.519  0.00  0.00    -0.631 OA
BRANCH   6   8
HETATM    8  O   UNK N   1      22.237  12.271   7.426  0.00  0.00    -0.296 OA
BRANCH   8   9
HETATM    9  C   UNK N   1      21.327  11.848   6.441  0.00  0.00     0.192 C 
BRANCH   9  10
HETATM   10  C   UNK N   1      21.808  10.638   5.613  0.00  0.00     0.009 C 
HETATM   11  C   UNK N   1      22.814   9.774   6.361  0.00  0.00     0.020 C 
HETATM   12  C   UNK N   1      20.575   9.785   5.374  0.00  0.00     0.020 C 
BRANCH  10  13
HETATM   13  C   UNK N   1      22.347  11.050   4.226  0.00  0.00     0.219 C 
BRANCH  13  14
HETATM   14  C   UNK N   1      23.724  11.650   4.124  0.00  0.00     0.247 C 
HETATM   15  N   UNK N   1      24.073  12.729   4.868  0.00  0.00    -0.358 N 
HETATM   16  H   UNK N   1      23.469  13.018   5.590  0.00  0.00     0.162 HD
HETATM   17  O   UNK N   1      24.508  11.180   3.314  0.00  0.00    -0.271 OA
BRANCH  15  18
HETATM   18  C   UNK N   1      25.292  13.473   4.649  0.00  0.00     0.132 C 
BRANCH  18  19
HETATM   19  C   UNK N   1      25.058  14.941   4.326  0.00  0.00     0.122 C 
BRANCH  19  20
HETATM   20  C   UNK N   1      25.261  15.767   5.570  0.00  0.00     0.219 C 
HETATM   21  N   UNK N   1      25.365  17.122   5.530  0.00  0.00    -0.360 N 
HETATM   22  H   UNK N   1      25.527  17.605   6.372  0.00  0.00     0.162 HD
HETATM   23  O   UNK N   1      25.329  15.198   6.646  0.00  0.00    -0.274 OA
BRANCH  21  24
HETATM   24  C   UNK N   1      25.248  17.882   4.310  0.00  0.00     0.133 C 
BRANCH  24  25
HETATM   25  C   UNK N   1      25.461  19.358   4.582  0.00  0.00     0.102 C 
BRANCH  25  26
HETATM   26  S   UNK N   1      27.205  19.750   4.276  0.00  0.00    -0.091 SA
BRANCH  26  27
HETATM   27  C   UNK N   1      27.355  20.548   5.863  0.00  0.00     0.186 C 
HETATM   28  O   UNK N   1      27.144  21.746   5.968  0.00  0.00    -0.286 OA
BRANCH  27  29
HETATM   29  C   UNK N   1      27.727  19.739   7.056  0.00  0.00     0.091 C 
BRANCH  29  30
HETATM   30  C   UNK N   1      28.444  18.484   6.611  0.00  0.00     0.008 C 
BRANCH  30  31
HETATM   31  C   UNK N   1      28.614  17.554   7.797  0.00  0.00     0.000 C 
BRANCH  31  32
HETATM   32  C   UNK N   1      30.040  17.026   7.881  0.00  0.00     0.000 C 
BRANCH  32  33
HETATM   33  C   UNK N   1      30.935  17.857   8.795  0.00  0.00     0.000 C 
BRANCH  33  34
HETATM   34  C   UNK N   1      32.261  18.208   8.144  0.00  0.00     0.000 C 
BRANCH  34  35
HETATM   35  C   UNK N   1      33.341  17.274   8.653  0.00  0.00     0.000 C 
BRANCH  35  36
HETATM   36  C   UNK N   1      34.072  16.614   7.500  0.00  0.00     0.000 C 
BRANCH  36  37
HETATM   37  C   UNK N   1      33.280  15.413   7.020  0.00  0.00     0.000 C 
BRANCH  37  38
HETATM   38  C   UNK N   1      32.719  15.666   5.633  0.00  0.00     0.000 C 
BRANCH  38  39
HETATM   39  C   UNK N   1      33.598  16.641   4.876  0.00  0.00    -0.000 C 
BRANCH  39  40
HETATM   40  C   UNK N   1      32.731  17.485   3.966  0.00  0.00    -0.005 C 
HETATM   41  C   UNK N   1      31.305  17.473   4.473  0.00  0.00     0.005 C 
ENDBRANCH  39  40
ENDBRANCH  38  39
ENDBRANCH  37  38
ENDBRANCH  36  37
ENDBRANCH  35  36
ENDBRANCH  34  35
ENDBRANCH  33  34
ENDBRANCH  32  33
ENDBRANCH  31  32
ENDBRANCH  30  31
ENDBRANCH  29  30
ENDBRANCH  27  29
ENDBRANCH  26  27
ENDBRANCH  25  26
ENDBRANCH  24  25
ENDBRANCH  21  24
ENDBRANCH  19  20
ENDBRANCH  18  19
ENDBRANCH  15  18
ENDBRANCH  13  14
BRANCH  13  42
HETATM   42  O   UNK N   1      22.212  10.008   3.301  0.00  0.00    -0.385 OA
HETATM   43  H   UNK N   1      21.728   9.167   3.306  0.00  0.00     0.210 HD
ENDBRANCH  13  42
ENDBRANCH  10  13
ENDBRANCH   9  10
ENDBRANCH   8   9
ENDBRANCH   6   8
BRANCH   6  44
HETATM   44  O   UNK N   1      21.936  13.957   6.202  0.00  0.00    -0.307 OA
HETATM   45  H   UNK N   1      21.487  13.411   5.537  0.00  0.00     0.222 HD
ENDBRANCH   6  44
ENDBRANCH   5   6
ENDBRANCH   3   5
BRANCH   3  46
HETATM   46  O   UNK N   1      20.671  17.592   6.164  0.00  0.00    -0.294 OA
BRANCH  46  47
HETATM   47  C   UNK N   1      21.795  17.292   5.398  0.00  0.00     0.215 C 
BRANCH  47  48
HETATM   48  C   UNK N   1      21.398  16.828   4.003  0.00  0.00     0.180 C 
HETATM   49  O   UNK N   1      20.427  15.812   4.000  0.00  0.00    -0.353 OA
HETATM   50  C   UNK N   1      19.932  15.812   2.674  0.00  0.00     0.262 C 
HETATM   51  C   UNK N   1      20.418  17.090   2.000  0.00  0.00     0.199 C 
HETATM   52  C   UNK N   1      20.835  17.930   3.165  0.00  0.00     0.197 C 
BRANCH  50  53
HETATM   53  N   UNK N   1      20.418  14.622   1.969  0.00  0.00    -0.297 N 
HETATM   54  C   UNK N   1      19.994  13.354   2.067  0.00  0.00     0.142 A 
HETATM   55  C   UNK N   1      20.700  12.582   1.217  0.00  0.00     0.122 A 
HETATM   56  N   UNK N   1      19.001  12.861   2.844  0.00  0.00    -0.336 N 
HETATM   57  C   UNK N   1      20.424  11.230   1.111  0.00  0.00     0.131 A 
HETATM   58  N   UNK N   1      21.603  13.330   0.561  0.00  0.00    -0.346 N 
HETATM   59  N   UNK N   1      19.423  10.720   1.888  0.00  0.00    -0.337 N 
HETATM   60  C   UNK N   1      18.716  11.525   2.749  0.00  0.00     0.183 A 
ATOM     61  HN  UNK N   1      19.196   9.727   1.828  1.00  0.00     0.168 HD
HETATM   62  C   UNK N   1      21.408  14.590   1.039  0.00  0.00     0.188 A 
ATOM     63  HN  UNK N   1      22.282  13.023  -0.136  1.00  0.00     0.167 HD
ATOM     64  HN  UNK N   1      18.480  13.466   3.479  1.00  0.00     0.168 HD
BRANCH  57  65
HETATM   65  N   UNK N   1      21.140  10.403   0.223  0.00  0.00    -0.383 N 
HETATM   66  H   UNK N   1      20.948  10.355  -0.741  0.00  0.00     0.157 HD
HETATM   67  H   UNK N   1      21.867   9.846   0.585  0.00  0.00     0.157 HD
ENDBRANCH  57  65
ENDBRANCH  50  53
BRANCH  51  68
HETATM   68  O   UNK N   1      19.379  17.694   1.290  0.00  0.00    -0.388 OA
HETATM   69  H   UNK N   1      18.540  18.126   1.514  0.00  0.00     0.210 HD
ENDBRANCH  51  68
BRANCH  52  70
HETATM   70  O   UNK N   1      21.845  18.838   2.827  0.00  0.00    -0.286 OA
BRANCH  70  71
HETATM   71  P   UNK N   1      21.123  20.423   2.717  0.00  0.00     0.391 P 
HETATM   72  O   UNK N   1      20.150  20.649   3.908  0.00  0.00    -0.632 OA
BRANCH  71  73
HETATM   73  O   UNK N   1      22.328  21.668   2.792  0.00  0.00    -0.307 OA
HETATM   74  H   UNK N   1      22.292  22.620   2.978  0.00  0.00     0.222 HD
ENDBRANCH  71  73
BRANCH  71  75
HETATM   75  O   UNK N   1      20.205  20.554   1.258  0.00  0.00    -0.307 OA
HETATM   76  H   UNK N   1      20.097  19.784   0.678  0.00  0.00     0.222 HD
ENDBRANCH  71  75
ENDBRANCH  70  71
ENDBRANCH  52  70
ENDBRANCH  47  48
ENDBRANCH  46  47
ENDBRANCH   3  46
TORSDOF 38
ENDMDL
MODEL 6
REMARK VINA RESULT:      -5.7      4.505      6.863
REMARK WARNING: 32 MAX_TORS EXCEEDED!!!
REMARK  38 active torsions:
REMARK  status: ('A' for Active; 'I' for Inactive)
REMARK    1  A    between atoms: C_1  and  N_38 
REMARK    2  A    between atoms: C_3  and  O_6 
REMARK    3  A    between atoms: C_4  and  C_32 
REMARK    4  A    between atoms: C_5  and  O_33 
REMARK    5  A    between atoms: N_9  and  C_7 
REMARK    6  A    between atoms: C_7  and  C_8 
REMARK    7  A    between atoms: C_8  and  S_51 
REMARK       I    between atoms: C_10  and  N_9 
REMARK    8  A    between atoms: C_13  and  C_10 
REMARK    9  A    between atoms: C_12  and  N_14 
REMARK   10  A    between atoms: C_13  and  C_12 
REMARK       I    between atoms: C_16  and  N_14 
REMARK   11  A    between atoms: C_16  and  C_21 
REMARK   12  A    between atoms: C_19  and  C_17 
REMARK   13  A    between atoms: C_17  and  O_23 
REMARK   14  A    between atoms: C_21  and  C_19 
REMARK   15  A    between atoms: C_21  and  O_22 
REMARK   16  A    between atoms: O_23  and  P_30 
REMARK   17  A    between atoms: P_30  and  O_24 
REMARK   18  A    between atoms: O_24  and  P_31 
REMARK   19  A    between atoms: P_31  and  O_25 
REMARK   20  A    between atoms: C_32  and  O_25 
REMARK   21  A    between atoms: P_30  and  O_27 
REMARK   22  A    between atoms: O_33  and  P_36 
REMARK   23  A    between atoms: P_36  and  O_34 
REMARK   24  A    between atoms: P_36  and  O_35 
REMARK   25  A    between atoms: N_50  and  C_46 
REMARK   26  A    between atoms: S_51  and  C_53 
REMARK   27  A    between atoms: C_53  and  C_54 
REMARK   28  A    between atoms: C_54  and  C_55 
REMARK   29  A    between atoms: C_55  and  C_56 
REMARK   30  A    between atoms: C_56  and  C_57 
REMARK   31  A    between atoms: C_57  and  C_58 
REMARK   32  A    between atoms: C_58  and  C_59 
REMARK   33  A    between atoms: C_59  and  C_60 
REMARK   34  A    between atoms: C_60  and  C_61 
REMARK   35  A    between atoms: C_61  and  C_62 
REMARK   36  A    between atoms: C_62  and  C_63 
REMARK   37  A    between atoms: C_63  and  C_64 
REMARK   38  A    between atoms: C_64  and  C_65 
ROOT
HETATM    1  O   UNK N   1      35.078  12.758   5.667  0.00  0.00    -0.631 OA
HETATM    2  O   UNK N   1      37.076  13.943   4.455  0.00  0.00    -0.307 OA
HETATM    3  P   UNK N   1      35.587  14.183   5.310  0.00  0.00     0.401 P 
HETATM    4  H   UNK N   1      37.821  13.796   3.852  0.00  0.00     0.222 HD
ENDROOT
BRANCH   3   5
HETATM    5  O   UNK N   1      34.420  15.012   4.273  0.00  0.00    -0.195 OA
BRANCH   5   6
HETATM    6  P   UNK N   1      32.954  14.064   4.275  0.00  0.00     0.401 P 
HETATM    7  O   UNK N   1      32.534  15.292   3.422  0.00  0.00    -0.631 OA
BRANCH   6   8
HETATM    8  O   UNK N   1      31.311  14.341   4.776  0.00  0.00    -0.296 OA
BRANCH   8   9
HETATM    9  C   UNK N   1      30.762  15.054   3.695  0.00  0.00     0.192 C 
BRANCH   9  10
HETATM   10  C   UNK N   1      29.594  15.986   4.080  0.00  0.00     0.009 C 
HETATM   11  C   UNK N   1      28.602  16.189   2.944  0.00  0.00     0.020 C 
HETATM   12  C   UNK N   1      28.854  15.280   5.201  0.00  0.00     0.020 C 
BRANCH  10  13
HETATM   13  C   UNK N   1      30.082  17.339   4.644  0.00  0.00     0.219 C 
BRANCH  13  14
HETATM   14  C   UNK N   1      29.075  18.293   5.231  0.00  0.00     0.247 C 
HETATM   15  N   UNK N   1      28.468  19.230   4.462  0.00  0.00    -0.358 N 
HETATM   16  H   UNK N   1      28.574  19.177   3.485  0.00  0.00     0.162 HD
HETATM   17  O   UNK N   1      28.854  18.243   6.432  0.00  0.00    -0.271 OA
BRANCH  15  18
HETATM   18  C   UNK N   1      27.670  20.302   5.012  0.00  0.00     0.132 C 
BRANCH  18  19
HETATM   19  C   UNK N   1      26.185  19.982   5.078  0.00  0.00     0.122 C 
BRANCH  19  20
HETATM   20  C   UNK N   1      25.581  20.114   3.704  0.00  0.00     0.219 C 
HETATM   21  N   UNK N   1      24.366  19.591   3.394  0.00  0.00    -0.360 N 
HETATM   22  H   UNK N   1      24.036  19.682   2.471  0.00  0.00     0.162 HD
HETATM   23  O   UNK N   1      26.205  20.715   2.846  0.00  0.00    -0.274 OA
BRANCH  21  24
HETATM   24  C   UNK N   1      23.537  18.907   4.356  0.00  0.00     0.133 C 
BRANCH  24  25
HETATM   25  C   UNK N   1      22.555  17.990   3.655  0.00  0.00     0.102 C 
BRANCH  25  26
HETATM   26  S   UNK N   1      21.102  17.786   4.722  0.00  0.00    -0.091 SA
BRANCH  26  27
HETATM   27  C   UNK N   1      21.525  16.086   5.054  0.00  0.00     0.186 C 
HETATM   28  O   UNK N   1      22.177  15.447   4.243  0.00  0.00    -0.286 OA
BRANCH  27  29
HETATM   29  C   UNK N   1      21.086  15.460   6.331  0.00  0.00     0.091 C 
BRANCH  29  30
HETATM   30  C   UNK N   1      21.053  13.957   6.172  0.00  0.00     0.008 C 
BRANCH  30  31
HETATM   31  C   UNK N   1      20.964  13.307   7.540  0.00  0.00     0.000 C 
BRANCH  31  32
HETATM   32  C   UNK N   1      20.660  14.339   8.619  0.00  0.00     0.000 C 
BRANCH  32  33
HETATM   33  C   UNK N   1      21.257  13.981   9.976  0.00  0.00     0.000 C 
BRANCH  33  34
HETATM   34  C   UNK N   1      21.147  12.498  10.283  0.00  0.00     0.000 C 
BRANCH  34  35
HETATM   35  C   UNK N   1      22.424  12.018  10.944  0.00  0.00     0.000 C 
BRANCH  35  36
HETATM   36  C   UNK N   1      23.625  12.778  10.414  0.00  0.00     0.000 C 
BRANCH  36  37
HETATM   37  C   UNK N   1      24.321  11.947   9.352  0.00  0.00     0.000 C 
BRANCH  37  38
HETATM   38  C   UNK N   1      24.579  12.780   8.111  0.00  0.00     0.000 C 
BRANCH  38  39
HETATM   39  C   UNK N   1      24.317  11.965   6.861  0.00  0.00    -0.000 C 
BRANCH  39  40
HETATM   40  C   UNK N   1      23.591  10.692   7.244  0.00  0.00    -0.005 C 
HETATM   41  C   UNK N   1      22.632  10.305   6.139  0.00  0.00     0.005 C 
ENDBRANCH  39  40
ENDBRANCH  38  39
ENDBRANCH  37  38
ENDBRANCH  36  37
ENDBRANCH  35  36
ENDBRANCH  34  35
ENDBRANCH  33  34
ENDBRANCH  32  33
ENDBRANCH  31  32
ENDBRANCH  30  31
ENDBRANCH  29  30
ENDBRANCH  27  29
ENDBRANCH  26  27
ENDBRANCH  25  26
ENDBRANCH  24  25
ENDBRANCH  21  24
ENDBRANCH  19  20
ENDBRANCH  18  19
ENDBRANCH  15  18
ENDBRANCH  13  14
BRANCH  13  42
HETATM   42  O   UNK N   1      31.146  17.162   5.535  0.00  0.00    -0.385 OA
HETATM   43  H   UNK N   1      31.865  16.513   5.599  0.00  0.00     0.210 HD
ENDBRANCH  13  42
ENDBRANCH  10  13
ENDBRANCH   9  10
ENDBRANCH   8   9
ENDBRANCH   6   8
BRANCH   6  44
HETATM   44  O   UNK N   1      33.063  14.734   5.875  0.00  0.00    -0.307 OA
HETATM   45  H   UNK N   1      32.333  15.216   6.294  0.00  0.00     0.222 HD
ENDBRANCH   6  44
ENDBRANCH   5   6
ENDBRANCH   3   5
BRANCH   3  46
HETATM   46  O   UNK N   1      35.914  14.960   6.830  0.00  0.00    -0.294 OA
BRANCH  46  47
HETATM   47  C   UNK N   1      36.141  13.944   7.755  0.00  0.00     0.215 C 
BRANCH  47  48
HETATM   48  C   UNK N   1      35.674  14.354   9.145  0.00  0.00     0.180 C 
HETATM   49  O   UNK N   1      36.668  14.240  10.132  0.00  0.00    -0.353 OA
HETATM   50  C   UNK N   1      36.173  15.013  11.210  0.00  0.00     0.262 C 
HETATM   51  C   UNK N   1      35.013  15.850  10.684  0.00  0.00     0.199 C 
HETATM   52  C   UNK N   1      35.205  15.772   9.203  0.00  0.00     0.197 C 
BRANCH  50  53
HETATM   53  N   UNK N   1      35.740  14.125  12.293  0.00  0.00    -0.297 N 
HETATM   54  C   UNK N   1      36.081  14.149  13.588  0.00  0.00     0.142 A 
HETATM   55  C   UNK N   1      35.427  13.166  14.239  0.00  0.00     0.122 A 
HETATM   56  N   UNK N   1      36.911  15.012  14.219  0.00  0.00    -0.336 N 
HETATM   57  C   UNK N   1      35.590  13.006  15.604  0.00  0.00     0.131 A 
HETATM   58  N   UNK N   1      34.660  12.477  13.377  0.00  0.00    -0.346 N 
HETATM   59  N   UNK N   1      36.424  13.871  16.253  0.00  0.00    -0.337 N 
HETATM   60  C   UNK N   1      37.081  14.866  15.570  0.00  0.00     0.183 A 
ATOM     61  HN  UNK N   1      36.560  13.778  17.260  1.00  0.00     0.168 HD
HETATM   62  C   UNK N   1      34.866  13.090  12.179  0.00  0.00     0.188 A 
ATOM     63  HN  UNK N   1      34.061  11.675  13.575  1.00  0.00     0.167 HD
ATOM     64  HN  UNK N   1      37.394  15.749  13.705  1.00  0.00     0.168 HD
BRANCH  57  65
HETATM   65  N   UNK N   1      34.911  11.993  16.310  0.00  0.00    -0.383 N 
HETATM   66  H   UNK N   1      34.040  12.133  16.747  0.00  0.00     0.157 HD
HETATM   67  H   UNK N   1      35.327  11.102  16.367  0.00  0.00     0.157 HD
ENDBRANCH  57  65
ENDBRANCH  50  53
BRANCH  51  68
HETATM   68  O   UNK N   1      35.114  17.166  11.136  0.00  0.00    -0.388 OA
HETATM   69  H   UNK N   1      34.523  17.934  11.187  0.00  0.00     0.210 HD
ENDBRANCH  51  68
BRANCH  52  70
HETATM   70  O   UNK N   1      33.999  15.906   8.505  0.00  0.00    -0.286 OA
BRANCH  70  71
HETATM   71  P   UNK N   1      33.943  17.519   7.842  0.00  0.00     0.391 P 
HETATM   72  O   UNK N   1      35.011  18.416   8.529  0.00  0.00    -0.632 OA
BRANCH  71  73
HETATM   73  O   UNK N   1      34.292  17.512   6.143  0.00  0.00    -0.307 OA
HETATM   74  H   UNK N   1      34.542  18.205   5.511  0.00  0.00     0.222 HD
ENDBRANCH  71  73
BRANCH  71  75
HETATM   75  O   UNK N   1      32.394  18.227   8.140  0.00  0.00    -0.307 OA
HETATM   76  H   UNK N   1      32.115  19.016   7.649  0.00  0.00     0.222 HD
ENDBRANCH  71  75
ENDBRANCH  70  71
ENDBRANCH  52  70
ENDBRANCH  47  48
ENDBRANCH  46  47
ENDBRANCH   3  46
TORSDOF 38
ENDMDL
MODEL 7
REMARK VINA RESULT:      -5.7      5.892      8.958
REMARK WARNING: 32 MAX_TORS EXCEEDED!!!
REMARK  38 active torsions:
REMARK  status: ('A' for Active; 'I' for Inactive)
REMARK    1  A    between atoms: C_1  and  N_38 
REMARK    2  A    between atoms: C_3  and  O_6 
REMARK    3  A    between atoms: C_4  and  C_32 
REMARK    4  A    between atoms: C_5  and  O_33 
REMARK    5  A    between atoms: N_9  and  C_7 
REMARK    6  A    between atoms: C_7  and  C_8 
REMARK    7  A    between atoms: C_8  and  S_51 
REMARK       I    between atoms: C_10  and  N_9 
REMARK    8  A    between atoms: C_13  and  C_10 
REMARK    9  A    between atoms: C_12  and  N_14 
REMARK   10  A    between atoms: C_13  and  C_12 
REMARK       I    between atoms: C_16  and  N_14 
REMARK   11  A    between atoms: C_16  and  C_21 
REMARK   12  A    between atoms: C_19  and  C_17 
REMARK   13  A    between atoms: C_17  and  O_23 
REMARK   14  A    between atoms: C_21  and  C_19 
REMARK   15  A    between atoms: C_21  and  O_22 
REMARK   16  A    between atoms: O_23  and  P_30 
REMARK   17  A    between atoms: P_30  and  O_24 
REMARK   18  A    between atoms: O_24  and  P_31 
REMARK   19  A    between atoms: P_31  and  O_25 
REMARK   20  A    between atoms: C_32  and  O_25 
REMARK   21  A    between atoms: P_30  and  O_27 
REMARK   22  A    between atoms: O_33  and  P_36 
REMARK   23  A    between atoms: P_36  and  O_34 
REMARK   24  A    between atoms: P_36  and  O_35 
REMARK   25  A    between atoms: N_50  and  C_46 
REMARK   26  A    between atoms: S_51  and  C_53 
REMARK   27  A    between atoms: C_53  and  C_54 
REMARK   28  A    between atoms: C_54  and  C_55 
REMARK   29  A    between atoms: C_55  and  C_56 
REMARK   30  A    between atoms: C_56  and  C_57 
REMARK   31  A    between atoms: C_57  and  C_58 
REMARK   32  A    between atoms: C_58  and  C_59 
REMARK   33  A    between atoms: C_59  and  C_60 
REMARK   34  A    between atoms: C_60  and  C_61 
REMARK   35  A    between atoms: C_61  and  C_62 
REMARK   36  A    between atoms: C_62  and  C_63 
REMARK   37  A    between atoms: C_63  and  C_64 
REMARK   38  A    between atoms: C_64  and  C_65 
ROOT
HETATM    1  O   UNK N   1      35.695  17.406  10.277  0.00  0.00    -0.631 OA
HETATM    2  O   UNK N   1      33.295  16.906   9.352  0.00  0.00    -0.307 OA
HETATM    3  P   UNK N   1      34.795  16.206   9.867  0.00  0.00     0.401 P 
HETATM    4  H   UNK N   1      32.522  17.310   8.928  0.00  0.00     0.222 HD
ENDROOT
BRANCH   3   5
HETATM    5  O   UNK N   1      35.533  15.310   8.533  0.00  0.00    -0.195 OA
BRANCH   5   6
HETATM    6  P   UNK N   1      34.353  15.223   7.248  0.00  0.00     0.401 P 
HETATM    7  O   UNK N   1      35.533  14.407   6.650  0.00  0.00    -0.631 OA
BRANCH   6   8
HETATM    8  O   UNK N   1      34.328  15.677   5.569  0.00  0.00    -0.296 OA
BRANCH   8   9
HETATM    9  C   UNK N   1      32.999  15.422   5.187  0.00  0.00     0.192 C 
BRANCH   9  10
HETATM   10  C   UNK N   1      32.341  16.564   4.383  0.00  0.00     0.009 C 
HETATM   11  C   UNK N   1      33.092  17.882   4.509  0.00  0.00     0.020 C 
HETATM   12  C   UNK N   1      32.418  16.141   2.928  0.00  0.00     0.020 C 
BRANCH  10  13
HETATM   13  C   UNK N   1      30.845  16.738   4.723  0.00  0.00     0.219 C 
BRANCH  13  14
HETATM   14  C   UNK N   1      30.389  16.543   6.145  0.00  0.00     0.247 C 
HETATM   15  N   UNK N   1      30.853  17.334   7.143  0.00  0.00    -0.358 N 
HETATM   16  H   UNK N   1      31.369  18.138   6.905  0.00  0.00     0.162 HD
HETATM   17  O   UNK N   1      29.631  15.617   6.393  0.00  0.00    -0.271 OA
BRANCH  15  18
HETATM   18  C   UNK N   1      30.623  17.052   8.541  0.00  0.00     0.132 C 
BRANCH  18  19
HETATM   19  C   UNK N   1      29.889  18.165   9.273  0.00  0.00     0.122 C 
BRANCH  19  20
HETATM   20  C   UNK N   1      28.411  17.871   9.281  0.00  0.00     0.219 C 
HETATM   21  N   UNK N   1      27.524  18.601   8.554  0.00  0.00    -0.360 N 
HETATM   22  H   UNK N   1      26.567  18.381   8.623  0.00  0.00     0.162 HD
HETATM   23  O   UNK N   1      28.002  16.944   9.960  0.00  0.00    -0.274 OA
BRANCH  21  24
HETATM   24  C   UNK N   1      27.922  19.681   7.686  0.00  0.00     0.133 C 
BRANCH  24  25
HETATM   25  C   UNK N   1      27.931  19.227   6.240  0.00  0.00     0.102 C 
BRANCH  25  26
HETATM   26  S   UNK N   1      26.701  20.199   5.328  0.00  0.00    -0.091 SA
BRANCH  26  27
HETATM   27  C   UNK N   1      26.552  18.931   4.083  0.00  0.00     0.186 C 
HETATM   28  O   UNK N   1      27.545  18.341   3.689  0.00  0.00    -0.286 OA
BRANCH  27  29
HETATM   29  C   UNK N   1      25.207  18.595   3.540  0.00  0.00     0.091 C 
BRANCH  29  30
HETATM   30  C   UNK N   1      24.188  18.631   4.657  0.00  0.00     0.008 C 
BRANCH  30  31
HETATM   31  C   UNK N   1      23.348  17.369   4.612  0.00  0.00     0.000 C 
BRANCH  31  32
HETATM   32  C   UNK N   1      23.777  16.385   5.693  0.00  0.00     0.000 C 
BRANCH  32  33
HETATM   33  C   UNK N   1      22.619  15.558   6.244  0.00  0.00     0.000 C 
BRANCH  33  34
HETATM   34  C   UNK N   1      21.534  16.423   6.862  0.00  0.00     0.000 C 
BRANCH  34  35
HETATM   35  C   UNK N   1      20.308  15.577   7.144  0.00  0.00     0.000 C 
BRANCH  35  36
HETATM   36  C   UNK N   1      20.686  14.306   7.881  0.00  0.00     0.000 C 
BRANCH  36  37
HETATM   37  C   UNK N   1      20.333  14.450   9.349  0.00  0.00     0.000 C 
BRANCH  37  38
HETATM   38  C   UNK N   1      21.095  13.433  10.180  0.00  0.00     0.000 C 
BRANCH  38  39
HETATM   39  C   UNK N   1      22.282  12.898   9.406  0.00  0.00    -0.000 C 
BRANCH  39  40
HETATM   40  C   UNK N   1      23.424  12.641  10.366  0.00  0.00    -0.005 C 
HETATM   41  C   UNK N   1      22.897  11.946  11.604  0.00  0.00     0.005 C 
ENDBRANCH  39  40
ENDBRANCH  38  39
ENDBRANCH  37  38
ENDBRANCH  36  37
ENDBRANCH  35  36
ENDBRANCH  34  35
ENDBRANCH  33  34
ENDBRANCH  32  33
ENDBRANCH  31  32
ENDBRANCH  30  31
ENDBRANCH  29  30
ENDBRANCH  27  29
ENDBRANCH  26  27
ENDBRANCH  25  26
ENDBRANCH  24  25
ENDBRANCH  21  24
ENDBRANCH  19  20
ENDBRANCH  18  19
ENDBRANCH  15  18
ENDBRANCH  13  14
BRANCH  13  42
HETATM   42  O   UNK N   1      30.351  17.950   4.226  0.00  0.00    -0.385 OA
HETATM   43  H   UNK N   1      30.600  18.520   3.482  0.00  0.00     0.210 HD
ENDBRANCH  13  42
ENDBRANCH  10  13
ENDBRANCH   9  10
ENDBRANCH   8   9
ENDBRANCH   6   8
BRANCH   6  44
HETATM   44  O   UNK N   1      34.957  16.852   7.199  0.00  0.00    -0.307 OA
HETATM   45  H   UNK N   1      35.830  17.078   6.843  0.00  0.00     0.222 HD
ENDBRANCH   6  44
ENDBRANCH   5   6
ENDBRANCH   3   5
BRANCH   3  46
HETATM   46  O   UNK N   1      34.537  15.293  11.322  0.00  0.00    -0.294 OA
BRANCH  46  47
HETATM   47  C   UNK N   1      35.758  15.257  11.991  0.00  0.00     0.215 C 
BRANCH  47  48
HETATM   48  C   UNK N   1      35.888  13.993  12.829  0.00  0.00     0.180 C 
HETATM   49  O   UNK N   1      34.678  13.571  13.407  0.00  0.00    -0.353 OA
HETATM   50  C   UNK N   1      34.925  12.231  13.787  0.00  0.00     0.262 C 
HETATM   51  C   UNK N   1      36.215  11.788  13.104  0.00  0.00     0.199 C 
HETATM   52  C   UNK N   1      36.388  12.825  12.041  0.00  0.00     0.197 C 
BRANCH  50  53
HETATM   53  N   UNK N   1      35.041  12.147  15.246  0.00  0.00    -0.297 N 
HETATM   54  C   UNK N   1      35.192  11.062  16.017  0.00  0.00     0.142 A 
HETATM   55  C   UNK N   1      35.286  11.442  17.307  0.00  0.00     0.122 A 
HETATM   56  N   UNK N   1      35.283   9.767  15.632  0.00  0.00    -0.336 N 
HETATM   57  C   UNK N   1      35.479  10.497  18.299  0.00  0.00     0.131 A 
HETATM   58  N   UNK N   1      35.183  12.779  17.399  0.00  0.00    -0.346 N 
HETATM   59  N   UNK N   1      35.573   9.187  17.925  0.00  0.00    -0.337 N 
HETATM   60  C   UNK N   1      35.475   8.822  16.603  0.00  0.00     0.183 A 
ATOM     61  HN  UNK N   1      35.720   8.470  18.636  1.00  0.00     0.168 HD
HETATM   62  C   UNK N   1      35.037  13.195  16.111  0.00  0.00     0.188 A 
ATOM     63  HN  UNK N   1      35.207  13.352  18.244  1.00  0.00     0.167 HD
ATOM     64  HN  UNK N   1      35.210   9.505  14.649  1.00  0.00     0.168 HD
BRANCH  57  65
HETATM   65  N   UNK N   1      35.589  10.869  19.654  0.00  0.00    -0.383 N 
HETATM   66  H   UNK N   1      35.848  11.773  19.945  0.00  0.00     0.157 HD
HETATM   67  H   UNK N   1      35.398  10.192  20.343  0.00  0.00     0.157 HD
ENDBRANCH  57  65
ENDBRANCH  50  53
BRANCH  51  68
HETATM   68  O   UNK N   1      36.062  10.518  12.548  0.00  0.00    -0.388 OA
HETATM   69  H   UNK N   1      36.649   9.852  12.156  0.00  0.00     0.210 HD
ENDBRANCH  51  68
BRANCH  52  70
HETATM   70  O   UNK N   1      37.733  13.016  11.704  0.00  0.00    -0.286 OA
BRANCH  70  71
HETATM   71  P   UNK N   1      37.873  12.883   9.970  0.00  0.00     0.391 P 
HETATM   72  O   UNK N   1      38.702  11.622   9.597  0.00  0.00    -0.632 OA
BRANCH  71  73
HETATM   73  O   UNK N   1      36.317  12.715   9.225  0.00  0.00    -0.307 OA
HETATM   74  H   UNK N   1      35.488  13.216   9.290  0.00  0.00     0.222 HD
ENDBRANCH  71  73
BRANCH  71  75
HETATM   75  O   UNK N   1      38.704  14.260   9.336  0.00  0.00    -0.307 OA
HETATM   76  H   UNK N   1      38.209  15.056   9.084  0.00  0.00     0.222 HD
ENDBRANCH  71  75
ENDBRANCH  70  71
ENDBRANCH  52  70
ENDBRANCH  47  48
ENDBRANCH  46  47
ENDBRANCH   3  46
TORSDOF 38
ENDMDL
MODEL 8
REMARK VINA RESULT:      -5.7      4.388      6.279
REMARK WARNING: 32 MAX_TORS EXCEEDED!!!
REMARK  38 active torsions:
REMARK  status: ('A' for Active; 'I' for Inactive)
REMARK    1  A    between atoms: C_1  and  N_38 
REMARK    2  A    between atoms: C_3  and  O_6 
REMARK    3  A    between atoms: C_4  and  C_32 
REMARK    4  A    between atoms: C_5  and  O_33 
REMARK    5  A    between atoms: N_9  and  C_7 
REMARK    6  A    between atoms: C_7  and  C_8 
REMARK    7  A    between atoms: C_8  and  S_51 
REMARK       I    between atoms: C_10  and  N_9 
REMARK    8  A    between atoms: C_13  and  C_10 
REMARK    9  A    between atoms: C_12  and  N_14 
REMARK   10  A    between atoms: C_13  and  C_12 
REMARK       I    between atoms: C_16  and  N_14 
REMARK   11  A    between atoms: C_16  and  C_21 
REMARK   12  A    between atoms: C_19  and  C_17 
REMARK   13  A    between atoms: C_17  and  O_23 
REMARK   14  A    between atoms: C_21  and  C_19 
REMARK   15  A    between atoms: C_21  and  O_22 
REMARK   16  A    between atoms: O_23  and  P_30 
REMARK   17  A    between atoms: P_30  and  O_24 
REMARK   18  A    between atoms: O_24  and  P_31 
REMARK   19  A    between atoms: P_31  and  O_25 
REMARK   20  A    between atoms: C_32  and  O_25 
REMARK   21  A    between atoms: P_30  and  O_27 
REMARK   22  A    between atoms: O_33  and  P_36 
REMARK   23  A    between atoms: P_36  and  O_34 
REMARK   24  A    between atoms: P_36  and  O_35 
REMARK   25  A    between atoms: N_50  and  C_46 
REMARK   26  A    between atoms: S_51  and  C_53 
REMARK   27  A    between atoms: C_53  and  C_54 
REMARK   28  A    between atoms: C_54  and  C_55 
REMARK   29  A    between atoms: C_55  and  C_56 
REMARK   30  A    between atoms: C_56  and  C_57 
REMARK   31  A    between atoms: C_57  and  C_58 
REMARK   32  A    between atoms: C_58  and  C_59 
REMARK   33  A    between atoms: C_59  and  C_60 
REMARK   34  A    between atoms: C_60  and  C_61 
REMARK   35  A    between atoms: C_61  and  C_62 
REMARK   36  A    between atoms: C_62  and  C_63 
REMARK   37  A    between atoms: C_63  and  C_64 
REMARK   38  A    between atoms: C_64  and  C_65 
ROOT
HETATM    1  O   UNK N   1      31.164  13.852   6.131  0.00  0.00    -0.631 OA
HETATM    2  O   UNK N   1      33.105  15.506   5.529  0.00  0.00    -0.307 OA
HETATM    3  P   UNK N   1      32.011  14.989   6.770  0.00  0.00     0.401 P 
HETATM    4  H   UNK N   1      33.605  15.888   4.790  0.00  0.00     0.222 HD
ENDROOT
BRANCH   3   5
HETATM    5  O   UNK N   1      30.970  16.333   7.256  0.00  0.00    -0.195 OA
BRANCH   5   6
HETATM    6  P   UNK N   1      29.846  16.621   5.951  0.00  0.00     0.401 P 
HETATM    7  O   UNK N   1      31.120  17.348   5.438  0.00  0.00    -0.631 OA
BRANCH   6   8
HETATM    8  O   UNK N   1      29.199  18.038   5.176  0.00  0.00    -0.296 OA
BRANCH   8   9
HETATM    9  C   UNK N   1      27.964  18.222   5.823  0.00  0.00     0.192 C 
BRANCH   9  10
HETATM   10  C   UNK N   1      27.076  19.316   5.193  0.00  0.00     0.009 C 
HETATM   11  C   UNK N   1      26.520  20.289   6.223  0.00  0.00     0.020 C 
HETATM   12  C   UNK N   1      27.988  20.108   4.274  0.00  0.00     0.020 C 
BRANCH  10  13
HETATM   13  C   UNK N   1      25.951  18.729   4.313  0.00  0.00     0.219 C 
BRANCH  13  14
HETATM   14  C   UNK N   1      25.082  19.664   3.514  0.00  0.00     0.247 C 
HETATM   15  N   UNK N   1      23.742  19.717   3.714  0.00  0.00    -0.358 N 
HETATM   16  H   UNK N   1      23.364  19.251   4.495  0.00  0.00     0.162 HD
HETATM   17  O   UNK N   1      25.602  20.340   2.640  0.00  0.00    -0.271 OA
BRANCH  15  18
HETATM   18  C   UNK N   1      22.844  20.425   2.832  0.00  0.00     0.132 C 
BRANCH  18  19
HETATM   19  C   UNK N   1      21.505  19.729   2.641  0.00  0.00     0.122 C 
BRANCH  19  20
HETATM   20  C   UNK N   1      21.093  19.070   3.933  0.00  0.00     0.219 C 
HETATM   21  N   UNK N   1      20.839  17.737   4.016  0.00  0.00    -0.360 N 
HETATM   22  H   UNK N   1      20.543  17.369   4.880  0.00  0.00     0.162 HD
HETATM   23  O   UNK N   1      20.988  19.759   4.933  0.00  0.00    -0.274 OA
BRANCH  21  24
HETATM   24  C   UNK N   1      20.983  16.839   2.898  0.00  0.00     0.133 C 
BRANCH  24  25
HETATM   25  C   UNK N   1      21.715  15.580   3.318  0.00  0.00     0.102 C 
BRANCH  25  26
HETATM   26  S   UNK N   1      23.254  16.063   4.147  0.00  0.00    -0.091 SA
BRANCH  26  27
HETATM   27  C   UNK N   1      24.157  14.756   3.336  0.00  0.00     0.186 C 
HETATM   28  O   UNK N   1      25.376  14.802   3.274  0.00  0.00    -0.286 OA
BRANCH  27  29
HETATM   29  C   UNK N   1      23.413  13.609   2.750  0.00  0.00     0.091 C 
BRANCH  29  30
HETATM   30  C   UNK N   1      24.052  12.312   3.194  0.00  0.00     0.008 C 
BRANCH  30  31
HETATM   31  C   UNK N   1      22.994  11.414   3.807  0.00  0.00     0.000 C 
BRANCH  31  32
HETATM   32  C   UNK N   1      22.164  12.168   4.838  0.00  0.00     0.000 C 
BRANCH  32  33
HETATM   33  C   UNK N   1      21.685  11.283   5.985  0.00  0.00     0.000 C 
BRANCH  33  34
HETATM   34  C   UNK N   1      22.628  11.317   7.175  0.00  0.00     0.000 C 
BRANCH  34  35
HETATM   35  C   UNK N   1      23.287  12.680   7.264  0.00  0.00     0.000 C 
BRANCH  35  36
HETATM   36  C   UNK N   1      24.614  12.591   7.992  0.00  0.00     0.000 C 
BRANCH  36  37
HETATM   37  C   UNK N   1      24.418  12.974   9.447  0.00  0.00     0.000 C 
BRANCH  37  38
HETATM   38  C   UNK N   1      23.696  11.868  10.195  0.00  0.00     0.000 C 
BRANCH  38  39
HETATM   39  C   UNK N   1      22.734  12.454  11.208  0.00  0.00    -0.000 C 
BRANCH  39  40
HETATM   40  C   UNK N   1      21.367  12.590  10.570  0.00  0.00    -0.005 C 
HETATM   41  C   UNK N   1      20.306  12.126  11.545  0.00  0.00     0.005 C 
ENDBRANCH  39  40
ENDBRANCH  38  39
ENDBRANCH  37  38
ENDBRANCH  36  37
ENDBRANCH  35  36
ENDBRANCH  34  35
ENDBRANCH  33  34
ENDBRANCH  32  33
ENDBRANCH  31  32
ENDBRANCH  30  31
ENDBRANCH  29  30
ENDBRANCH  27  29
ENDBRANCH  26  27
ENDBRANCH  25  26
ENDBRANCH  24  25
ENDBRANCH  21  24
ENDBRANCH  19  20
ENDBRANCH  18  19
ENDBRANCH  15  18
ENDBRANCH  13  14
BRANCH  13  42
HETATM   42  O   UNK N   1      26.433  17.706   3.490  0.00  0.00    -0.385 OA
HETATM   43  H   UNK N   1      26.415  16.737   3.544  0.00  0.00     0.210 HD
ENDBRANCH  13  42
ENDBRANCH  10  13
ENDBRANCH   9  10
ENDBRANCH   8   9
ENDBRANCH   6   8
BRANCH   6  44
HETATM   44  O   UNK N   1      29.316  17.656   7.243  0.00  0.00    -0.307 OA
HETATM   45  H   UNK N   1      29.299  17.372   8.170  0.00  0.00     0.222 HD
ENDBRANCH   6  44
ENDBRANCH   5   6
ENDBRANCH   3   5
BRANCH   3  46
HETATM   46  O   UNK N   1      32.908  14.241   8.056  0.00  0.00    -0.294 OA
BRANCH  46  47
HETATM   47  C   UNK N   1      32.528  14.883   9.232  0.00  0.00     0.215 C 
BRANCH  47  48
HETATM   48  C   UNK N   1      33.677  14.922  10.230  0.00  0.00     0.180 C 
HETATM   49  O   UNK N   1      34.313  13.682  10.409  0.00  0.00    -0.353 OA
HETATM   50  C   UNK N   1      35.540  14.010  11.034  0.00  0.00     0.262 C 
HETATM   51  C   UNK N   1      35.734  15.517  10.906  0.00  0.00     0.199 C 
HETATM   52  C   UNK N   1      34.756  15.878   9.834  0.00  0.00     0.197 C 
BRANCH  50  53
HETATM   53  N   UNK N   1      35.501  13.597  12.440  0.00  0.00    -0.297 N 
HETATM   54  C   UNK N   1      34.979  12.485  12.976  0.00  0.00     0.142 A 
HETATM   55  C   UNK N   1      35.188  12.493  14.307  0.00  0.00     0.122 A 
HETATM   56  N   UNK N   1      34.360  11.462  12.342  0.00  0.00    -0.336 N 
HETATM   57  C   UNK N   1      34.765  11.429  15.084  0.00  0.00     0.131 A 
HETATM   58  N   UNK N   1      35.838  13.614  14.663  0.00  0.00    -0.346 N 
HETATM   59  N   UNK N   1      34.140  10.388  14.458  0.00  0.00    -0.337 N 
HETATM   60  C   UNK N   1      33.937  10.402  13.099  0.00  0.00     0.183 A 
ATOM     61  HN  UNK N   1      33.822   9.589  15.006  1.00  0.00     0.168 HD
HETATM   62  C   UNK N   1      36.025  14.281  13.491  0.00  0.00     0.188 A 
ATOM     63  HN  UNK N   1      36.124  13.901  15.600  1.00  0.00     0.167 HD
ATOM     64  HN  UNK N   1      34.214  11.479  11.333  1.00  0.00     0.168 HD
BRANCH  57  65
HETATM   65  N   UNK N   1      34.980  11.407  16.477  0.00  0.00    -0.383 N 
HETATM   66  H   UNK N   1      34.899  12.206  17.046  0.00  0.00     0.157 HD
HETATM   67  H   UNK N   1      35.221  10.552  16.901  0.00  0.00     0.157 HD
ENDBRANCH  57  65
ENDBRANCH  50  53
BRANCH  51  68
HETATM   68  O   UNK N   1      37.041  15.811  10.515  0.00  0.00    -0.388 OA
HETATM   69  H   UNK N   1      37.930  15.536  10.787  0.00  0.00     0.210 HD
ENDBRANCH  51  68
BRANCH  52  70
HETATM   70  O   UNK N   1      34.298  17.195   9.959  0.00  0.00    -0.286 OA
BRANCH  70  71
HETATM   71  P   UNK N   1      34.366  17.935   8.381  0.00  0.00     0.391 P 
HETATM   72  O   UNK N   1      34.947  16.931   7.345  0.00  0.00    -0.632 OA
BRANCH  71  73
HETATM   73  O   UNK N   1      32.785  18.386   7.829  0.00  0.00    -0.307 OA
HETATM   74  H   UNK N   1      32.368  19.238   7.621  0.00  0.00     0.222 HD
ENDBRANCH  71  73
BRANCH  71  75
HETATM   75  O   UNK N   1      35.411  19.312   8.418  0.00  0.00    -0.307 OA
HETATM   76  H   UNK N   1      35.038  20.207   8.452  0.00  0.00     0.222 HD
ENDBRANCH  71  75
ENDBRANCH  70  71
ENDBRANCH  52  70
ENDBRANCH  47  48
ENDBRANCH  46  47
ENDBRANCH   3  46
TORSDOF 38
ENDMDL
MODEL 9
REMARK VINA RESULT:      -5.7      4.398      6.219
REMARK WARNING: 32 MAX_TORS EXCEEDED!!!
REMARK  38 active torsions:
REMARK  status: ('A' for Active; 'I' for Inactive)
REMARK    1  A    between atoms: C_1  and  N_38 
REMARK    2  A    between atoms: C_3  and  O_6 
REMARK    3  A    between atoms: C_4  and  C_32 
REMARK    4  A    between atoms: C_5  and  O_33 
REMARK    5  A    between atoms: N_9  and  C_7 
REMARK    6  A    between atoms: C_7  and  C_8 
REMARK    7  A    between atoms: C_8  and  S_51 
REMARK       I    between atoms: C_10  and  N_9 
REMARK    8  A    between atoms: C_13  and  C_10 
REMARK    9  A    between atoms: C_12  and  N_14 
REMARK   10  A    between atoms: C_13  and  C_12 
REMARK       I    between atoms: C_16  and  N_14 
REMARK   11  A    between atoms: C_16  and  C_21 
REMARK   12  A    between atoms: C_19  and  C_17 
REMARK   13  A    between atoms: C_17  and  O_23 
REMARK   14  A    between atoms: C_21  and  C_19 
REMARK   15  A    between atoms: C_21  and  O_22 
REMARK   16  A    between atoms: O_23  and  P_30 
REMARK   17  A    between atoms: P_30  and  O_24 
REMARK   18  A    between atoms: O_24  and  P_31 
REMARK   19  A    between atoms: P_31  and  O_25 
REMARK   20  A    between atoms: C_32  and  O_25 
REMARK   21  A    between atoms: P_30  and  O_27 
REMARK   22  A    between atoms: O_33  and  P_36 
REMARK   23  A    between atoms: P_36  and  O_34 
REMARK   24  A    between atoms: P_36  and  O_35 
REMARK   25  A    between atoms: N_50  and  C_46 
REMARK   26  A    between atoms: S_51  and  C_53 
REMARK   27  A    between atoms: C_53  and  C_54 
REMARK   28  A    between atoms: C_54  and  C_55 
REMARK   29  A    between atoms: C_55  and  C_56 
REMARK   30  A    between atoms: C_56  and  C_57 
REMARK   31  A    between atoms: C_57  and  C_58 
REMARK   32  A    between atoms: C_58  and  C_59 
REMARK   33  A    between atoms: C_59  and  C_60 
REMARK   34  A    between atoms: C_60  and  C_61 
REMARK   35  A    between atoms: C_61  and  C_62 
REMARK   36  A    between atoms: C_62  and  C_63 
REMARK   37  A    between atoms: C_63  and  C_64 
REMARK   38  A    between atoms: C_64  and  C_65 
ROOT
HETATM    1  O   UNK N   1      32.141  12.990   6.379  0.00  0.00    -0.631 OA
HETATM    2  O   UNK N   1      34.633  13.587   6.925  0.00  0.00    -0.307 OA
HETATM    3  P   UNK N   1      32.975  14.004   7.212  0.00  0.00     0.401 P 
HETATM    4  H   UNK N   1      35.550  13.444   6.642  0.00  0.00     0.222 HD
ENDROOT
BRANCH   3   5
HETATM    5  O   UNK N   1      32.663  15.656   6.664  0.00  0.00    -0.195 OA
BRANCH   5   6
HETATM    6  P   UNK N   1      31.813  15.549   5.142  0.00  0.00     0.401 P 
HETATM    7  O   UNK N   1      32.331  17.013   5.113  0.00  0.00    -0.631 OA
BRANCH   6   8
HETATM    8  O   UNK N   1      30.494  16.412   4.407  0.00  0.00    -0.296 OA
BRANCH   8   9
HETATM    9  C   UNK N   1      29.403  15.541   4.581  0.00  0.00     0.192 C 
BRANCH   9  10
HETATM   10  C   UNK N   1      28.024  16.223   4.466  0.00  0.00     0.009 C 
HETATM   11  C   UNK N   1      27.462  16.183   3.052  0.00  0.00     0.020 C 
HETATM   12  C   UNK N   1      27.088  15.412   5.343  0.00  0.00     0.020 C 
BRANCH  10  13
HETATM   13  C   UNK N   1      28.030  17.663   5.024  0.00  0.00     0.219 C 
BRANCH  13  14
HETATM   14  C   UNK N   1      26.873  18.575   4.709  0.00  0.00     0.247 C 
HETATM   15  N   UNK N   1      25.663  18.397   5.293  0.00  0.00    -0.358 N 
HETATM   16  H   UNK N   1      25.591  17.762   6.043  0.00  0.00     0.162 HD
HETATM   17  O   UNK N   1      27.031  19.450   3.872  0.00  0.00    -0.271 OA
BRANCH  15  18
HETATM   18  C   UNK N   1      24.473  19.095   4.865  0.00  0.00     0.132 C 
BRANCH  18  19
HETATM   19  C   UNK N   1      23.705  18.374   3.768  0.00  0.00     0.122 C 
BRANCH  19  20
HETATM   20  C   UNK N   1      22.367  19.039   3.572  0.00  0.00     0.219 C 
HETATM   21  N   UNK N   1      21.201  18.340   3.595  0.00  0.00    -0.360 N 
HETATM   22  H   UNK N   1      20.360  18.824   3.430  0.00  0.00     0.162 HD
HETATM   23  O   UNK N   1      22.333  20.244   3.391  0.00  0.00    -0.274 OA
BRANCH  21  24
HETATM   24  C   UNK N   1      21.141  16.922   3.850  0.00  0.00     0.133 C 
BRANCH  24  25
HETATM   25  C   UNK N   1      19.912  16.317   3.202  0.00  0.00     0.102 C 
BRANCH  25  26
HETATM   26  S   UNK N   1      19.326  14.956   4.248  0.00  0.00    -0.091 SA
BRANCH  26  27
HETATM   27  C   UNK N   1      19.485  13.792   2.907  0.00  0.00     0.186 C 
HETATM   28  O   UNK N   1      18.547  13.598   2.149  0.00  0.00    -0.286 OA
BRANCH  27  29
HETATM   29  C   UNK N   1      20.773  13.071   2.714  0.00  0.00     0.091 C 
BRANCH  29  30
HETATM   30  C   UNK N   1      21.100  13.006   1.239  0.00  0.00     0.008 C 
BRANCH  30  31
HETATM   31  C   UNK N   1      21.964  14.194   0.862  0.00  0.00     0.000 C 
BRANCH  31  32
HETATM   32  C   UNK N   1      23.381  13.755   0.518  0.00  0.00     0.000 C 
BRANCH  32  33
HETATM   33  C   UNK N   1      24.451  14.536   1.274  0.00  0.00     0.000 C 
BRANCH  33  34
HETATM   34  C   UNK N   1      24.385  14.303   2.774  0.00  0.00     0.000 C 
BRANCH  34  35
HETATM   35  C   UNK N   1      24.781  12.873   3.085  0.00  0.00     0.000 C 
BRANCH  35  36
HETATM   36  C   UNK N   1      23.951  12.319   4.227  0.00  0.00     0.000 C 
BRANCH  36  37
HETATM   37  C   UNK N   1      24.684  12.534   5.537  0.00  0.00     0.000 C 
BRANCH  37  38
HETATM   38  C   UNK N   1      23.701  12.823   6.656  0.00  0.00     0.000 C 
BRANCH  38  39
HETATM   39  C   UNK N   1      22.488  13.554   6.119  0.00  0.00    -0.000 C 
BRANCH  39  40
HETATM   40  C   UNK N   1      21.240  12.981   6.759  0.00  0.00    -0.005 C 
HETATM   41  C   UNK N   1      21.070  11.540   6.330  0.00  0.00     0.005 C 
ENDBRANCH  39  40
ENDBRANCH  38  39
ENDBRANCH  37  38
ENDBRANCH  36  37
ENDBRANCH  35  36
ENDBRANCH  34  35
ENDBRANCH  33  34
ENDBRANCH  32  33
ENDBRANCH  31  32
ENDBRANCH  30  31
ENDBRANCH  29  30
ENDBRANCH  27  29
ENDBRANCH  26  27
ENDBRANCH  25  26
ENDBRANCH  24  25
ENDBRANCH  21  24
ENDBRANCH  19  20
ENDBRANCH  18  19
ENDBRANCH  15  18
ENDBRANCH  13  14
BRANCH  13  42
HETATM   42  O   UNK N   1      28.282  17.671   6.401  0.00  0.00    -0.385 OA
HETATM   43  H   UNK N   1      29.085  17.568   6.934  0.00  0.00     0.210 HD
ENDBRANCH  13  42
ENDBRANCH  10  13
ENDBRANCH   9  10
ENDBRANCH   8   9
ENDBRANCH   6   8
BRANCH   6  44
HETATM   44  O   UNK N   1      30.569  15.612   6.353  0.00  0.00    -0.307 OA
HETATM   45  H   UNK N   1      29.645  15.825   6.148  0.00  0.00     0.222 HD
ENDBRANCH   6  44
ENDBRANCH   5   6
ENDBRANCH   3   5
BRANCH   3  46
HETATM   46  O   UNK N   1      32.579  13.685   8.873  0.00  0.00    -0.294 OA
BRANCH  46  47
HETATM   47  C   UNK N   1      32.624  14.910   9.535  0.00  0.00     0.215 C 
BRANCH  47  48
HETATM   48  C   UNK N   1      33.805  14.972  10.493  0.00  0.00     0.180 C 
HETATM   49  O   UNK N   1      34.418  13.726  10.717  0.00  0.00    -0.353 OA
HETATM   50  C   UNK N   1      35.672  14.056  11.285  0.00  0.00     0.262 C 
HETATM   51  C   UNK N   1      35.898  15.549  11.071  0.00  0.00     0.199 C 
HETATM   52  C   UNK N   1      34.894  15.878  10.013  0.00  0.00     0.197 C 
BRANCH  50  53
HETATM   53  N   UNK N   1      35.669  13.718  12.711  0.00  0.00    -0.297 N 
HETATM   54  C   UNK N   1      35.106  12.669  13.326  0.00  0.00     0.142 A 
HETATM   55  C   UNK N   1      35.373  12.732  14.646  0.00  0.00     0.122 A 
HETATM   56  N   UNK N   1      34.402  11.654  12.774  0.00  0.00    -0.336 N 
HETATM   57  C   UNK N   1      34.922  11.736  15.495  0.00  0.00     0.131 A 
HETATM   58  N   UNK N   1      36.102  13.828  14.915  0.00  0.00    -0.346 N 
HETATM   59  N   UNK N   1      34.211  10.705  14.951  0.00  0.00    -0.337 N 
HETATM   60  C   UNK N   1      33.950  10.662  13.602  0.00  0.00     0.183 A 
ATOM     61  HN  UNK N   1      33.870   9.956  15.554  1.00  0.00     0.168 HD
HETATM   62  C   UNK N   1      36.278  14.421  13.702  0.00  0.00     0.188 A 
ATOM     63  HN  UNK N   1      36.445  14.145  15.823  1.00  0.00     0.167 HD
ATOM     64  HN  UNK N   1      34.214  11.629  11.771  1.00  0.00     0.168 HD
BRANCH  57  65
HETATM   65  N   UNK N   1      35.195  11.773  16.878  0.00  0.00    -0.383 N 
HETATM   66  H   UNK N   1      34.604  11.369  17.553  0.00  0.00     0.157 HD
HETATM   67  H   UNK N   1      36.016  12.223  17.182  0.00  0.00     0.157 HD
ENDBRANCH  57  65
ENDBRANCH  50  53
BRANCH  51  68
HETATM   68  O   UNK N   1      37.197  15.788  10.623  0.00  0.00    -0.388 OA
HETATM   69  H   UNK N   1      38.072  15.877  11.033  0.00  0.00     0.210 HD
ENDBRANCH  51  68
BRANCH  52  70
HETATM   70  O   UNK N   1      34.471  17.211  10.081  0.00  0.00    -0.286 OA
BRANCH  70  71
HETATM   71  P   UNK N   1      34.439  17.844   8.456  0.00  0.00     0.391 P 
HETATM   72  O   UNK N   1      35.285  19.145   8.374  0.00  0.00    -0.632 OA
BRANCH  71  73
HETATM   73  O   UNK N   1      35.118  16.716   7.328  0.00  0.00    -0.307 OA
HETATM   74  H   UNK N   1      35.411  16.790   6.405  0.00  0.00     0.222 HD
ENDBRANCH  71  73
BRANCH  71  75
HETATM   75  O   UNK N   1      32.817  18.246   8.011  0.00  0.00    -0.307 OA
HETATM   76  H   UNK N   1      32.444  17.919   7.177  0.00  0.00     0.222 HD
ENDBRANCH  71  75
ENDBRANCH  70  71
ENDBRANCH  52  70
ENDBRANCH  47  48
ENDBRANCH  46  47
ENDBRANCH   3  46
TORSDOF 38
ENDMDL
