MODEL 1
REMARK VINA RESULT:      -5.2      0.000      0.000
REMARK  2 active torsions:
REMARK  status: ('A' for Active; 'I' for Inactive)
REMARK    1  A    between atoms: N_1  and  S_2 
REMARK    2  A    between atoms: S_2  and  C_5 
ROOT
HETATM    1  C   UNK N   1      21.957  13.294   9.937  0.00  0.00     0.085 A 
HETATM    2  C   UNK N   1      21.651  12.601  11.111  0.00  0.00     0.067 A 
HETATM    3  C   UNK N   1      22.660  11.937  11.816  0.00  0.00     0.120 A 
HETATM    4  F   UNK N   1      22.364  11.275  12.958  0.00  0.00    -0.206 F 
HETATM    5  C   UNK N   1      23.978  11.973  11.348  0.00  0.00     0.084 A 
HETATM    6  C   UNK N   1      24.284  12.665  10.173  0.00  0.00     0.120 A 
HETATM    7  F   UNK N   1      25.562  12.708   9.726  0.00  0.00    -0.206 F 
HETATM    8  C   UNK N   1      23.275  13.329   9.468  0.00  0.00     0.067 A 
ENDROOT
BRANCH   1   9
HETATM    9  S   UNK N   1      20.673  14.195   9.077  0.00  0.00     0.256 S 
HETATM   10  O   UNK N   1      19.325  14.170   9.813  0.00  0.00    -0.201 OA
HETATM   11  O   UNK N   1      20.312  13.534   7.737  0.00  0.00    -0.201 OA
BRANCH   9  12
HETATM   12  N   UNK N   1      20.953  15.892   8.687  0.00  0.00    -0.324 N 
HETATM   13  H   UNK N   1      21.689  16.589   8.803  0.00  0.00     0.169 HD
HETATM   14  H   UNK N   1      20.146  16.293   8.211  0.00  0.00     0.169 HD
ENDBRANCH   9  12
ENDBRANCH   1   9
TORSDOF 2
ENDMDL
MODEL 2
REMARK VINA RESULT:      -5.1      1.570      2.801
REMARK  2 active torsions:
REMARK  status: ('A' for Active; 'I' for Inactive)
REMARK    1  A    between atoms: N_1  and  S_2 
REMARK    2  A    between atoms: S_2  and  C_5 
ROOT
HETATM    1  C   UNK N   1      21.675  13.891   9.434  0.00  0.00     0.085 A 
HETATM    2  C   UNK N   1      23.007  13.484   9.546  0.00  0.00     0.067 A 
HETATM    3  C   UNK N   1      23.367  12.513  10.484  0.00  0.00     0.120 A 
HETATM    4  F   UNK N   1      24.657  12.113  10.584  0.00  0.00    -0.206 F 
HETATM    5  C   UNK N   1      22.391  11.941  11.307  0.00  0.00     0.084 A 
HETATM    6  C   UNK N   1      21.059  12.347  11.197  0.00  0.00     0.120 A 
HETATM    7  F   UNK N   1      20.112  11.787  11.987  0.00  0.00    -0.206 F 
HETATM    8  C   UNK N   1      20.698  13.320  10.258  0.00  0.00     0.067 A 
ENDROOT
BRANCH   1   9
HETATM    9  S   UNK N   1      21.212  15.086   8.187  0.00  0.00     0.256 S 
HETATM   10  O   UNK N   1      20.807  16.445   8.778  0.00  0.00    -0.201 OA
HETATM   11  O   UNK N   1      19.932  14.671   7.446  0.00  0.00    -0.201 OA
BRANCH   9  12
HETATM   12  N   UNK N   1      22.373  15.466   6.914  0.00  0.00    -0.324 N 
HETATM   13  H   UNK N   1      22.363  15.745   5.933  0.00  0.00     0.169 HD
HETATM   14  H   UNK N   1      23.329  15.381   7.258  0.00  0.00     0.169 HD
ENDBRANCH   9  12
ENDBRANCH   1   9
TORSDOF 2
ENDMDL
MODEL 3
REMARK VINA RESULT:      -5.1      8.737      9.979
REMARK  2 active torsions:
REMARK  status: ('A' for Active; 'I' for Inactive)
REMARK    1  A    between atoms: N_1  and  S_2 
REMARK    2  A    between atoms: S_2  and  C_5 
ROOT
HETATM    1  C   UNK N   1      22.804  19.845   3.197  0.00  0.00     0.085 A 
HETATM    2  C   UNK N   1      23.888  20.597   2.736  0.00  0.00     0.067 A 
HETATM    3  C   UNK N   1      25.189  20.264   3.126  0.00  0.00     0.120 A 
HETATM    4  F   UNK N   1      26.238  20.988   2.670  0.00  0.00    -0.206 F 
HETATM    5  C   UNK N   1      25.406  19.173   3.974  0.00  0.00     0.084 A 
HETATM    6  C   UNK N   1      24.323  18.421   4.437  0.00  0.00     0.120 A 
HETATM    7  F   UNK N   1      24.534  17.358   5.250  0.00  0.00    -0.206 F 
HETATM    8  C   UNK N   1      23.021  18.754   4.047  0.00  0.00     0.067 A 
ENDROOT
BRANCH   1   9
HETATM    9  S   UNK N   1      21.151  20.236   2.641  0.00  0.00     0.256 S 
HETATM   10  O   UNK N   1      21.108  21.427   1.672  0.00  0.00    -0.201 OA
HETATM   11  O   UNK N   1      20.265  20.737   3.793  0.00  0.00    -0.201 OA
BRANCH   9  12
HETATM   12  N   UNK N   1      20.205  18.971   1.856  0.00  0.00    -0.324 N 
HETATM   13  H   UNK N   1      19.286  18.538   1.948  0.00  0.00     0.169 HD
HETATM   14  H   UNK N   1      20.729  18.550   1.089  0.00  0.00     0.169 HD
ENDBRANCH   9  12
ENDBRANCH   1   9
TORSDOF 2
ENDMDL
MODEL 4
REMARK VINA RESULT:      -5.0      8.699      9.689
REMARK  2 active torsions:
REMARK  status: ('A' for Active; 'I' for Inactive)
REMARK    1  A    between atoms: N_1  and  S_2 
REMARK    2  A    between atoms: S_2  and  C_5 
ROOT
HETATM    1  C   UNK N   1      22.740  19.797   3.168  0.00  0.00     0.085 A 
HETATM    2  C   UNK N   1      22.926  18.719   4.037  0.00  0.00     0.067 A 
HETATM    3  C   UNK N   1      24.208  18.394   4.487  0.00  0.00     0.120 A 
HETATM    4  F   UNK N   1      24.385  17.355   5.337  0.00  0.00    -0.206 F 
HETATM    5  C   UNK N   1      25.307  19.154   4.073  0.00  0.00     0.084 A 
HETATM    6  C   UNK N   1      25.123  20.232   3.203  0.00  0.00     0.120 A 
HETATM    7  F   UNK N   1      26.186  20.974   2.809  0.00  0.00    -0.206 F 
HETATM    8  C   UNK N   1      23.839  20.557   2.752  0.00  0.00     0.067 A 
ENDROOT
BRANCH   1   9
HETATM    9  S   UNK N   1      21.089  20.246   2.649  0.00  0.00     0.256 S 
HETATM   10  O   UNK N   1      21.068  21.423   1.662  0.00  0.00    -0.201 OA
HETATM   11  O   UNK N   1      20.255  20.799   3.815  0.00  0.00    -0.201 OA
BRANCH   9  12
HETATM   12  N   UNK N   1      20.073  19.008   1.910  0.00  0.00    -0.324 N 
HETATM   13  H   UNK N   1      19.224  18.487   2.131  0.00  0.00     0.169 HD
HETATM   14  H   UNK N   1      20.442  18.731   1.000  0.00  0.00     0.169 HD
ENDBRANCH   9  12
ENDBRANCH   1   9
TORSDOF 2
ENDMDL
MODEL 5
REMARK VINA RESULT:      -5.0     11.146     11.676
REMARK  2 active torsions:
REMARK  status: ('A' for Active; 'I' for Inactive)
REMARK    1  A    between atoms: N_1  and  S_2 
REMARK    2  A    between atoms: S_2  and  C_5 
ROOT
HETATM    1  C   UNK N   1      32.256  17.752   7.827  0.00  0.00     0.085 A 
HETATM    2  C   UNK N   1      31.611  18.387   8.891  0.00  0.00     0.067 A 
HETATM    3  C   UNK N   1      30.216  18.375   8.973  0.00  0.00     0.120 A 
HETATM    4  F   UNK N   1      29.593  18.982  10.010  0.00  0.00    -0.206 F 
HETATM    5  C   UNK N   1      29.464  17.720   7.991  0.00  0.00     0.084 A 
HETATM    6  C   UNK N   1      30.109  17.086   6.925  0.00  0.00     0.120 A 
HETATM    7  F   UNK N   1      29.382  16.443   5.980  0.00  0.00    -0.206 F 
HETATM    8  C   UNK N   1      31.505  17.098   6.844  0.00  0.00     0.067 A 
ENDROOT
BRANCH   1   9
HETATM    9  S   UNK N   1      34.043  17.716   7.765  0.00  0.00     0.256 S 
HETATM   10  O   UNK N   1      34.688  19.020   8.255  0.00  0.00    -0.201 OA
HETATM   11  O   UNK N   1      34.562  17.631   6.322  0.00  0.00    -0.201 OA
BRANCH   9  12
HETATM   12  N   UNK N   1      34.889  16.432   8.630  0.00  0.00    -0.324 N 
HETATM   13  H   UNK N   1      34.812  15.423   8.760  0.00  0.00     0.169 HD
HETATM   14  H   UNK N   1      35.682  16.806   9.150  0.00  0.00     0.169 HD
ENDBRANCH   9  12
ENDBRANCH   1   9
TORSDOF 2
ENDMDL
MODEL 6
REMARK VINA RESULT:      -5.0     10.943     11.590
REMARK  2 active torsions:
REMARK  status: ('A' for Active; 'I' for Inactive)
REMARK    1  A    between atoms: N_1  and  S_2 
REMARK    2  A    between atoms: S_2  and  C_5 
ROOT
HETATM    1  C   UNK N   1      32.101  17.533   7.589  0.00  0.00     0.085 A 
HETATM    2  C   UNK N   1      31.167  16.901   6.764  0.00  0.00     0.067 A 
HETATM    3  C   UNK N   1      29.804  16.977   7.061  0.00  0.00     0.120 A 
HETATM    4  F   UNK N   1      28.900  16.373   6.256  0.00  0.00    -0.206 F 
HETATM    5  C   UNK N   1      29.373  17.694   8.183  0.00  0.00     0.084 A 
HETATM    6  C   UNK N   1      30.306  18.326   9.009  0.00  0.00     0.120 A 
HETATM    7  F   UNK N   1      29.888  19.028  10.090  0.00  0.00    -0.206 F 
HETATM    8  C   UNK N   1      31.671  18.249   8.712  0.00  0.00     0.067 A 
ENDROOT
BRANCH   1   9
HETATM    9  S   UNK N   1      33.838  17.486   7.165  0.00  0.00     0.256 S 
HETATM   10  O   UNK N   1      34.657  18.582   7.862  0.00  0.00    -0.201 OA
HETATM   11  O   UNK N   1      34.072  17.814   5.682  0.00  0.00    -0.201 OA
BRANCH   9  12
HETATM   12  N   UNK N   1      34.732  15.992   7.448  0.00  0.00    -0.324 N 
HETATM   13  H   UNK N   1      35.644  15.595   7.219  0.00  0.00     0.169 HD
HETATM   14  H   UNK N   1      34.178  15.336   7.997  0.00  0.00     0.169 HD
ENDBRANCH   9  12
ENDBRANCH   1   9
TORSDOF 2
ENDMDL
MODEL 7
REMARK VINA RESULT:      -4.9     13.057     13.387
REMARK  2 active torsions:
REMARK  status: ('A' for Active; 'I' for Inactive)
REMARK    1  A    between atoms: N_1  and  S_2 
REMARK    2  A    between atoms: S_2  and  C_5 
ROOT
HETATM    1  C   UNK N   1      34.931  16.499   9.165  0.00  0.00     0.085 A 
HETATM    2  C   UNK N   1      34.942  15.228   8.585  0.00  0.00     0.067 A 
HETATM    3  C   UNK N   1      35.325  14.116   9.341  0.00  0.00     0.120 A 
HETATM    4  F   UNK N   1      35.326  12.884   8.781  0.00  0.00    -0.206 F 
HETATM    5  C   UNK N   1      35.690  14.275  10.682  0.00  0.00     0.084 A 
HETATM    6  C   UNK N   1      35.680  15.546  11.263  0.00  0.00     0.120 A 
HETATM    7  F   UNK N   1      36.024  15.699  12.565  0.00  0.00    -0.206 F 
HETATM    8  C   UNK N   1      35.297  16.659  10.507  0.00  0.00     0.067 A 
ENDROOT
BRANCH   1   9
HETATM    9  S   UNK N   1      34.378  17.906   8.211  0.00  0.00     0.256 S 
HETATM   10  O   UNK N   1      34.606  17.736   6.702  0.00  0.00    -0.201 OA
HETATM   11  O   UNK N   1      35.207  19.163   8.515  0.00  0.00    -0.201 OA
BRANCH   9  12
HETATM   12  N   UNK N   1      32.697  18.420   8.366  0.00  0.00    -0.324 N 
HETATM   13  H   UNK N   1      32.116  18.932   9.030  0.00  0.00     0.169 HD
HETATM   14  H   UNK N   1      32.149  18.118   7.561  0.00  0.00     0.169 HD
ENDBRANCH   9  12
ENDBRANCH   1   9
TORSDOF 2
ENDMDL
MODEL 8
REMARK VINA RESULT:      -4.9     14.696     15.146
REMARK  2 active torsions:
REMARK  status: ('A' for Active; 'I' for Inactive)
REMARK    1  A    between atoms: N_1  and  S_2 
REMARK    2  A    between atoms: S_2  and  C_5 
ROOT
HETATM    1  C   UNK N   1      35.861  12.588  15.988  0.00  0.00     0.085 A 
HETATM    2  C   UNK N   1      36.154  11.244  16.233  0.00  0.00     0.067 A 
HETATM    3  C   UNK N   1      35.967  10.707  17.511  0.00  0.00     0.120 A 
HETATM    4  F   UNK N   1      36.242   9.403  17.744  0.00  0.00    -0.206 F 
HETATM    5  C   UNK N   1      35.478  11.515  18.543  0.00  0.00     0.084 A 
HETATM    6  C   UNK N   1      35.186  12.860  18.299  0.00  0.00     0.120 A 
HETATM    7  F   UNK N   1      34.703  13.640  19.296  0.00  0.00    -0.206 F 
HETATM    8  C   UNK N   1      35.373  13.397  17.021  0.00  0.00     0.067 A 
ENDROOT
BRANCH   1   9
HETATM    9  S   UNK N   1      36.041  13.250  14.337  0.00  0.00     0.256 S 
HETATM   10  O   UNK N   1      34.705  13.370  13.588  0.00  0.00    -0.201 OA
HETATM   11  O   UNK N   1      36.828  12.297  13.423  0.00  0.00    -0.201 OA
BRANCH   9  12
HETATM   12  N   UNK N   1      36.821  14.819  14.140  0.00  0.00    -0.324 N 
HETATM   13  H   UNK N   1      37.521  15.251  13.536  0.00  0.00     0.169 HD
HETATM   14  H   UNK N   1      36.475  15.486  14.829  0.00  0.00     0.169 HD
ENDBRANCH   9  12
ENDBRANCH   1   9
TORSDOF 2
ENDMDL
MODEL 9
REMARK VINA RESULT:      -4.7     11.674     12.762
REMARK  2 active torsions:
REMARK  status: ('A' for Active; 'I' for Inactive)
REMARK    1  A    between atoms: N_1  and  S_2 
REMARK    2  A    between atoms: S_2  and  C_5 
ROOT
HETATM    1  C   UNK N   1      33.544  16.576   8.331  0.00  0.00     0.085 A 
HETATM    2  C   UNK N   1      34.022  17.076   7.117  0.00  0.00     0.067 A 
HETATM    3  C   UNK N   1      33.126  17.425   6.102  0.00  0.00     0.120 A 
HETATM    4  F   UNK N   1      33.590  17.919   4.930  0.00  0.00    -0.206 F 
HETATM    5  C   UNK N   1      31.750  17.278   6.303  0.00  0.00     0.084 A 
HETATM    6  C   UNK N   1      31.271  16.776   7.517  0.00  0.00     0.120 A 
HETATM    7  F   UNK N   1      29.937  16.644   7.716  0.00  0.00    -0.206 F 
HETATM    8  C   UNK N   1      32.166  16.428   8.533  0.00  0.00     0.067 A 
ENDROOT
BRANCH   1   9
HETATM    9  S   UNK N   1      34.691  16.194   9.648  0.00  0.00     0.256 S 
HETATM   10  O   UNK N   1      35.464  17.424  10.147  0.00  0.00    -0.201 OA
HETATM   11  O   UNK N   1      35.830  15.282   9.167  0.00  0.00    -0.201 OA
BRANCH   9  12
HETATM   12  N   UNK N   1      34.071  15.418  11.106  0.00  0.00    -0.324 N 
HETATM   13  H   UNK N   1      33.227  14.933  11.410  0.00  0.00     0.169 HD
HETATM   14  H   UNK N   1      34.752  15.472  11.864  0.00  0.00     0.169 HD
ENDBRANCH   9  12
ENDBRANCH   1   9
TORSDOF 2
ENDMDL
