MODEL 1
REMARK VINA RESULT:      -4.7      0.000      0.000
REMARK  6 active torsions:
REMARK  status: ('A' for Active; 'I' for Inactive)
REMARK    1  A    between atoms: C_2  and  N_1 
REMARK    2  A    between atoms: C_2  and  C_3 
REMARK    3  A    between atoms: C_2  and  C_10 
REMARK    4  A    between atoms: C_3  and  C_4 
REMARK    5  A    between atoms: C_4  and  C_5 
REMARK    6  A    between atoms: C_5  and  N_6 
REMARK       I    between atoms: N_6  and  C_7 
REMARK       I    between atoms: C_7  and  N_8 
REMARK       I    between atoms: C_10  and  N_11 
ROOT
HETATM    1  C   UNK N   1      36.173  11.561  15.673  0.00  0.00     0.023 C 
ENDROOT
BRANCH   1   2
HETATM    2  C   UNK N   1      37.100  12.567  15.003  0.00  0.00     0.036 C 
BRANCH   2   3
HETATM    3  C   UNK N   1      36.382  13.862  14.646  0.00  0.00     0.167 C 
BRANCH   3   4
HETATM    4  N   UNK N   1      37.245  14.982  14.992  0.00  0.00    -0.418 N 
HETATM    5  H   UNK N   1      37.627  15.583  14.261  0.00  0.00     0.150 HD
HETATM    6  H   UNK N   1      37.468  15.168  15.969  0.00  0.00     0.150 HD
ENDBRANCH   3   4
BRANCH   3   7
HETATM    7  C   UNK N   1      36.004  13.911  13.186  0.00  0.00     0.237 C 
HETATM    8  N   UNK N   1      36.948  14.067  12.234  0.00  0.00    -0.368 N 
HETATM    9  H   UNK N   1      36.729  14.065  11.274  0.00  0.00     0.159 HD
HETATM   10  H   UNK N   1      37.886  14.186  12.509  0.00  0.00     0.159 HD
HETATM   11  O   UNK N   1      34.830  13.835  12.860  0.00  0.00    -0.271 OA
ENDBRANCH   3   7
ENDBRANCH   2   3
ENDBRANCH   1   2
BRANCH   1  12
HETATM   12  C   UNK N   1      35.080  12.347  16.388  0.00  0.00     0.138 C 
BRANCH  12  13
HETATM   13  N   UNK N   1      35.075  12.287  17.842  0.00  0.00    -0.227 N 
HETATM   14  C   UNK N   1      35.225  13.351  18.778  0.00  0.00     0.665 C 
HETATM   15  N   UNK N   1      35.118  13.074  20.157  0.00  0.00    -0.235 N 
HETATM   16  N   UNK N   1      35.416  14.560  18.393  0.00  0.00    -0.235 N 
HETATM   17  H   UNK N   1      34.942  12.154  20.463  0.00  0.00     0.174 HD
HETATM   18  H   UNK N   1      35.221  13.800  20.815  0.00  0.00     0.174 HD
HETATM   19  H   UNK N   1      35.465  15.287  19.055  0.00  0.00     0.174 HD
HETATM   20  H   UNK N   1      35.513  14.760  17.434  0.00  0.00     0.174 HD
HETATM   21  H   UNK N   1      34.951  11.391  18.231  0.00  0.00     0.177 HD
ENDBRANCH  12  13
ENDBRANCH   1  12
TORSDOF 6
ENDMDL
MODEL 2
REMARK VINA RESULT:      -4.6      8.120      9.638
REMARK  6 active torsions:
REMARK  status: ('A' for Active; 'I' for Inactive)
REMARK    1  A    between atoms: C_2  and  N_1 
REMARK    2  A    between atoms: C_2  and  C_3 
REMARK    3  A    between atoms: C_2  and  C_10 
REMARK    4  A    between atoms: C_3  and  C_4 
REMARK    5  A    between atoms: C_4  and  C_5 
REMARK    6  A    between atoms: C_5  and  N_6 
REMARK       I    between atoms: N_6  and  C_7 
REMARK       I    between atoms: C_7  and  N_8 
REMARK       I    between atoms: C_10  and  N_11 
ROOT
HETATM    1  C   UNK N   1      31.762  15.828   8.440  0.00  0.00     0.023 C 
ENDROOT
BRANCH   1   2
HETATM    2  C   UNK N   1      33.275  15.990   8.372  0.00  0.00     0.036 C 
BRANCH   2   3
HETATM    3  C   UNK N   1      33.751  17.250   9.082  0.00  0.00     0.167 C 
BRANCH   3   4
HETATM    4  N   UNK N   1      34.578  16.862  10.215  0.00  0.00    -0.418 N 
HETATM    5  H   UNK N   1      34.671  17.481  11.021  0.00  0.00     0.150 HD
HETATM    6  H   UNK N   1      35.067  15.968  10.204  0.00  0.00     0.150 HD
ENDBRANCH   3   4
BRANCH   3   7
HETATM    7  C   UNK N   1      34.513  18.166   8.155  0.00  0.00     0.237 C 
HETATM    8  N   UNK N   1      35.175  19.239   8.637  0.00  0.00    -0.368 N 
HETATM    9  H   UNK N   1      35.709  19.829   8.056  0.00  0.00     0.159 HD
HETATM   10  H   UNK N   1      35.123  19.438   9.600  0.00  0.00     0.159 HD
HETATM   11  O   UNK N   1      34.512  17.951   6.954  0.00  0.00    -0.271 OA
ENDBRANCH   3   7
ENDBRANCH   2   3
ENDBRANCH   1   2
BRANCH   1  12
HETATM   12  C   UNK N   1      31.137  17.079   7.834  0.00  0.00     0.138 C 
BRANCH  12  13
HETATM   13  N   UNK N   1      29.726  17.305   8.108  0.00  0.00    -0.227 N 
HETATM   14  C   UNK N   1      29.133  18.078   9.148  0.00  0.00     0.665 C 
HETATM   15  N   UNK N   1      27.730  18.218   9.187  0.00  0.00    -0.235 N 
HETATM   16  N   UNK N   1      29.848  18.680  10.026  0.00  0.00    -0.235 N 
HETATM   17  H   UNK N   1      27.172  17.784   8.500  0.00  0.00     0.174 HD
HETATM   18  H   UNK N   1      27.307  18.749   9.900  0.00  0.00     0.174 HD
HETATM   19  H   UNK N   1      29.421  19.251  10.704  0.00  0.00     0.174 HD
HETATM   20  H   UNK N   1      30.827  18.572  10.020  0.00  0.00     0.174 HD
HETATM   21  H   UNK N   1      29.097  16.864   7.492  0.00  0.00     0.177 HD
ENDBRANCH  12  13
ENDBRANCH   1  12
TORSDOF 6
ENDMDL
MODEL 3
REMARK VINA RESULT:      -4.5      8.346     10.305
REMARK  6 active torsions:
REMARK  status: ('A' for Active; 'I' for Inactive)
REMARK    1  A    between atoms: C_2  and  N_1 
REMARK    2  A    between atoms: C_2  and  C_3 
REMARK    3  A    between atoms: C_2  and  C_10 
REMARK    4  A    between atoms: C_3  and  C_4 
REMARK    5  A    between atoms: C_4  and  C_5 
REMARK    6  A    between atoms: C_5  and  N_6 
REMARK       I    between atoms: N_6  and  C_7 
REMARK       I    between atoms: C_7  and  N_8 
REMARK       I    between atoms: C_10  and  N_11 
ROOT
HETATM    1  C   UNK N   1      30.681  17.316   7.524  0.00  0.00     0.023 C 
ENDROOT
BRANCH   1   2
HETATM    2  C   UNK N   1      30.398  16.739   8.904  0.00  0.00     0.036 C 
BRANCH   2   3
HETATM    3  C   UNK N   1      29.547  17.672   9.754  0.00  0.00     0.167 C 
BRANCH   3   4
HETATM    4  N   UNK N   1      30.148  18.997   9.736  0.00  0.00    -0.418 N 
HETATM    5  H   UNK N   1      30.525  19.404  10.593  0.00  0.00     0.150 HD
HETATM    6  H   UNK N   1      30.193  19.523   8.864  0.00  0.00     0.150 HD
ENDBRANCH   3   4
BRANCH   3   7
HETATM    7  C   UNK N   1      28.118  17.729   9.270  0.00  0.00     0.237 C 
HETATM    8  N   UNK N   1      27.618  18.861   8.730  0.00  0.00    -0.368 N 
HETATM    9  H   UNK N   1      26.701  18.911   8.374  0.00  0.00     0.159 HD
HETATM   10  H   UNK N   1      28.189  19.663   8.691  0.00  0.00     0.159 HD
HETATM   11  O   UNK N   1      27.397  16.752   9.388  0.00  0.00    -0.271 OA
ENDBRANCH   3   7
ENDBRANCH   2   3
ENDBRANCH   1   2
BRANCH   1  12
HETATM   12  C   UNK N   1      32.195  17.365   7.347  0.00  0.00     0.138 C 
BRANCH  12  13
HETATM   13  N   UNK N   1      33.000  16.972   8.494  0.00  0.00    -0.227 N 
HETATM   14  C   UNK N   1      34.195  17.570   8.991  0.00  0.00     0.665 C 
HETATM   15  N   UNK N   1      34.780  17.062  10.169  0.00  0.00    -0.235 N 
HETATM   16  N   UNK N   1      34.727  18.584   8.412  0.00  0.00    -0.235 N 
HETATM   17  H   UNK N   1      34.363  16.303  10.639  0.00  0.00     0.174 HD
HETATM   18  H   UNK N   1      35.606  17.466  10.523  0.00  0.00     0.174 HD
HETATM   19  H   UNK N   1      35.522  19.014   8.801  0.00  0.00     0.174 HD
HETATM   20  H   UNK N   1      34.338  18.933   7.577  0.00  0.00     0.174 HD
HETATM   21  H   UNK N   1      32.677  16.188   8.993  0.00  0.00     0.177 HD
ENDBRANCH  12  13
ENDBRANCH   1  12
TORSDOF 6
ENDMDL
MODEL 4
REMARK VINA RESULT:      -4.4      4.543      6.587
REMARK  6 active torsions:
REMARK  status: ('A' for Active; 'I' for Inactive)
REMARK    1  A    between atoms: C_2  and  N_1 
REMARK    2  A    between atoms: C_2  and  C_3 
REMARK    3  A    between atoms: C_2  and  C_10 
REMARK    4  A    between atoms: C_3  and  C_4 
REMARK    5  A    between atoms: C_4  and  C_5 
REMARK    6  A    between atoms: C_5  and  N_6 
REMARK       I    between atoms: N_6  and  C_7 
REMARK       I    between atoms: C_7  and  N_8 
REMARK       I    between atoms: C_10  and  N_11 
ROOT
HETATM    1  C   UNK N   1      33.821  14.571   9.480  0.00  0.00     0.023 C 
ENDROOT
BRANCH   1   2
HETATM    2  C   UNK N   1      34.727  15.643   8.888  0.00  0.00     0.036 C 
BRANCH   2   3
HETATM    3  C   UNK N   1      34.365  17.038   9.378  0.00  0.00     0.167 C 
BRANCH   3   4
HETATM    4  N   UNK N   1      35.191  17.355  10.533  0.00  0.00    -0.418 N 
HETATM    5  H   UNK N   1      35.638  18.269  10.612  0.00  0.00     0.150 HD
HETATM    6  H   UNK N   1      35.325  16.661  11.268  0.00  0.00     0.150 HD
ENDBRANCH   3   4
BRANCH   3   7
HETATM    7  C   UNK N   1      34.538  18.077   8.297  0.00  0.00     0.237 C 
HETATM    8  N   UNK N   1      33.963  17.915   7.087  0.00  0.00    -0.368 N 
HETATM    9  H   UNK N   1      34.031  18.597   6.379  0.00  0.00     0.159 HD
HETATM   10  H   UNK N   1      33.458  17.089   6.906  0.00  0.00     0.159 HD
HETATM   11  O   UNK N   1      35.225  19.064   8.507  0.00  0.00    -0.271 OA
ENDBRANCH   3   7
ENDBRANCH   2   3
ENDBRANCH   1   2
BRANCH   1  12
HETATM   12  C   UNK N   1      34.713  13.540  10.161  0.00  0.00     0.138 C 
BRANCH  12  13
HETATM   13  N   UNK N   1      34.720  13.539  11.617  0.00  0.00    -0.227 N 
HETATM   14  C   UNK N   1      35.813  13.765  12.503  0.00  0.00     0.665 C 
HETATM   15  N   UNK N   1      35.579  13.786  13.894  0.00  0.00    -0.235 N 
HETATM   16  N   UNK N   1      36.997  13.988  12.062  0.00  0.00    -0.235 N 
HETATM   17  H   UNK N   1      34.668  13.646  14.242  0.00  0.00     0.174 HD
HETATM   18  H   UNK N   1      36.325  13.941  14.517  0.00  0.00     0.174 HD
HETATM   19  H   UNK N   1      37.727  14.193  12.690  0.00  0.00     0.174 HD
HETATM   20  H   UNK N   1      37.175  13.955  11.095  0.00  0.00     0.174 HD
HETATM   21  H   UNK N   1      33.853  13.359  12.047  0.00  0.00     0.177 HD
ENDBRANCH  12  13
ENDBRANCH   1  12
TORSDOF 6
ENDMDL
MODEL 5
REMARK VINA RESULT:      -4.4     15.845     16.559
REMARK  6 active torsions:
REMARK  status: ('A' for Active; 'I' for Inactive)
REMARK    1  A    between atoms: C_2  and  N_1 
REMARK    2  A    between atoms: C_2  and  C_3 
REMARK    3  A    between atoms: C_2  and  C_10 
REMARK    4  A    between atoms: C_3  and  C_4 
REMARK    5  A    between atoms: C_4  and  C_5 
REMARK    6  A    between atoms: C_5  and  N_6 
REMARK       I    between atoms: N_6  and  C_7 
REMARK       I    between atoms: C_7  and  N_8 
REMARK       I    between atoms: C_10  and  N_11 
ROOT
HETATM    1  C   UNK N   1      21.000  13.832   8.514  0.00  0.00     0.023 C 
ENDROOT
BRANCH   1   2
HETATM    2  C   UNK N   1      20.245  14.847   9.363  0.00  0.00     0.036 C 
BRANCH   2   3
HETATM    3  C   UNK N   1      20.126  16.199   8.675  0.00  0.00     0.167 C 
BRANCH   3   4
HETATM    4  N   UNK N   1      20.213  15.998   7.236  0.00  0.00    -0.418 N 
HETATM    5  H   UNK N   1      19.837  15.151   6.810  0.00  0.00     0.150 HD
HETATM    6  H   UNK N   1      20.653  16.708   6.650  0.00  0.00     0.150 HD
ENDBRANCH   3   4
BRANCH   3   7
HETATM    7  C   UNK N   1      18.843  16.905   9.038  0.00  0.00     0.237 C 
HETATM    8  N   UNK N   1      18.838  18.226   9.320  0.00  0.00    -0.368 N 
HETATM    9  H   UNK N   1      18.008  18.715   9.523  0.00  0.00     0.159 HD
HETATM   10  H   UNK N   1      19.693  18.715   9.323  0.00  0.00     0.159 HD
HETATM   11  O   UNK N   1      17.800  16.275   9.101  0.00  0.00    -0.271 OA
ENDBRANCH   3   7
ENDBRANCH   2   3
ENDBRANCH   1   2
BRANCH   1  12
HETATM   12  C   UNK N   1      21.480  12.722   9.442  0.00  0.00     0.138 C 
BRANCH  12  13
HETATM   13  N   UNK N   1      22.861  12.798   9.893  0.00  0.00    -0.227 N 
HETATM   14  C   UNK N   1      23.446  12.250  11.072  0.00  0.00     0.665 C 
HETATM   15  N   UNK N   1      24.834  12.387  11.280  0.00  0.00    -0.235 N 
HETATM   16  N   UNK N   1      22.743  11.601  11.927  0.00  0.00    -0.235 N 
HETATM   17  H   UNK N   1      25.388  12.857  10.615  0.00  0.00     0.174 HD
HETATM   18  H   UNK N   1      25.250  12.013  12.091  0.00  0.00     0.174 HD
HETATM   19  H   UNK N   1      23.176  11.186  12.708  0.00  0.00     0.174 HD
HETATM   20  H   UNK N   1      21.770  11.518  11.802  0.00  0.00     0.174 HD
HETATM   21  H   UNK N   1      23.475  13.295   9.305  0.00  0.00     0.177 HD
ENDBRANCH  12  13
ENDBRANCH   1  12
TORSDOF 6
ENDMDL
MODEL 6
REMARK VINA RESULT:      -4.3     18.439     20.319
REMARK  6 active torsions:
REMARK  status: ('A' for Active; 'I' for Inactive)
REMARK    1  A    between atoms: C_2  and  N_1 
REMARK    2  A    between atoms: C_2  and  C_3 
REMARK    3  A    between atoms: C_2  and  C_10 
REMARK    4  A    between atoms: C_3  and  C_4 
REMARK    5  A    between atoms: C_4  and  C_5 
REMARK    6  A    between atoms: C_5  and  N_6 
REMARK       I    between atoms: N_6  and  C_7 
REMARK       I    between atoms: C_7  and  N_8 
REMARK       I    between atoms: C_10  and  N_11 
ROOT
HETATM    1  C   UNK N   1      20.541  17.027   2.945  0.00  0.00     0.023 C 
ENDROOT
BRANCH   1   2
HETATM    2  C   UNK N   1      21.252  16.907   4.286  0.00  0.00     0.036 C 
BRANCH   2   3
HETATM    3  C   UNK N   1      21.630  18.265   4.860  0.00  0.00     0.167 C 
BRANCH   3   4
HETATM    4  N   UNK N   1      21.417  18.237   6.300  0.00  0.00    -0.418 N 
HETATM    5  H   UNK N   1      20.471  18.217   6.680  0.00  0.00     0.150 HD
HETATM    6  H   UNK N   1      22.218  18.238   6.932  0.00  0.00     0.150 HD
ENDBRANCH   3   4
BRANCH   3   7
HETATM    7  C   UNK N   1      23.059  18.634   4.540  0.00  0.00     0.237 C 
HETATM    8  N   UNK N   1      24.078  18.145   5.277  0.00  0.00    -0.368 N 
HETATM    9  H   UNK N   1      25.020  18.342   5.065  0.00  0.00     0.159 HD
HETATM   10  H   UNK N   1      23.875  17.573   6.052  0.00  0.00     0.159 HD
HETATM   11  O   UNK N   1      23.296  19.402   3.622  0.00  0.00    -0.271 OA
ENDBRANCH   3   7
ENDBRANCH   2   3
ENDBRANCH   1   2
BRANCH   1  12
HETATM   12  C   UNK N   1      19.802  18.360   2.933  0.00  0.00     0.138 C 
BRANCH  12  13
HETATM   13  N   UNK N   1      19.931  19.169   1.730  0.00  0.00    -0.227 N 
HETATM   14  C   UNK N   1      20.507  20.465   1.584  0.00  0.00     0.665 C 
HETATM   15  N   UNK N   1      20.588  21.041   0.299  0.00  0.00    -0.235 N 
HETATM   16  N   UNK N   1      20.989  21.100   2.589  0.00  0.00    -0.235 N 
HETATM   17  H   UNK N   1      20.249  20.549  -0.484  0.00  0.00     0.174 HD
HETATM   18  H   UNK N   1      20.984  21.935   0.185  0.00  0.00     0.174 HD
HETATM   19  H   UNK N   1      21.429  21.971   2.458  0.00  0.00     0.174 HD
HETATM   20  H   UNK N   1      20.918  20.715   3.493  0.00  0.00     0.174 HD
HETATM   21  H   UNK N   1      19.571  18.768   0.906  0.00  0.00     0.177 HD
ENDBRANCH  12  13
ENDBRANCH   1  12
TORSDOF 6
ENDMDL
MODEL 7
REMARK VINA RESULT:      -4.3      4.536      6.361
REMARK  6 active torsions:
REMARK  status: ('A' for Active; 'I' for Inactive)
REMARK    1  A    between atoms: C_2  and  N_1 
REMARK    2  A    between atoms: C_2  and  C_3 
REMARK    3  A    between atoms: C_2  and  C_10 
REMARK    4  A    between atoms: C_3  and  C_4 
REMARK    5  A    between atoms: C_4  and  C_5 
REMARK    6  A    between atoms: C_5  and  N_6 
REMARK       I    between atoms: N_6  and  C_7 
REMARK       I    between atoms: C_7  and  N_8 
REMARK       I    between atoms: C_10  and  N_11 
ROOT
HETATM    1  C   UNK N   1      35.470  16.396  10.994  0.00  0.00     0.023 C 
ENDROOT
BRANCH   1   2
HETATM    2  C   UNK N   1      34.469  16.159   9.871  0.00  0.00     0.036 C 
BRANCH   2   3
HETATM    3  C   UNK N   1      34.940  16.744   8.546  0.00  0.00     0.167 C 
BRANCH   3   4
HETATM    4  N   UNK N   1      34.484  15.881   7.467  0.00  0.00    -0.418 N 
HETATM    5  H   UNK N   1      33.752  16.195   6.830  0.00  0.00     0.150 HD
HETATM    6  H   UNK N   1      34.897  14.956   7.347  0.00  0.00     0.150 HD
ENDBRANCH   3   4
BRANCH   3   7
HETATM    7  C   UNK N   1      34.444  18.155   8.345  0.00  0.00     0.237 C 
HETATM    8  N   UNK N   1      33.156  18.393   8.019  0.00  0.00    -0.368 N 
HETATM    9  H   UNK N   1      32.801  19.306   7.919  0.00  0.00     0.159 HD
HETATM   10  H   UNK N   1      32.552  17.629   7.876  0.00  0.00     0.159 HD
HETATM   11  O   UNK N   1      35.218  19.092   8.454  0.00  0.00    -0.271 OA
ENDBRANCH   3   7
ENDBRANCH   2   3
ENDBRANCH   1   2
BRANCH   1  12
HETATM   12  C   UNK N   1      35.717  15.058  11.680  0.00  0.00     0.138 C 
BRANCH  12  13
HETATM   13  N   UNK N   1      36.433  15.094  12.946  0.00  0.00    -0.227 N 
HETATM   14  C   UNK N   1      36.311  14.218  14.064  0.00  0.00     0.665 C 
HETATM   15  N   UNK N   1      37.160  14.398  15.176  0.00  0.00    -0.235 N 
HETATM   16  N   UNK N   1      35.473  13.246  14.065  0.00  0.00    -0.235 N 
HETATM   17  H   UNK N   1      37.828  15.123  15.173  0.00  0.00     0.174 HD
HETATM   18  H   UNK N   1      37.086  13.800  15.955  0.00  0.00     0.174 HD
HETATM   19  H   UNK N   1      35.442  12.622  14.825  0.00  0.00     0.174 HD
HETATM   20  H   UNK N   1      34.862  13.125  13.303  0.00  0.00     0.174 HD
HETATM   21  H   UNK N   1      37.089  15.822  13.045  0.00  0.00     0.177 HD
ENDBRANCH  12  13
ENDBRANCH   1  12
TORSDOF 6
ENDMDL
MODEL 8
REMARK VINA RESULT:      -4.2      9.453     12.056
REMARK  6 active torsions:
REMARK  status: ('A' for Active; 'I' for Inactive)
REMARK    1  A    between atoms: C_2  and  N_1 
REMARK    2  A    between atoms: C_2  and  C_3 
REMARK    3  A    between atoms: C_2  and  C_10 
REMARK    4  A    between atoms: C_3  and  C_4 
REMARK    5  A    between atoms: C_4  and  C_5 
REMARK    6  A    between atoms: C_5  and  N_6 
REMARK       I    between atoms: N_6  and  C_7 
REMARK       I    between atoms: C_7  and  N_8 
REMARK       I    between atoms: C_10  and  N_11 
ROOT
HETATM    1  C   UNK N   1      30.343  17.409   7.492  0.00  0.00     0.023 C 
ENDROOT
BRANCH   1   2
HETATM    2  C   UNK N   1      31.813  17.113   7.224  0.00  0.00     0.036 C 
BRANCH   2   3
HETATM    3  C   UNK N   1      32.719  17.663   8.316  0.00  0.00     0.167 C 
BRANCH   3   4
HETATM    4  N   UNK N   1      32.925  16.626   9.317  0.00  0.00    -0.418 N 
HETATM    5  H   UNK N   1      33.627  16.747  10.047  0.00  0.00     0.150 HD
HETATM    6  H   UNK N   1      32.366  15.774   9.287  0.00  0.00     0.150 HD
ENDBRANCH   3   4
BRANCH   3   7
HETATM    7  C   UNK N   1      34.041  18.141   7.764  0.00  0.00     0.237 C 
HETATM    8  N   UNK N   1      34.909  18.818   8.545  0.00  0.00    -0.368 N 
HETATM    9  H   UNK N   1      35.792  19.108   8.218  0.00  0.00     0.159 HD
HETATM   10  H   UNK N   1      34.652  19.030   9.471  0.00  0.00     0.159 HD
HETATM   11  O   UNK N   1      34.320  17.936   6.595  0.00  0.00    -0.271 OA
ENDBRANCH   3   7
ENDBRANCH   2   3
ENDBRANCH   1   2
BRANCH   1  12
HETATM   12  C   UNK N   1      29.551  16.946   6.275  0.00  0.00     0.138 C 
BRANCH  12  13
HETATM   13  N   UNK N   1      29.230  17.957   5.279  0.00  0.00    -0.227 N 
HETATM   14  C   UNK N   1      28.092  18.812   5.211  0.00  0.00     0.665 C 
HETATM   15  N   UNK N   1      28.016  19.777   4.185  0.00  0.00    -0.235 N 
HETATM   16  N   UNK N   1      27.155  18.749   6.085  0.00  0.00    -0.235 N 
HETATM   17  H   UNK N   1      28.744  19.854   3.526  0.00  0.00     0.174 HD
HETATM   18  H   UNK N   1      27.234  20.373   4.126  0.00  0.00     0.174 HD
HETATM   19  H   UNK N   1      26.403  19.383   6.049  0.00  0.00     0.174 HD
HETATM   20  H   UNK N   1      27.188  18.065   6.792  0.00  0.00     0.174 HD
HETATM   21  H   UNK N   1      29.888  18.065   4.554  0.00  0.00     0.177 HD
ENDBRANCH  12  13
ENDBRANCH   1  12
TORSDOF 6
ENDMDL
MODEL 9
REMARK VINA RESULT:      -4.2     24.402     26.199
REMARK  6 active torsions:
REMARK  status: ('A' for Active; 'I' for Inactive)
REMARK    1  A    between atoms: C_2  and  N_1 
REMARK    2  A    between atoms: C_2  and  C_3 
REMARK    3  A    between atoms: C_2  and  C_10 
REMARK    4  A    between atoms: C_3  and  C_4 
REMARK    5  A    between atoms: C_4  and  C_5 
REMARK    6  A    between atoms: C_5  and  N_6 
REMARK       I    between atoms: N_6  and  C_7 
REMARK       I    between atoms: C_7  and  N_8 
REMARK       I    between atoms: C_10  and  N_11 
ROOT
HETATM    1  C   UNK N   1      26.088  26.693  -6.789  0.00  0.00     0.023 C 
ENDROOT
BRANCH   1   2
HETATM    2  C   UNK N   1      26.779  25.401  -6.371  0.00  0.00     0.036 C 
BRANCH   2   3
HETATM    3  C   UNK N   1      26.005  24.657  -5.292  0.00  0.00     0.167 C 
BRANCH   3   4
HETATM    4  N   UNK N   1      25.342  23.513  -5.900  0.00  0.00    -0.418 N 
HETATM    5  H   UNK N   1      24.825  22.850  -5.322  0.00  0.00     0.150 HD
HETATM    6  H   UNK N   1      25.395  23.372  -6.909  0.00  0.00     0.150 HD
ENDBRANCH   3   4
BRANCH   3   7
HETATM    7  C   UNK N   1      26.900  24.215  -4.160  0.00  0.00     0.237 C 
HETATM    8  N   UNK N   1      28.173  23.834  -4.397  0.00  0.00    -0.368 N 
HETATM    9  H   UNK N   1      28.786  23.577  -3.670  0.00  0.00     0.159 HD
HETATM   10  H   UNK N   1      28.498  23.811  -5.326  0.00  0.00     0.159 HD
HETATM   11  O   UNK N   1      26.464  24.178  -3.021  0.00  0.00    -0.271 OA
ENDBRANCH   3   7
ENDBRANCH   2   3
ENDBRANCH   1   2
BRANCH   1  12
HETATM   12  C   UNK N   1      25.229  27.154  -5.618  0.00  0.00     0.138 C 
BRANCH  12  13
HETATM   13  N   UNK N   1      25.725  28.284  -4.846  0.00  0.00    -0.227 N 
HETATM   14  C   UNK N   1      26.121  28.323  -3.477  0.00  0.00     0.665 C 
HETATM   15  N   UNK N   1      26.642  29.521  -2.945  0.00  0.00    -0.235 N 
HETATM   16  N   UNK N   1      26.049  27.283  -2.730  0.00  0.00    -0.235 N 
HETATM   17  H   UNK N   1      26.729  30.317  -3.518  0.00  0.00     0.174 HD
HETATM   18  H   UNK N   1      26.918  29.561  -2.001  0.00  0.00     0.174 HD
HETATM   19  H   UNK N   1      26.376  27.318  -1.802  0.00  0.00     0.174 HD
HETATM   20  H   UNK N   1      25.668  26.448  -3.085  0.00  0.00     0.174 HD
HETATM   21  H   UNK N   1      25.798  29.135  -5.335  0.00  0.00     0.177 HD
ENDBRANCH  12  13
ENDBRANCH   1  12
TORSDOF 6
ENDMDL
