MODEL 1
REMARK VINA RESULT:      -6.6      0.000      0.000
REMARK  9 active torsions:
REMARK  status: ('A' for Active; 'I' for Inactive)
REMARK    1  A    between atoms: C_2  and  N_3 
REMARK    2  A    between atoms: N_3  and  C_5 
REMARK    3  A    between atoms: N_3  and  C_7 
REMARK    4  A    between atoms: C_7  and  C_8 
REMARK    5  A    between atoms: C_8  and  C_9 
REMARK    6  A    between atoms: C_9  and  N_10 
REMARK    7  A    between atoms: C_11  and  C_12 
REMARK    8  A    between atoms: C_22  and  N_23 
REMARK    9  A    between atoms: C_28  and  N_29 
ROOT
HETATM    1  N   UNK N   1      29.197  23.357  -4.736  0.00  0.00    -0.345 N 
HETATM    2  C   UNK N   1      28.283  23.484  -5.784  0.00  0.00     0.056 A 
HETATM    3  C   UNK N   1      28.251  22.447  -6.779  0.00  0.00     0.005 A 
HETATM    4  C   UNK N   1      29.159  21.364  -6.707  0.00  0.00    -0.011 A 
HETATM    5  C   UNK N   1      29.120  20.346  -7.680  0.00  0.00     0.015 A 
HETATM    6  C   UNK N   1      28.182  20.378  -8.708  0.00  0.00     0.030 A 
HETATM    7  C   UNK N   1      27.277  21.430  -8.782  0.00  0.00     0.026 A 
HETATM    8  C   UNK N   1      27.319  22.450  -7.835  0.00  0.00     0.043 A 
HETATM    9  C   UNK N   1      30.087  21.302  -5.667  0.00  0.00     0.002 A 
HETATM   10  C   UNK N   1      30.084  22.304  -4.677  0.00  0.00     0.048 A 
HETATM   11  C   UNK N   1      31.019  22.207  -3.620  0.00  0.00     0.059 A 
HETATM   12  C   UNK N   1      31.934  21.155  -3.559  0.00  0.00     0.027 A 
HETATM   13  C   UNK N   1      31.931  20.173  -4.544  0.00  0.00     0.030 A 
HETATM   14  C   UNK N   1      31.010  20.241  -5.589  0.00  0.00     0.017 A 
ENDROOT
BRANCH   1  15
HETATM   15  C   UNK N   1      29.240  24.326  -3.636  0.00  0.00     0.131 C 
BRANCH  15  16
HETATM   16  C   UNK N   1      30.131  25.504  -3.966  0.00  0.00     0.048 C 
BRANCH  16  17
HETATM   17  C   UNK N   1      29.316  26.764  -3.716  0.00  0.00     0.238 C 
BRANCH  17  18
HETATM   18  N   UNK N   1      30.084  28.009  -3.819  0.00  0.00    -0.071 N 
HETATM   19  C   UNK N   1      30.448  28.246  -5.216  0.00  0.00     0.272 C 
BRANCH  18  20
HETATM   20  C   UNK N   1      29.154  29.059  -3.389  0.00  0.00     0.232 C 
HETATM   21  C   UNK N   1      27.684  28.644  -3.466  0.00  0.00     0.035 C 
ENDBRANCH  18  20
BRANCH  18  22
HETATM   22  C   UNK N   1      31.253  28.023  -2.915  0.00  0.00     0.232 C 
HETATM   23  C   UNK N   1      31.202  29.100  -1.830  0.00  0.00     0.035 C 
ENDBRANCH  18  22
ENDBRANCH  17  18
ENDBRANCH  16  17
ENDBRANCH  15  16
ENDBRANCH   1  15
BRANCH   2  24
HETATM   24  C   UNK N   1      27.343  24.701  -5.886  0.00  0.00    -0.008 A 
HETATM   25  C   UNK N   1      26.106  24.730  -5.210  0.00  0.00     0.014 A 
HETATM   26  C   UNK N   1      25.220  25.802  -5.336  0.00  0.00     0.001 A 
HETATM   27  C   UNK N   1      25.546  26.882  -6.152  0.00  0.00     0.000 A 
HETATM   28  C   UNK N   1      26.760  26.888  -6.834  0.00  0.00     0.001 A 
HETATM   29  C   UNK N   1      27.639  25.811  -6.701  0.00  0.00     0.014 A 
ENDBRANCH   2  24
BRANCH  12  30
HETATM   30  N   UNK N   1      32.863  21.091  -2.504  0.00  0.00    -0.399 N 
HETATM   31  H   UNK N   1      33.547  20.383  -2.474  0.00  0.00     0.156 HD
HETATM   32  H   UNK N   1      32.831  21.763  -1.785  0.00  0.00     0.156 HD
ENDBRANCH  12  30
BRANCH   7  33
HETATM   33  N   UNK N   1      26.312  21.459  -9.807  0.00  0.00    -0.399 N 
HETATM   34  H   UNK N   1      25.656  20.731  -9.896  0.00  0.00     0.156 HD
HETATM   35  H   UNK N   1      26.293  22.214 -10.438  0.00  0.00     0.156 HD
ENDBRANCH   7  33
TORSDOF 9
ENDMDL
MODEL 2
REMARK VINA RESULT:      -6.6     21.078     25.010
REMARK  9 active torsions:
REMARK  status: ('A' for Active; 'I' for Inactive)
REMARK    1  A    between atoms: C_2  and  N_3 
REMARK    2  A    between atoms: N_3  and  C_5 
REMARK    3  A    between atoms: N_3  and  C_7 
REMARK    4  A    between atoms: C_7  and  C_8 
REMARK    5  A    between atoms: C_8  and  C_9 
REMARK    6  A    between atoms: C_9  and  N_10 
REMARK    7  A    between atoms: C_11  and  C_12 
REMARK    8  A    between atoms: C_22  and  N_23 
REMARK    9  A    between atoms: C_28  and  N_29 
ROOT
HETATM    1  N   UNK N   1      35.183  11.795  15.214  0.00  0.00    -0.345 N 
HETATM    2  C   UNK N   1      35.323  10.488  14.745  0.00  0.00     0.056 A 
HETATM    3  C   UNK N   1      35.470   9.436  15.714  0.00  0.00     0.005 A 
HETATM    4  C   UNK N   1      35.515   9.743  17.095  0.00  0.00    -0.011 A 
HETATM    5  C   UNK N   1      35.651   8.709  18.042  0.00  0.00     0.015 A 
HETATM    6  C   UNK N   1      35.721   7.378  17.640  0.00  0.00     0.030 A 
HETATM    7  C   UNK N   1      35.665   7.064  16.287  0.00  0.00     0.026 A 
HETATM    8  C   UNK N   1      35.547   8.080  15.342  0.00  0.00     0.043 A 
HETATM    9  C   UNK N   1      35.418  11.069  17.517  0.00  0.00     0.002 A 
HETATM   10  C   UNK N   1      35.237  12.088  16.560  0.00  0.00     0.048 A 
HETATM   11  C   UNK N   1      35.118  13.422  17.015  0.00  0.00     0.059 A 
HETATM   12  C   UNK N   1      35.190  13.732  18.373  0.00  0.00     0.027 A 
HETATM   13  C   UNK N   1      35.373  12.720  19.308  0.00  0.00     0.030 A 
HETATM   14  C   UNK N   1      35.480  11.395  18.885  0.00  0.00     0.017 A 
ENDROOT
BRANCH   1  15
HETATM   15  C   UNK N   1      34.947  12.917  14.299  0.00  0.00     0.131 C 
BRANCH  15  16
HETATM   16  C   UNK N   1      36.239  13.427  13.700  0.00  0.00     0.048 C 
BRANCH  16  17
HETATM   17  C   UNK N   1      35.865  14.443  12.631  0.00  0.00     0.238 C 
BRANCH  17  18
HETATM   18  N   UNK N   1      36.229  14.045  11.267  0.00  0.00    -0.071 N 
HETATM   19  C   UNK N   1      35.114  13.321  10.655  0.00  0.00     0.272 C 
BRANCH  18  20
HETATM   20  C   UNK N   1      36.421  15.309  10.548  0.00  0.00     0.232 C 
HETATM   21  C   UNK N   1      35.430  16.401  10.951  0.00  0.00     0.035 C 
ENDBRANCH  18  20
BRANCH  18  22
HETATM   22  C   UNK N   1      37.496  13.286  11.224  0.00  0.00     0.232 C 
HETATM   23  C   UNK N   1      37.890  12.789   9.832  0.00  0.00     0.035 C 
ENDBRANCH  18  22
ENDBRANCH  17  18
ENDBRANCH  16  17
ENDBRANCH  15  16
ENDBRANCH   1  15
BRANCH   2  24
HETATM   24  C   UNK N   1      35.335  10.175  13.236  0.00  0.00    -0.008 A 
HETATM   25  C   UNK N   1      34.136  10.018  12.511  0.00  0.00     0.014 A 
HETATM   26  C   UNK N   1      34.131   9.679  11.156  0.00  0.00     0.001 A 
HETATM   27  C   UNK N   1      35.334   9.483  10.483  0.00  0.00     0.000 A 
HETATM   28  C   UNK N   1      36.537   9.631  11.167  0.00  0.00     0.001 A 
HETATM   29  C   UNK N   1      36.532   9.969  12.522  0.00  0.00     0.014 A 
ENDBRANCH   2  24
BRANCH  12  30
HETATM   30  N   UNK N   1      35.083  15.071  18.796  0.00  0.00    -0.399 N 
HETATM   31  H   UNK N   1      35.342  15.334  19.708  0.00  0.00     0.156 HD
HETATM   32  H   UNK N   1      34.744  15.753  18.171  0.00  0.00     0.156 HD
ENDBRANCH  12  30
BRANCH   7  33
HETATM   33  N   UNK N   1      35.714   5.719  15.873  0.00  0.00    -0.399 N 
HETATM   34  H   UNK N   1      35.981   5.011  16.504  0.00  0.00     0.156 HD
HETATM   35  H   UNK N   1      35.480   5.485  14.947  0.00  0.00     0.156 HD
ENDBRANCH   7  33
TORSDOF 9
ENDMDL
MODEL 3
REMARK VINA RESULT:      -6.4      2.570      6.741
REMARK  9 active torsions:
REMARK  status: ('A' for Active; 'I' for Inactive)
REMARK    1  A    between atoms: C_2  and  N_3 
REMARK    2  A    between atoms: N_3  and  C_5 
REMARK    3  A    between atoms: N_3  and  C_7 
REMARK    4  A    between atoms: C_7  and  C_8 
REMARK    5  A    between atoms: C_8  and  C_9 
REMARK    6  A    between atoms: C_9  and  N_10 
REMARK    7  A    between atoms: C_11  and  C_12 
REMARK    8  A    between atoms: C_22  and  N_23 
REMARK    9  A    between atoms: C_28  and  N_29 
ROOT
HETATM    1  N   UNK N   1      28.121  22.479  -6.657  0.00  0.00    -0.345 N 
HETATM    2  C   UNK N   1      29.271  21.746  -6.356  0.00  0.00     0.056 A 
HETATM    3  C   UNK N   1      29.920  21.997  -5.098  0.00  0.00     0.005 A 
HETATM    4  C   UNK N   1      29.420  22.992  -4.226  0.00  0.00    -0.011 A 
HETATM    5  C   UNK N   1      30.054  23.229  -2.990  0.00  0.00     0.015 A 
HETATM    6  C   UNK N   1      31.160  22.479  -2.601  0.00  0.00     0.030 A 
HETATM    7  C   UNK N   1      31.653  21.491  -3.444  0.00  0.00     0.026 A 
HETATM    8  C   UNK N   1      31.044  21.260  -4.675  0.00  0.00     0.043 A 
HETATM    9  C   UNK N   1      28.294  23.733  -4.587  0.00  0.00     0.002 A 
HETATM   10  C   UNK N   1      27.645  23.454  -5.806  0.00  0.00     0.048 A 
HETATM   11  C   UNK N   1      26.493  24.203  -6.140  0.00  0.00     0.059 A 
HETATM   12  C   UNK N   1      26.011  25.204  -5.295  0.00  0.00     0.027 A 
HETATM   13  C   UNK N   1      26.663  25.474  -4.097  0.00  0.00     0.030 A 
HETATM   14  C   UNK N   1      27.794  24.740  -3.740  0.00  0.00     0.017 A 
ENDROOT
BRANCH   1  15
HETATM   15  C   UNK N   1      27.352  22.230  -7.880  0.00  0.00     0.131 C 
BRANCH  15  16
HETATM   16  C   UNK N   1      27.892  23.026  -9.048  0.00  0.00     0.048 C 
BRANCH  16  17
HETATM   17  C   UNK N   1      26.711  23.748  -9.680  0.00  0.00     0.238 C 
BRANCH  17  18
HETATM   18  N   UNK N   1      26.941  25.174  -9.935  0.00  0.00    -0.071 N 
HETATM   19  C   UNK N   1      27.151  25.387 -11.368  0.00  0.00     0.272 C 
BRANCH  18  20
HETATM   20  C   UNK N   1      25.693  25.832  -9.538  0.00  0.00     0.232 C 
HETATM   21  C   UNK N   1      24.778  26.174 -10.714  0.00  0.00     0.035 C 
ENDBRANCH  18  20
BRANCH  18  22
HETATM   22  C   UNK N   1      28.040  25.720  -9.110  0.00  0.00     0.232 C 
HETATM   23  C   UNK N   1      27.659  26.948  -8.280  0.00  0.00     0.035 C 
ENDBRANCH  18  22
ENDBRANCH  17  18
ENDBRANCH  16  17
ENDBRANCH  15  16
ENDBRANCH   1  15
BRANCH   2  24
HETATM   24  C   UNK N   1      29.842  20.710  -7.343  0.00  0.00    -0.008 A 
HETATM   25  C   UNK N   1      30.877  21.045  -8.241  0.00  0.00     0.014 A 
HETATM   26  C   UNK N   1      31.367  20.133  -9.178  0.00  0.00     0.001 A 
HETATM   27  C   UNK N   1      30.829  18.850  -9.248  0.00  0.00     0.000 A 
HETATM   28  C   UNK N   1      29.807  18.484  -8.377  0.00  0.00     0.001 A 
HETATM   29  C   UNK N   1      29.323  19.404  -7.444  0.00  0.00     0.014 A 
ENDBRANCH   2  24
BRANCH  12  30
HETATM   30  N   UNK N   1      24.870  25.943  -5.660  0.00  0.00    -0.399 N 
HETATM   31  H   UNK N   1      24.050  25.906  -5.117  0.00  0.00     0.156 HD
HETATM   32  H   UNK N   1      24.892  26.505  -6.468  0.00  0.00     0.156 HD
ENDBRANCH  12  30
BRANCH   7  33
HETATM   33  N   UNK N   1      32.760  20.715  -3.049  0.00  0.00    -0.399 N 
HETATM   34  H   UNK N   1      33.544  20.627  -3.638  0.00  0.00     0.156 HD
HETATM   35  H   UNK N   1      32.750  20.258  -2.178  0.00  0.00     0.156 HD
ENDBRANCH   7  33
TORSDOF 9
ENDMDL
MODEL 4
REMARK VINA RESULT:      -6.4     11.918     14.030
REMARK  9 active torsions:
REMARK  status: ('A' for Active; 'I' for Inactive)
REMARK    1  A    between atoms: C_2  and  N_3 
REMARK    2  A    between atoms: N_3  and  C_5 
REMARK    3  A    between atoms: N_3  and  C_7 
REMARK    4  A    between atoms: C_7  and  C_8 
REMARK    5  A    between atoms: C_8  and  C_9 
REMARK    6  A    between atoms: C_9  and  N_10 
REMARK    7  A    between atoms: C_11  and  C_12 
REMARK    8  A    between atoms: C_22  and  N_23 
REMARK    9  A    between atoms: C_28  and  N_29 
ROOT
HETATM    1  N   UNK N   1      24.202  17.340   4.913  0.00  0.00    -0.345 N 
HETATM    2  C   UNK N   1      22.825  17.194   4.736  0.00  0.00     0.056 A 
HETATM    3  C   UNK N   1      22.143  18.164   3.923  0.00  0.00     0.005 A 
HETATM    4  C   UNK N   1      22.857  19.253   3.368  0.00  0.00    -0.011 A 
HETATM    5  C   UNK N   1      22.186  20.197   2.565  0.00  0.00     0.015 A 
HETATM    6  C   UNK N   1      20.828  20.065   2.290  0.00  0.00     0.030 A 
HETATM    7  C   UNK N   1      20.120  18.993   2.820  0.00  0.00     0.026 A 
HETATM    8  C   UNK N   1      20.770  18.063   3.628  0.00  0.00     0.043 A 
HETATM    9  C   UNK N   1      24.224  19.386   3.609  0.00  0.00     0.002 A 
HETATM   10  C   UNK N   1      24.888  18.409   4.376  0.00  0.00     0.048 A 
HETATM   11  C   UNK N   1      26.279  18.553   4.588  0.00  0.00     0.059 A 
HETATM   12  C   UNK N   1      26.982  19.639   4.065  0.00  0.00     0.027 A 
HETATM   13  C   UNK N   1      26.315  20.600   3.312  0.00  0.00     0.030 A 
HETATM   14  C   UNK N   1      24.946  20.473   3.080  0.00  0.00     0.017 A 
ENDROOT
BRANCH   1  15
HETATM   15  C   UNK N   1      24.988  16.352   5.659  0.00  0.00     0.131 C 
BRANCH  15  16
HETATM   16  C   UNK N   1      25.540  15.277   4.747  0.00  0.00     0.048 C 
BRANCH  16  17
HETATM   17  C   UNK N   1      26.866  14.827   5.339  0.00  0.00     0.238 C 
BRANCH  17  18
HETATM   18  N   UNK N   1      27.998  14.895   4.408  0.00  0.00    -0.071 N 
HETATM   19  C   UNK N   1      28.632  13.580   4.312  0.00  0.00     0.272 C 
BRANCH  18  20
HETATM   20  C   UNK N   1      27.396  15.225   3.112  0.00  0.00     0.232 C 
HETATM   21  C   UNK N   1      28.190  14.700   1.915  0.00  0.00     0.035 C 
ENDBRANCH  18  20
BRANCH  18  22
HETATM   22  C   UNK N   1      28.953  15.965   4.765  0.00  0.00     0.232 C 
HETATM   23  C   UNK N   1      28.879  16.418   6.225  0.00  0.00     0.035 C 
ENDBRANCH  18  22
ENDBRANCH  17  18
ENDBRANCH  16  17
ENDBRANCH  15  16
ENDBRANCH   1  15
BRANCH   2  24
HETATM   24  C   UNK N   1      22.049  16.039   5.399  0.00  0.00    -0.008 A 
HETATM   25  C   UNK N   1      21.809  14.830   4.714  0.00  0.00     0.014 A 
HETATM   26  C   UNK N   1      21.061  13.796   5.281  0.00  0.00     0.001 A 
HETATM   27  C   UNK N   1      20.524  13.944   6.558  0.00  0.00     0.000 A 
HETATM   28  C   UNK N   1      20.742  15.124   7.263  0.00  0.00     0.001 A 
HETATM   29  C   UNK N   1      21.491  16.153   6.687  0.00  0.00     0.014 A 
ENDBRANCH   2  24
BRANCH  12  30
HETATM   30  N   UNK N   1      28.363  19.764   4.303  0.00  0.00    -0.399 N 
HETATM   31  H   UNK N   1      28.751  19.512   5.173  0.00  0.00     0.156 HD
HETATM   32  H   UNK N   1      28.951  20.109   3.592  0.00  0.00     0.156 HD
ENDBRANCH  12  30
BRANCH   7  33
HETATM   33  N   UNK N   1      18.751  18.841   2.531  0.00  0.00    -0.399 N 
HETATM   34  H   UNK N   1      18.345  17.944   2.495  0.00  0.00     0.156 HD
HETATM   35  H   UNK N   1      18.195  19.636   2.366  0.00  0.00     0.156 HD
ENDBRANCH   7  33
TORSDOF 9
ENDMDL
MODEL 5
REMARK VINA RESULT:      -6.3     12.641     14.856
REMARK  9 active torsions:
REMARK  status: ('A' for Active; 'I' for Inactive)
REMARK    1  A    between atoms: C_2  and  N_3 
REMARK    2  A    between atoms: N_3  and  C_5 
REMARK    3  A    between atoms: N_3  and  C_7 
REMARK    4  A    between atoms: C_7  and  C_8 
REMARK    5  A    between atoms: C_8  and  C_9 
REMARK    6  A    between atoms: C_9  and  N_10 
REMARK    7  A    between atoms: C_11  and  C_12 
REMARK    8  A    between atoms: C_22  and  N_23 
REMARK    9  A    between atoms: C_28  and  N_29 
ROOT
HETATM    1  N   UNK N   1      24.328  17.361   4.928  0.00  0.00    -0.345 N 
HETATM    2  C   UNK N   1      22.950  17.204   4.770  0.00  0.00     0.056 A 
HETATM    3  C   UNK N   1      22.251  18.165   3.960  0.00  0.00     0.005 A 
HETATM    4  C   UNK N   1      22.950  19.255   3.388  0.00  0.00    -0.011 A 
HETATM    5  C   UNK N   1      22.263  20.189   2.588  0.00  0.00     0.015 A 
HETATM    6  C   UNK N   1      20.903  20.046   2.332  0.00  0.00     0.030 A 
HETATM    7  C   UNK N   1      20.209  18.974   2.878  0.00  0.00     0.026 A 
HETATM    8  C   UNK N   1      20.874  18.053   3.684  0.00  0.00     0.043 A 
HETATM    9  C   UNK N   1      24.319  19.398   3.610  0.00  0.00     0.002 A 
HETATM   10  C   UNK N   1      25.000  18.430   4.375  0.00  0.00     0.048 A 
HETATM   11  C   UNK N   1      26.393  18.584   4.568  0.00  0.00     0.059 A 
HETATM   12  C   UNK N   1      27.081  19.671   4.028  0.00  0.00     0.027 A 
HETATM   13  C   UNK N   1      26.399  20.623   3.279  0.00  0.00     0.030 A 
HETATM   14  C   UNK N   1      25.027  20.486   3.065  0.00  0.00     0.017 A 
ENDROOT
BRANCH   1  15
HETATM   15  C   UNK N   1      25.130  16.382   5.669  0.00  0.00     0.131 C 
BRANCH  15  16
HETATM   16  C   UNK N   1      25.604  15.258   4.775  0.00  0.00     0.048 C 
BRANCH  16  17
HETATM   17  C   UNK N   1      25.830  14.045   5.664  0.00  0.00     0.238 C 
BRANCH  17  18
HETATM   18  N   UNK N   1      25.460  12.766   5.047  0.00  0.00    -0.071 N 
HETATM   19  C   UNK N   1      26.644  11.912   4.945  0.00  0.00     0.272 C 
BRANCH  18  20
HETATM   20  C   UNK N   1      24.517  12.156   5.989  0.00  0.00     0.232 C 
HETATM   21  C   UNK N   1      24.314  12.969   7.268  0.00  0.00     0.035 C 
ENDBRANCH  18  20
BRANCH  18  22
HETATM   22  C   UNK N   1      24.774  12.948   3.751  0.00  0.00     0.232 C 
HETATM   23  C   UNK N   1      23.763  11.851   3.411  0.00  0.00     0.035 C 
ENDBRANCH  18  22
ENDBRANCH  17  18
ENDBRANCH  16  17
ENDBRANCH  15  16
ENDBRANCH   1  15
BRANCH   2  24
HETATM   24  C   UNK N   1      22.190  16.049   5.450  0.00  0.00    -0.008 A 
HETATM   25  C   UNK N   1      21.893  14.858   4.756  0.00  0.00     0.014 A 
HETATM   26  C   UNK N   1      21.157  13.825   5.341  0.00  0.00     0.001 A 
HETATM   27  C   UNK N   1      20.692  13.956   6.647  0.00  0.00     0.000 A 
HETATM   28  C   UNK N   1      20.968  15.117   7.364  0.00  0.00     0.001 A 
HETATM   29  C   UNK N   1      21.704  16.145   6.769  0.00  0.00     0.014 A 
ENDBRANCH   2  24
BRANCH  12  30
HETATM   30  N   UNK N   1      28.465  19.808   4.248  0.00  0.00    -0.399 N 
HETATM   31  H   UNK N   1      28.868  20.693   4.399  0.00  0.00     0.156 HD
HETATM   32  H   UNK N   1      29.039  19.007   4.252  0.00  0.00     0.156 HD
ENDBRANCH  12  30
BRANCH   7  33
HETATM   33  N   UNK N   1      18.837  18.810   2.608  0.00  0.00    -0.399 N 
HETATM   34  H   UNK N   1      18.451  17.910   2.504  0.00  0.00     0.156 HD
HETATM   35  H   UNK N   1      18.258  19.602   2.523  0.00  0.00     0.156 HD
ENDBRANCH   7  33
TORSDOF 9
ENDMDL
MODEL 6
REMARK VINA RESULT:      -6.3     12.884     15.501
REMARK  9 active torsions:
REMARK  status: ('A' for Active; 'I' for Inactive)
REMARK    1  A    between atoms: C_2  and  N_3 
REMARK    2  A    between atoms: N_3  and  C_5 
REMARK    3  A    between atoms: N_3  and  C_7 
REMARK    4  A    between atoms: C_7  and  C_8 
REMARK    5  A    between atoms: C_8  and  C_9 
REMARK    6  A    between atoms: C_9  and  N_10 
REMARK    7  A    between atoms: C_11  and  C_12 
REMARK    8  A    between atoms: C_22  and  N_23 
REMARK    9  A    between atoms: C_28  and  N_29 
ROOT
HETATM    1  N   UNK N   1      22.964  16.861   3.884  0.00  0.00    -0.345 N 
HETATM    2  C   UNK N   1      24.342  16.939   4.090  0.00  0.00     0.056 A 
HETATM    3  C   UNK N   1      24.981  18.213   3.898  0.00  0.00     0.005 A 
HETATM    4  C   UNK N   1      24.225  19.329   3.467  0.00  0.00    -0.011 A 
HETATM    5  C   UNK N   1      24.853  20.577   3.287  0.00  0.00     0.015 A 
HETATM    6  C   UNK N   1      26.211  20.737   3.549  0.00  0.00     0.030 A 
HETATM    7  C   UNK N   1      26.960  19.651   3.984  0.00  0.00     0.026 A 
HETATM    8  C   UNK N   1      26.353  18.409   4.149  0.00  0.00     0.043 A 
HETATM    9  C   UNK N   1      22.858  19.194   3.228  0.00  0.00     0.002 A 
HETATM   10  C   UNK N   1      22.236  17.950   3.455  0.00  0.00     0.048 A 
HETATM   11  C   UNK N   1      20.844  17.844   3.227  0.00  0.00     0.059 A 
HETATM   12  C   UNK N   1      20.099  18.934   2.777  0.00  0.00     0.027 A 
HETATM   13  C   UNK N   1      20.724  20.156   2.551  0.00  0.00     0.030 A 
HETATM   14  C   UNK N   1      22.093  20.289   2.780  0.00  0.00     0.017 A 
ENDROOT
BRANCH   1  15
HETATM   15  C   UNK N   1      22.221  15.622   4.136  0.00  0.00     0.131 C 
BRANCH  15  16
HETATM   16  C   UNK N   1      21.945  15.429   5.611  0.00  0.00     0.048 C 
BRANCH  16  17
HETATM   17  C   UNK N   1      21.668  13.948   5.823  0.00  0.00     0.238 C 
BRANCH  17  18
HETATM   18  N   UNK N   1      21.594  13.543   7.231  0.00  0.00    -0.071 N 
HETATM   19  C   UNK N   1      21.370  12.100   7.314  0.00  0.00     0.272 C 
BRANCH  18  20
HETATM   20  C   UNK N   1      22.920  13.848   7.779  0.00  0.00     0.232 C 
HETATM   21  C   UNK N   1      23.751  12.605   8.100  0.00  0.00     0.035 C 
ENDBRANCH  18  20
BRANCH  18  22
HETATM   22  C   UNK N   1      20.587  14.321   7.984  0.00  0.00     0.232 C 
HETATM   23  C   UNK N   1      20.973  14.618   9.435  0.00  0.00     0.035 C 
ENDBRANCH  18  22
ENDBRANCH  17  18
ENDBRANCH  16  17
ENDBRANCH  15  16
ENDBRANCH   1  15
BRANCH   2  24
HETATM   24  C   UNK N   1      25.164  15.701   4.498  0.00  0.00    -0.008 A 
HETATM   25  C   UNK N   1      25.490  14.698   3.563  0.00  0.00     0.014 A 
HETATM   26  C   UNK N   1      26.187  13.544   3.929  0.00  0.00     0.001 A 
HETATM   27  C   UNK N   1      26.576  13.357   5.253  0.00  0.00     0.000 A 
HETATM   28  C   UNK N   1      26.273  14.328   6.203  0.00  0.00     0.001 A 
HETATM   29  C   UNK N   1      25.575  15.478   5.827  0.00  0.00     0.014 A 
ENDBRANCH   2  24
BRANCH  12  30
HETATM   30  N   UNK N   1      18.718  18.796   2.545  0.00  0.00    -0.399 N 
HETATM   31  H   UNK N   1      18.381  18.181   1.854  0.00  0.00     0.156 HD
HETATM   32  H   UNK N   1      18.079  19.321   3.080  0.00  0.00     0.156 HD
ENDBRANCH  12  30
BRANCH   7  33
HETATM   33  N   UNK N   1      28.330  19.809   4.270  0.00  0.00    -0.399 N 
HETATM   34  H   UNK N   1      28.958  19.063   4.134  0.00  0.00     0.156 HD
HETATM   35  H   UNK N   1      28.662  20.672   4.607  0.00  0.00     0.156 HD
ENDBRANCH   7  33
TORSDOF 9
ENDMDL
MODEL 7
REMARK VINA RESULT:      -6.2     13.469     15.328
REMARK  9 active torsions:
REMARK  status: ('A' for Active; 'I' for Inactive)
REMARK    1  A    between atoms: C_2  and  N_3 
REMARK    2  A    between atoms: N_3  and  C_5 
REMARK    3  A    between atoms: N_3  and  C_7 
REMARK    4  A    between atoms: C_7  and  C_8 
REMARK    5  A    between atoms: C_8  and  C_9 
REMARK    6  A    between atoms: C_9  and  N_10 
REMARK    7  A    between atoms: C_11  and  C_12 
REMARK    8  A    between atoms: C_22  and  N_23 
REMARK    9  A    between atoms: C_28  and  N_29 
ROOT
HETATM    1  N   UNK N   1      23.953  16.361   4.815  0.00  0.00    -0.345 N 
HETATM    2  C   UNK N   1      22.810  17.064   4.431  0.00  0.00     0.056 A 
HETATM    3  C   UNK N   1      22.983  18.380   3.878  0.00  0.00     0.005 A 
HETATM    4  C   UNK N   1      24.276  18.945   3.778  0.00  0.00    -0.011 A 
HETATM    5  C   UNK N   1      24.442  20.232   3.229  0.00  0.00     0.015 A 
HETATM    6  C   UNK N   1      23.348  20.954   2.759  0.00  0.00     0.030 A 
HETATM    7  C   UNK N   1      22.075  20.404   2.841  0.00  0.00     0.026 A 
HETATM    8  C   UNK N   1      21.898  19.140   3.398  0.00  0.00     0.043 A 
HETATM    9  C   UNK N   1      25.387  18.224   4.217  0.00  0.00     0.002 A 
HETATM   10  C   UNK N   1      25.209  16.921   4.723  0.00  0.00     0.048 A 
HETATM   11  C   UNK N   1      26.353  16.201   5.140  0.00  0.00     0.059 A 
HETATM   12  C   UNK N   1      27.628  16.764   5.069  0.00  0.00     0.027 A 
HETATM   13  C   UNK N   1      27.791  18.053   4.572  0.00  0.00     0.030 A 
HETATM   14  C   UNK N   1      26.679  18.778   4.143  0.00  0.00     0.017 A 
ENDROOT
BRANCH   1  15
HETATM   15  C   UNK N   1      23.874  14.983   5.311  0.00  0.00     0.131 C 
BRANCH  15  16
HETATM   16  C   UNK N   1      23.678  14.943   6.811  0.00  0.00     0.048 C 
BRANCH  16  17
HETATM   17  C   UNK N   1      23.487  13.484   7.197  0.00  0.00     0.238 C 
BRANCH  17  18
HETATM   18  N   UNK N   1      22.475  13.261   8.235  0.00  0.00    -0.071 N 
HETATM   19  C   UNK N   1      23.132  12.871   9.483  0.00  0.00     0.272 C 
BRANCH  18  20
HETATM   20  C   UNK N   1      21.839  14.569   8.425  0.00  0.00     0.232 C 
HETATM   21  C   UNK N   1      20.627  14.532   9.356  0.00  0.00     0.035 C 
ENDBRANCH  18  20
BRANCH  18  22
HETATM   22  C   UNK N   1      21.440  12.296   7.809  0.00  0.00     0.232 C 
HETATM   23  C   UNK N   1      20.985  12.456   6.357  0.00  0.00     0.035 C 
ENDBRANCH  18  22
ENDBRANCH  17  18
ENDBRANCH  16  17
ENDBRANCH  15  16
ENDBRANCH   1  15
BRANCH   2  24
HETATM   24  C   UNK N   1      21.402  16.463   4.604  0.00  0.00    -0.008 A 
HETATM   25  C   UNK N   1      20.655  16.672   5.781  0.00  0.00     0.014 A 
HETATM   26  C   UNK N   1      19.401  16.089   5.975  0.00  0.00     0.001 A 
HETATM   27  C   UNK N   1      18.856  15.268   4.991  0.00  0.00     0.000 A 
HETATM   28  C   UNK N   1      19.564  15.040   3.815  0.00  0.00     0.001 A 
HETATM   29  C   UNK N   1      20.818  15.628   3.631  0.00  0.00     0.014 A 
ENDBRANCH   2  24
BRANCH  12  30
HETATM   30  N   UNK N   1      28.747  16.030   5.505  0.00  0.00    -0.399 N 
HETATM   31  H   UNK N   1      29.504  15.857   4.900  0.00  0.00     0.156 HD
HETATM   32  H   UNK N   1      28.774  15.685   6.427  0.00  0.00     0.156 HD
ENDBRANCH  12  30
BRANCH   7  33
HETATM   33  N   UNK N   1      20.965  21.119   2.351  0.00  0.00    -0.399 N 
HETATM   34  H   UNK N   1      21.065  21.737   1.591  0.00  0.00     0.156 HD
HETATM   35  H   UNK N   1      20.083  20.999   2.770  0.00  0.00     0.156 HD
ENDBRANCH   7  33
TORSDOF 9
ENDMDL
MODEL 8
REMARK VINA RESULT:      -6.2     13.260     17.699
REMARK  9 active torsions:
REMARK  status: ('A' for Active; 'I' for Inactive)
REMARK    1  A    between atoms: C_2  and  N_3 
REMARK    2  A    between atoms: N_3  and  C_5 
REMARK    3  A    between atoms: N_3  and  C_7 
REMARK    4  A    between atoms: C_7  and  C_8 
REMARK    5  A    between atoms: C_8  and  C_9 
REMARK    6  A    between atoms: C_9  and  N_10 
REMARK    7  A    between atoms: C_11  and  C_12 
REMARK    8  A    between atoms: C_22  and  N_23 
REMARK    9  A    between atoms: C_28  and  N_29 
ROOT
HETATM    1  N   UNK N   1      33.967  15.619   6.749  0.00  0.00    -0.345 N 
HETATM    2  C   UNK N   1      33.352  16.019   7.936  0.00  0.00     0.056 A 
HETATM    3  C   UNK N   1      32.043  16.608   7.852  0.00  0.00     0.005 A 
HETATM    4  C   UNK N   1      31.434  16.809   6.590  0.00  0.00    -0.011 A 
HETATM    5  C   UNK N   1      30.148  17.379   6.513  0.00  0.00     0.015 A 
HETATM    6  C   UNK N   1      29.452  17.730   7.666  0.00  0.00     0.030 A 
HETATM    7  C   UNK N   1      30.035  17.526   8.910  0.00  0.00     0.026 A 
HETATM    8  C   UNK N   1      31.313  16.978   8.998  0.00  0.00     0.043 A 
HETATM    9  C   UNK N   1      32.105  16.437   5.426  0.00  0.00     0.002 A 
HETATM   10  C   UNK N   1      33.372  15.827   5.523  0.00  0.00     0.048 A 
HETATM   11  C   UNK N   1      34.023  15.437   4.329  0.00  0.00     0.059 A 
HETATM   12  C   UNK N   1      33.438  15.658   3.081  0.00  0.00     0.027 A 
HETATM   13  C   UNK N   1      32.190  16.265   2.997  0.00  0.00     0.030 A 
HETATM   14  C   UNK N   1      31.523  16.647   4.161  0.00  0.00     0.017 A 
ENDROOT
BRANCH   1  15
HETATM   15  C   UNK N   1      35.265  14.937   6.750  0.00  0.00     0.131 C 
BRANCH  15  16
HETATM   16  C   UNK N   1      35.122  13.469   7.087  0.00  0.00     0.048 C 
BRANCH  16  17
HETATM   17  C   UNK N   1      36.499  12.968   7.496  0.00  0.00     0.238 C 
BRANCH  17  18
HETATM   18  N   UNK N   1      36.484  11.971   8.572  0.00  0.00    -0.071 N 
HETATM   19  C   UNK N   1      35.119  11.480   8.764  0.00  0.00     0.272 C 
BRANCH  18  20
HETATM   20  C   UNK N   1      37.316  10.871   8.074  0.00  0.00     0.232 C 
HETATM   21  C   UNK N   1      38.077  11.209   6.792  0.00  0.00     0.035 C 
ENDBRANCH  18  20
BRANCH  18  22
HETATM   22  C   UNK N   1      37.087  12.485   9.820  0.00  0.00     0.232 C 
HETATM   23  C   UNK N   1      37.958  13.729   9.636  0.00  0.00     0.035 C 
ENDBRANCH  18  22
ENDBRANCH  17  18
ENDBRANCH  16  17
ENDBRANCH  15  16
ENDBRANCH   1  15
BRANCH   2  24
HETATM   24  C   UNK N   1      34.053  15.851   9.298  0.00  0.00    -0.008 A 
HETATM   25  C   UNK N   1      35.005  16.787   9.752  0.00  0.00     0.014 A 
HETATM   26  C   UNK N   1      35.688  16.620  10.959  0.00  0.00     0.001 A 
HETATM   27  C   UNK N   1      35.440  15.502  11.750  0.00  0.00     0.000 A 
HETATM   28  C   UNK N   1      34.505  14.558  11.334  0.00  0.00     0.001 A 
HETATM   29  C   UNK N   1      33.828  14.733  10.126  0.00  0.00     0.014 A 
ENDBRANCH   2  24
BRANCH  12  30
HETATM   30  N   UNK N   1      34.115  15.273   1.909  0.00  0.00    -0.399 N 
HETATM   31  H   UNK N   1      34.062  15.821   1.092  0.00  0.00     0.156 HD
HETATM   32  H   UNK N   1      34.649  14.446   1.904  0.00  0.00     0.156 HD
ENDBRANCH  12  30
BRANCH   7  33
HETATM   33  N   UNK N   1      29.330  17.859  10.082  0.00  0.00    -0.399 N 
HETATM   34  H   UNK N   1      29.768  17.802  10.962  0.00  0.00     0.156 HD
HETATM   35  H   UNK N   1      28.393  18.154  10.021  0.00  0.00     0.156 HD
ENDBRANCH   7  33
TORSDOF 9
ENDMDL
MODEL 9
REMARK VINA RESULT:      -6.1     12.037     14.948
REMARK  9 active torsions:
REMARK  status: ('A' for Active; 'I' for Inactive)
REMARK    1  A    between atoms: C_2  and  N_3 
REMARK    2  A    between atoms: N_3  and  C_5 
REMARK    3  A    between atoms: N_3  and  C_7 
REMARK    4  A    between atoms: C_7  and  C_8 
REMARK    5  A    between atoms: C_8  and  C_9 
REMARK    6  A    between atoms: C_9  and  N_10 
REMARK    7  A    between atoms: C_11  and  C_12 
REMARK    8  A    between atoms: C_22  and  N_23 
REMARK    9  A    between atoms: C_28  and  N_29 
ROOT
HETATM    1  N   UNK N   1      22.746  16.866   3.850  0.00  0.00    -0.345 N 
HETATM    2  C   UNK N   1      24.123  16.877   4.082  0.00  0.00     0.056 A 
HETATM    3  C   UNK N   1      24.825  18.120   3.913  0.00  0.00     0.005 A 
HETATM    4  C   UNK N   1      24.131  19.275   3.480  0.00  0.00    -0.011 A 
HETATM    5  C   UNK N   1      24.821  20.493   3.325  0.00  0.00     0.015 A 
HETATM    6  C   UNK N   1      26.180  20.586   3.612  0.00  0.00     0.030 A 
HETATM    7  C   UNK N   1      26.869  19.461   4.049  0.00  0.00     0.026 A 
HETATM    8  C   UNK N   1      26.200  18.248   4.191  0.00  0.00     0.043 A 
HETATM    9  C   UNK N   1      22.763  19.207   3.216  0.00  0.00     0.002 A 
HETATM   10  C   UNK N   1      22.079  17.993   3.419  0.00  0.00     0.048 A 
HETATM   11  C   UNK N   1      20.688  17.955   3.166  0.00  0.00     0.059 A 
HETATM   12  C   UNK N   1      20.004  19.085   2.714  0.00  0.00     0.027 A 
HETATM   13  C   UNK N   1      20.691  20.277   2.512  0.00  0.00     0.030 A 
HETATM   14  C   UNK N   1      22.060  20.342   2.766  0.00  0.00     0.017 A 
ENDROOT
BRANCH   1  15
HETATM   15  C   UNK N   1      21.941  15.662   4.076  0.00  0.00     0.131 C 
BRANCH  15  16
HETATM   16  C   UNK N   1      21.706  14.900   2.791  0.00  0.00     0.048 C 
BRANCH  16  17
HETATM   17  C   UNK N   1      21.808  13.419   3.124  0.00  0.00     0.238 C 
BRANCH  17  18
HETATM   18  N   UNK N   1      22.248  12.577   2.006  0.00  0.00    -0.071 N 
HETATM   19  C   UNK N   1      21.093  11.889   1.429  0.00  0.00     0.272 C 
BRANCH  18  20
HETATM   20  C   UNK N   1      22.781  13.518   1.016  0.00  0.00     0.232 C 
HETATM   21  C   UNK N   1      23.612  12.850  -0.081  0.00  0.00     0.035 C 
ENDBRANCH  18  20
BRANCH  18  22
HETATM   22  C   UNK N   1      23.330  11.648   2.397  0.00  0.00     0.232 C 
HETATM   23  C   UNK N   1      23.411  11.368   3.899  0.00  0.00     0.035 C 
ENDBRANCH  18  22
ENDBRANCH  17  18
ENDBRANCH  16  17
ENDBRANCH  15  16
ENDBRANCH   1  15
BRANCH   2  24
HETATM   24  C   UNK N   1      24.877  15.597   4.491  0.00  0.00    -0.008 A 
HETATM   25  C   UNK N   1      25.058  15.255   5.847  0.00  0.00     0.014 A 
HETATM   26  C   UNK N   1      25.786  14.128   6.235  0.00  0.00     0.001 A 
HETATM   27  C   UNK N   1      26.363  13.307   5.269  0.00  0.00     0.000 A 
HETATM   28  C   UNK N   1      26.204  13.612   3.921  0.00  0.00     0.001 A 
HETATM   29  C   UNK N   1      25.475  14.742   3.544  0.00  0.00     0.014 A 
ENDBRANCH   2  24
BRANCH  12  30
HETATM   30  N   UNK N   1      18.623  19.014   2.456  0.00  0.00    -0.399 N 
HETATM   31  H   UNK N   1      18.280  18.541   1.663  0.00  0.00     0.156 HD
HETATM   32  H   UNK N   1      17.989  19.444   3.075  0.00  0.00     0.156 HD
ENDBRANCH  12  30
BRANCH   7  33
HETATM   33  N   UNK N   1      28.239  19.551   4.361  0.00  0.00    -0.399 N 
HETATM   34  H   UNK N   1      28.619  20.390   4.709  0.00  0.00     0.156 HD
HETATM   35  H   UNK N   1      28.821  18.768   4.231  0.00  0.00     0.156 HD
ENDBRANCH   7  33
TORSDOF 9
ENDMDL
