MODEL 1
REMARK VINA RESULT:      -8.3      0.000      0.000
REMARK  9 active torsions:
REMARK  status: ('A' for Active; 'I' for Inactive)
REMARK    1  A    between atoms: C_2  and  C_3 
REMARK    2  A    between atoms: C_4  and  C_5 
REMARK    3  A    between atoms: C_5  and  C_7 
REMARK    4  A    between atoms: C_11  and  O_12 
REMARK    5  A    between atoms: C_20  and  S_23 
REMARK    6  A    between atoms: S_23  and  N_26 
REMARK    7  A    between atoms: N_26  and  C_27 
REMARK    8  A    between atoms: C_30  and  S_33 
REMARK    9  A    between atoms: S_33  and  N_34 
ROOT
HETATM    1  C   UNK N   1      27.323  18.741   5.016  0.00  0.00     0.068 A 
HETATM    2  C   UNK N   1      27.627  17.621   5.827  0.00  0.00     0.058 A 
HETATM    3  C   UNK N   1      26.761  16.634   5.382  0.00  0.00     0.015 A 
HETATM    4  C   UNK N   1      25.999  17.194   4.390  0.00  0.00     0.088 A 
HETATM    5  O   UNK N   1      26.348  18.435   4.190  0.00  0.00    -0.313 OA
HETATM    6  C   UNK N   1      25.024  16.500   3.707  0.00  0.00     0.063 A 
HETATM    7  C   UNK N   1      24.805  15.165   4.056  0.00  0.00     0.082 A 
HETATM    8  C   UNK N   1      25.579  14.558   5.078  0.00  0.00     0.026 A 
HETATM    9  C   UNK N   1      26.573  15.299   5.759  0.00  0.00     0.017 A 
ENDROOT
BRANCH   7  10
HETATM   10  S   UNK N   1      23.579  14.239   3.147  0.00  0.00     0.263 S 
HETATM   11  O   UNK N   1      23.620  14.487   1.631  0.00  0.00    -0.200 OA
HETATM   12  O   UNK N   1      23.774  12.718   3.240  0.00  0.00    -0.200 OA
BRANCH  10  13
HETATM   13  N   UNK N   1      21.919  14.520   3.645  0.00  0.00    -0.281 N 
HETATM   14  H   UNK N   1      21.358  13.786   3.984  0.00  0.00     0.179 HD
BRANCH  13  15
HETATM   15  C   UNK N   1      21.422  15.829   3.541  0.00  0.00     0.042 A 
HETATM   16  C   UNK N   1      20.851  16.251   2.339  0.00  0.00     0.031 A 
HETATM   17  C   UNK N   1      20.601  17.603   2.123  0.00  0.00     0.027 A 
HETATM   18  C   UNK N   1      20.926  18.538   3.105  0.00  0.00     0.079 A 
HETATM   19  C   UNK N   1      21.473  18.118   4.322  0.00  0.00     0.027 A 
HETATM   20  C   UNK N   1      21.716  16.760   4.543  0.00  0.00     0.031 A 
BRANCH  18  21
HETATM   21  S   UNK N   1      20.996  20.258   2.651  0.00  0.00     0.256 S 
HETATM   22  O   UNK N   1      20.161  20.992   3.707  0.00  0.00    -0.201 OA
HETATM   23  O   UNK N   1      22.360  20.934   2.866  0.00  0.00    -0.201 OA
BRANCH  21  24
HETATM   24  N   UNK N   1      20.335  20.877   1.138  0.00  0.00    -0.324 N 
HETATM   25  H   UNK N   1      19.449  21.331   0.917  0.00  0.00     0.169 HD
HETATM   26  H   UNK N   1      20.954  20.761   0.336  0.00  0.00     0.169 HD
ENDBRANCH  21  24
ENDBRANCH  18  21
ENDBRANCH  13  15
ENDBRANCH  10  13
ENDBRANCH   7  10
BRANCH   2  27
HETATM   27  C   UNK N   1      28.680  17.472   6.886  0.00  0.00     0.195 C 
HETATM   28  O   UNK N   1      28.333  17.443   8.060  0.00  0.00    -0.287 OA
BRANCH  27  29
HETATM   29  C   UNK N   1      30.125  17.313   6.564  0.00  0.00     0.018 A 
HETATM   30  C   UNK N   1      30.551  17.142   5.239  0.00  0.00     0.037 A 
HETATM   31  C   UNK N   1      31.920  17.085   4.940  0.00  0.00     0.046 A 
HETATM   32 Br   UNK N   1      32.476  16.930   3.119  0.00  0.00    -0.048 Br
HETATM   33  C   UNK N   1      32.871  17.174   5.971  0.00  0.00     0.100 A 
HETATM   34  C   UNK N   1      32.442  17.291   7.297  0.00  0.00     0.046 A 
HETATM   35 Br   UNK N   1      33.689  17.416   8.740  0.00  0.00    -0.048 Br
HETATM   36  C   UNK N   1      31.084  17.354   7.579  0.00  0.00     0.037 A 
BRANCH  33  37
HETATM   37  O   UNK N   1      34.185  17.148   5.688  0.00  0.00    -0.358 OA
HETATM   38  H   UNK N   1      34.551  16.417   5.231  0.00  0.00     0.217 HD
ENDBRANCH  33  37
ENDBRANCH  27  29
ENDBRANCH   2  27
BRANCH   1  39
HETATM   39  C   UNK N   1      28.007  20.071   4.965  0.00  0.00     0.061 C 
HETATM   40  C   UNK N   1      27.472  21.029   6.012  0.00  0.00     0.012 C 
ENDBRANCH   1  39
TORSDOF 9
ENDMDL
MODEL 2
REMARK VINA RESULT:      -8.3      1.634      2.078
REMARK  9 active torsions:
REMARK  status: ('A' for Active; 'I' for Inactive)
REMARK    1  A    between atoms: C_2  and  C_3 
REMARK    2  A    between atoms: C_4  and  C_5 
REMARK    3  A    between atoms: C_5  and  C_7 
REMARK    4  A    between atoms: C_11  and  O_12 
REMARK    5  A    between atoms: C_20  and  S_23 
REMARK    6  A    between atoms: S_23  and  N_26 
REMARK    7  A    between atoms: N_26  and  C_27 
REMARK    8  A    between atoms: C_30  and  S_33 
REMARK    9  A    between atoms: S_33  and  N_34 
ROOT
HETATM    1  C   UNK N   1      27.254  18.414   3.922  0.00  0.00     0.068 A 
HETATM    2  C   UNK N   1      27.969  17.195   3.854  0.00  0.00     0.058 A 
HETATM    3  C   UNK N   1      27.022  16.266   3.451  0.00  0.00     0.015 A 
HETATM    4  C   UNK N   1      25.834  16.941   3.327  0.00  0.00     0.088 A 
HETATM    5  O   UNK N   1      25.995  18.205   3.608  0.00  0.00    -0.313 OA
HETATM    6  C   UNK N   1      24.661  16.333   2.936  0.00  0.00     0.063 A 
HETATM    7  C   UNK N   1      24.692  14.964   2.662  0.00  0.00     0.082 A 
HETATM    8  C   UNK N   1      25.907  14.239   2.780  0.00  0.00     0.026 A 
HETATM    9  C   UNK N   1      27.094  14.894   3.183  0.00  0.00     0.017 A 
ENDROOT
BRANCH   7  10
HETATM   10  S   UNK N   1      23.191  14.174   2.106  0.00  0.00     0.263 S 
HETATM   11  O   UNK N   1      22.817  14.514   0.655  0.00  0.00    -0.200 OA
HETATM   12  O   UNK N   1      23.288  12.641   2.074  0.00  0.00    -0.200 OA
BRANCH  10  13
HETATM   13  N   UNK N   1      21.769  14.523   3.074  0.00  0.00    -0.281 N 
HETATM   14  H   UNK N   1      21.315  13.816   3.586  0.00  0.00     0.179 HD
BRANCH  13  15
HETATM   15  C   UNK N   1      21.303  15.848   3.090  0.00  0.00     0.042 A 
HETATM   16  C   UNK N   1      20.664  16.362   1.960  0.00  0.00     0.031 A 
HETATM   17  C   UNK N   1      20.438  17.731   1.850  0.00  0.00     0.027 A 
HETATM   18  C   UNK N   1      20.855  18.591   2.866  0.00  0.00     0.079 A 
HETATM   19  C   UNK N   1      21.470  18.077   4.013  0.00  0.00     0.027 A 
HETATM   20  C   UNK N   1      21.689  16.702   4.128  0.00  0.00     0.031 A 
BRANCH  18  21
HETATM   21  S   UNK N   1      20.943  20.335   2.522  0.00  0.00     0.256 S 
HETATM   22  O   UNK N   1      20.134  21.011   3.635  0.00  0.00    -0.201 OA
HETATM   23  O   UNK N   1      22.319  20.977   2.757  0.00  0.00    -0.201 OA
BRANCH  21  24
HETATM   24  N   UNK N   1      20.267  21.058   1.062  0.00  0.00    -0.324 N 
HETATM   25  H   UNK N   1      20.380  20.831   0.074  0.00  0.00     0.169 HD
HETATM   26  H   UNK N   1      19.649  21.850   1.238  0.00  0.00     0.169 HD
ENDBRANCH  21  24
ENDBRANCH  18  21
ENDBRANCH  13  15
ENDBRANCH  10  13
ENDBRANCH   7  10
BRANCH   2  27
HETATM   27  C   UNK N   1      29.428  16.934   4.089  0.00  0.00     0.195 C 
HETATM   28  O   UNK N   1      30.135  16.641   3.133  0.00  0.00    -0.287 OA
BRANCH  27  29
HETATM   29  C   UNK N   1      30.060  17.060   5.431  0.00  0.00     0.018 A 
HETATM   30  C   UNK N   1      31.455  17.043   5.574  0.00  0.00     0.037 A 
HETATM   31  C   UNK N   1      32.039  17.253   6.831  0.00  0.00     0.046 A 
HETATM   32 Br   UNK N   1      33.943  17.302   6.983  0.00  0.00    -0.048 Br
HETATM   33  C   UNK N   1      31.227  17.461   7.959  0.00  0.00     0.100 A 
HETATM   34  C   UNK N   1      29.836  17.426   7.824  0.00  0.00     0.046 A 
HETATM   35 Br   UNK N   1      28.682  17.700   9.323  0.00  0.00    -0.048 Br
HETATM   36  C   UNK N   1      29.270  17.222   6.572  0.00  0.00     0.037 A 
BRANCH  33  37
HETATM   37  O   UNK N   1      31.781  17.692   9.162  0.00  0.00    -0.358 OA
HETATM   38  H   UNK N   1      31.429  17.281   9.927  0.00  0.00     0.217 HD
ENDBRANCH  33  37
ENDBRANCH  27  29
ENDBRANCH   2  27
BRANCH   1  39
HETATM   39  C   UNK N   1      27.774  19.788   4.202  0.00  0.00     0.061 C 
HETATM   40  C   UNK N   1      27.333  20.301   5.559  0.00  0.00     0.012 C 
ENDBRANCH   1  39
TORSDOF 9
ENDMDL
MODEL 3
REMARK VINA RESULT:      -8.3      5.499     10.128
REMARK  9 active torsions:
REMARK  status: ('A' for Active; 'I' for Inactive)
REMARK    1  A    between atoms: C_2  and  C_3 
REMARK    2  A    between atoms: C_4  and  C_5 
REMARK    3  A    between atoms: C_5  and  C_7 
REMARK    4  A    between atoms: C_11  and  O_12 
REMARK    5  A    between atoms: C_20  and  S_23 
REMARK    6  A    between atoms: S_23  and  N_26 
REMARK    7  A    between atoms: N_26  and  C_27 
REMARK    8  A    between atoms: C_30  and  S_33 
REMARK    9  A    between atoms: S_33  and  N_34 
ROOT
HETATM    1  C   UNK N   1      27.539  20.382   5.441  0.00  0.00     0.068 A 
HETATM    2  C   UNK N   1      27.017  19.754   4.285  0.00  0.00     0.058 A 
HETATM    3  C   UNK N   1      27.764  18.592   4.164  0.00  0.00     0.015 A 
HETATM    4  C   UNK N   1      28.671  18.595   5.192  0.00  0.00     0.088 A 
HETATM    5  O   UNK N   1      28.519  19.659   5.933  0.00  0.00    -0.313 OA
HETATM    6  C   UNK N   1      29.585  17.583   5.393  0.00  0.00     0.063 A 
HETATM    7  C   UNK N   1      29.583  16.512   4.496  0.00  0.00     0.082 A 
HETATM    8  C   UNK N   1      28.656  16.481   3.423  0.00  0.00     0.026 A 
HETATM    9  C   UNK N   1      27.730  17.535   3.246  0.00  0.00     0.017 A 
ENDROOT
BRANCH   7  10
HETATM   10  S   UNK N   1      30.729  15.171   4.772  0.00  0.00     0.263 S 
HETATM   11  O   UNK N   1      30.415  13.915   3.944  0.00  0.00    -0.200 OA
HETATM   12  O   UNK N   1      32.166  15.501   4.344  0.00  0.00    -0.200 OA
BRANCH  10  13
HETATM   13  N   UNK N   1      30.858  14.639   6.440  0.00  0.00    -0.281 N 
HETATM   14  H   UNK N   1      30.141  14.117   6.865  0.00  0.00     0.179 HD
BRANCH  13  15
HETATM   15  C   UNK N   1      32.022  14.988   7.145  0.00  0.00     0.042 A 
HETATM   16  C   UNK N   1      32.994  14.014   7.383  0.00  0.00     0.031 A 
HETATM   17  C   UNK N   1      34.015  14.258   8.297  0.00  0.00     0.027 A 
HETATM   18  C   UNK N   1      34.064  15.473   8.980  0.00  0.00     0.079 A 
HETATM   19  C   UNK N   1      33.108  16.463   8.724  0.00  0.00     0.027 A 
HETATM   20  C   UNK N   1      32.088  16.222   7.800  0.00  0.00     0.031 A 
BRANCH  18  21
HETATM   21  S   UNK N   1      35.098  15.597  10.424  0.00  0.00     0.256 S 
HETATM   22  O   UNK N   1      35.140  17.091  10.768  0.00  0.00    -0.201 OA
HETATM   23  O   UNK N   1      34.484  15.037  11.716  0.00  0.00    -0.201 OA
BRANCH  21  24
HETATM   24  N   UNK N   1      36.806  15.156  10.418  0.00  0.00    -0.324 N 
HETATM   25  H   UNK N   1      37.298  14.340  10.053  0.00  0.00     0.169 HD
HETATM   26  H   UNK N   1      37.414  15.844  10.861  0.00  0.00     0.169 HD
ENDBRANCH  21  24
ENDBRANCH  18  21
ENDBRANCH  13  15
ENDBRANCH  10  13
ENDBRANCH   7  10
BRANCH   2  27
HETATM   27  C   UNK N   1      25.878  20.177   3.405  0.00  0.00     0.195 C 
HETATM   28  O   UNK N   1      26.113  20.899   2.445  0.00  0.00    -0.287 OA
BRANCH  27  29
HETATM   29  C   UNK N   1      24.479  19.716   3.627  0.00  0.00     0.018 A 
HETATM   30  C   UNK N   1      23.410  20.310   2.940  0.00  0.00     0.037 A 
HETATM   31  C   UNK N   1      22.109  19.807   3.090  0.00  0.00     0.046 A 
HETATM   32 Br   UNK N   1      20.684  20.584   2.083  0.00  0.00    -0.048 Br
HETATM   33  C   UNK N   1      21.869  18.720   3.947  0.00  0.00     0.100 A 
HETATM   34  C   UNK N   1      22.927  18.163   4.670  0.00  0.00     0.046 A 
HETATM   35 Br   UNK N   1      22.660  16.685   5.851  0.00  0.00    -0.048 Br
HETATM   36  C   UNK N   1      24.213  18.666   4.509  0.00  0.00     0.037 A 
BRANCH  33  37
HETATM   37  O   UNK N   1      20.629  18.216   4.072  0.00  0.00    -0.358 OA
HETATM   38  H   UNK N   1      19.972  18.695   4.537  0.00  0.00     0.217 HD
ENDBRANCH  33  37
ENDBRANCH  27  29
ENDBRANCH   2  27
BRANCH   1  39
HETATM   39  C   UNK N   1      27.059  21.622   6.128  0.00  0.00     0.061 C 
HETATM   40  C   UNK N   1      26.172  21.309   7.318  0.00  0.00     0.012 C 
ENDBRANCH   1  39
TORSDOF 9
ENDMDL
MODEL 4
REMARK VINA RESULT:      -8.0      9.201     14.323
REMARK  9 active torsions:
REMARK  status: ('A' for Active; 'I' for Inactive)
REMARK    1  A    between atoms: C_2  and  C_3 
REMARK    2  A    between atoms: C_4  and  C_5 
REMARK    3  A    between atoms: C_5  and  C_7 
REMARK    4  A    between atoms: C_11  and  O_12 
REMARK    5  A    between atoms: C_20  and  S_23 
REMARK    6  A    between atoms: S_23  and  N_26 
REMARK    7  A    between atoms: N_26  and  C_27 
REMARK    8  A    between atoms: C_30  and  S_33 
REMARK    9  A    between atoms: S_33  and  N_34 
ROOT
HETATM    1  C   UNK N   1      35.090  14.728   7.045  0.00  0.00     0.068 A 
HETATM    2  C   UNK N   1      34.584  15.853   7.739  0.00  0.00     0.058 A 
HETATM    3  C   UNK N   1      34.849  15.579   9.072  0.00  0.00     0.015 A 
HETATM    4  C   UNK N   1      35.451  14.347   9.110  0.00  0.00     0.088 A 
HETATM    5  O   UNK N   1      35.584  13.866   7.904  0.00  0.00    -0.313 OA
HETATM    6  C   UNK N   1      35.864  13.747  10.280  0.00  0.00     0.063 A 
HETATM    7  C   UNK N   1      35.647  14.431  11.478  0.00  0.00     0.082 A 
HETATM    8  C   UNK N   1      35.027  15.707  11.470  0.00  0.00     0.026 A 
HETATM    9  C   UNK N   1      34.617  16.296  10.251  0.00  0.00     0.017 A 
ENDROOT
BRANCH   7  10
HETATM   10  S   UNK N   1      36.221  13.688  12.997  0.00  0.00     0.263 S 
HETATM   11  O   UNK N   1      37.352  12.668  12.793  0.00  0.00    -0.200 OA
HETATM   12  O   UNK N   1      36.853  14.697  13.966  0.00  0.00    -0.200 OA
BRANCH  10  13
HETATM   13  N   UNK N   1      34.983  12.867  13.933  0.00  0.00    -0.281 N 
HETATM   14  H   UNK N   1      34.083  12.716  13.566  0.00  0.00     0.179 HD
BRANCH  13  15
HETATM   15  C   UNK N   1      35.325  12.434  15.225  0.00  0.00     0.042 A 
HETATM   16  C   UNK N   1      35.832  11.145  15.403  0.00  0.00     0.031 A 
HETATM   17  C   UNK N   1      35.922  10.603  16.681  0.00  0.00     0.027 A 
HETATM   18  C   UNK N   1      35.501  11.345  17.785  0.00  0.00     0.079 A 
HETATM   19  C   UNK N   1      35.019  12.647  17.614  0.00  0.00     0.027 A 
HETATM   20  C   UNK N   1      34.936  13.195  16.332  0.00  0.00     0.031 A 
BRANCH  18  21
HETATM   21  S   UNK N   1      35.229  10.496  19.326  0.00  0.00     0.256 S 
HETATM   22  O   UNK N   1      34.105   9.492  19.045  0.00  0.00    -0.201 OA
HETATM   23  O   UNK N   1      36.352   9.537  19.750  0.00  0.00    -0.201 OA
BRANCH  21  24
HETATM   24  N   UNK N   1      34.659  11.314  20.781  0.00  0.00    -0.324 N 
HETATM   25  H   UNK N   1      33.737  11.658  21.053  0.00  0.00     0.169 HD
HETATM   26  H   UNK N   1      35.384  11.472  21.480  0.00  0.00     0.169 HD
ENDBRANCH  21  24
ENDBRANCH  18  21
ENDBRANCH  13  15
ENDBRANCH  10  13
ENDBRANCH   7  10
BRANCH   2  27
HETATM   27  C   UNK N   1      33.959  17.104   7.194  0.00  0.00     0.195 C 
HETATM   28  O   UNK N   1      34.691  18.003   6.799  0.00  0.00    -0.287 OA
BRANCH  27  29
HETATM   29  C   UNK N   1      32.486  17.278   7.074  0.00  0.00     0.018 A 
HETATM   30  C   UNK N   1      31.829  17.023   5.861  0.00  0.00     0.037 A 
HETATM   31  C   UNK N   1      30.431  17.103   5.785  0.00  0.00     0.046 A 
HETATM   32 Br   UNK N   1      29.555  16.674   4.143  0.00  0.00    -0.048 Br
HETATM   33  C   UNK N   1      29.683  17.462   6.920  0.00  0.00     0.100 A 
HETATM   34  C   UNK N   1      30.344  17.768   8.114  0.00  0.00     0.046 A 
HETATM   35 Br   UNK N   1      29.380  18.264   9.688  0.00  0.00    -0.048 Br
HETATM   36  C   UNK N   1      31.729  17.678   8.178  0.00  0.00     0.037 A 
BRANCH  33  37
HETATM   37  O   UNK N   1      28.341  17.513   6.861  0.00  0.00    -0.358 OA
HETATM   38  H   UNK N   1      27.887  18.274   7.166  0.00  0.00     0.217 HD
ENDBRANCH  33  37
ENDBRANCH  27  29
ENDBRANCH   2  27
BRANCH   1  39
HETATM   39  C   UNK N   1      35.182  14.504   5.569  0.00  0.00     0.061 C 
HETATM   40  C   UNK N   1      33.975  13.762   5.027  0.00  0.00     0.012 C 
ENDBRANCH   1  39
TORSDOF 9
ENDMDL
MODEL 5
REMARK VINA RESULT:      -8.0     12.377     16.439
REMARK  9 active torsions:
REMARK  status: ('A' for Active; 'I' for Inactive)
REMARK    1  A    between atoms: C_2  and  C_3 
REMARK    2  A    between atoms: C_4  and  C_5 
REMARK    3  A    between atoms: C_5  and  C_7 
REMARK    4  A    between atoms: C_11  and  O_12 
REMARK    5  A    between atoms: C_20  and  S_23 
REMARK    6  A    between atoms: S_23  and  N_26 
REMARK    7  A    between atoms: N_26  and  C_27 
REMARK    8  A    between atoms: C_30  and  S_33 
REMARK    9  A    between atoms: S_33  and  N_34 
ROOT
HETATM    1  C   UNK N   1      36.773   9.426  17.852  0.00  0.00     0.068 A 
HETATM    2  C   UNK N   1      35.986  10.553  18.190  0.00  0.00     0.058 A 
HETATM    3  C   UNK N   1      35.807  11.216  16.985  0.00  0.00     0.015 A 
HETATM    4  C   UNK N   1      36.485  10.499  16.034  0.00  0.00     0.088 A 
HETATM    5  O   UNK N   1      37.046   9.448  16.567  0.00  0.00    -0.313 OA
HETATM    6  C   UNK N   1      36.526  10.861  14.705  0.00  0.00     0.063 A 
HETATM    7  C   UNK N   1      35.847  12.020  14.321  0.00  0.00     0.082 A 
HETATM    8  C   UNK N   1      35.135  12.782  15.283  0.00  0.00     0.026 A 
HETATM    9  C   UNK N   1      35.112  12.381  16.639  0.00  0.00     0.017 A 
ENDROOT
BRANCH   7  10
HETATM   10  S   UNK N   1      35.850  12.474  12.595  0.00  0.00     0.263 S 
HETATM   11  O   UNK N   1      37.124  13.214  12.156  0.00  0.00    -0.200 OA
HETATM   12  O   UNK N   1      35.824  11.265  11.648  0.00  0.00    -0.200 OA
BRANCH  10  13
HETATM   13  N   UNK N   1      34.501  13.479  12.091  0.00  0.00    -0.281 N 
HETATM   14  H   UNK N   1      33.616  13.391  12.511  0.00  0.00     0.179 HD
BRANCH  13  15
HETATM   15  C   UNK N   1      34.733  14.413  11.068  0.00  0.00     0.042 A 
HETATM   16  C   UNK N   1      35.176  15.695  11.399  0.00  0.00     0.031 A 
HETATM   17  C   UNK N   1      35.154  16.708  10.445  0.00  0.00     0.027 A 
HETATM   18  C   UNK N   1      34.684  16.444   9.159  0.00  0.00     0.079 A 
HETATM   19  C   UNK N   1      34.264  15.155   8.814  0.00  0.00     0.027 A 
HETATM   20  C   UNK N   1      34.295  14.135   9.769  0.00  0.00     0.031 A 
BRANCH  18  21
HETATM   21  S   UNK N   1      34.269  17.819   8.106  0.00  0.00     0.256 S 
HETATM   22  O   UNK N   1      35.200  18.958   8.538  0.00  0.00    -0.201 OA
HETATM   23  O   UNK N   1      34.691  17.665   6.637  0.00  0.00    -0.201 OA
BRANCH  21  24
HETATM   24  N   UNK N   1      32.683  18.591   8.120  0.00  0.00    -0.324 N 
HETATM   25  H   UNK N   1      31.929  18.612   7.433  0.00  0.00     0.169 HD
HETATM   26  H   UNK N   1      32.482  19.112   8.973  0.00  0.00     0.169 HD
ENDBRANCH  21  24
ENDBRANCH  18  21
ENDBRANCH  13  15
ENDBRANCH  10  13
ENDBRANCH   7  10
BRANCH   2  27
HETATM   27  C   UNK N   1      35.402  10.943  19.516  0.00  0.00     0.195 C 
HETATM   28  O   UNK N   1      35.767  11.991  20.034  0.00  0.00    -0.287 OA
BRANCH  27  29
HETATM   29  C   UNK N   1      34.365  10.128  20.207  0.00  0.00     0.018 A 
HETATM   30  C   UNK N   1      33.824   8.988  19.597  0.00  0.00     0.037 A 
HETATM   31  C   UNK N   1      32.915   8.178  20.294  0.00  0.00     0.046 A 
HETATM   32 Br   UNK N   1      32.252   6.589  19.469  0.00  0.00    -0.048 Br
HETATM   33  C   UNK N   1      32.526   8.520  21.600  0.00  0.00     0.100 A 
HETATM   34  C   UNK N   1      33.027   9.686  22.187  0.00  0.00     0.046 A 
HETATM   35 Br   UNK N   1      32.533  10.202  23.960  0.00  0.00    -0.048 Br
HETATM   36  C   UNK N   1      33.931  10.476  21.489  0.00  0.00     0.037 A 
BRANCH  33  37
HETATM   37  O   UNK N   1      31.677   7.733  22.284  0.00  0.00    -0.358 OA
HETATM   38  H   UNK N   1      31.564   7.856  23.206  0.00  0.00     0.217 HD
ENDBRANCH  33  37
ENDBRANCH  27  29
ENDBRANCH   2  27
BRANCH   1  39
HETATM   39  C   UNK N   1      37.196   8.287  18.725  0.00  0.00     0.061 C 
HETATM   40  C   UNK N   1      36.714   6.950  18.194  0.00  0.00     0.012 C 
ENDBRANCH   1  39
TORSDOF 9
ENDMDL
MODEL 6
REMARK VINA RESULT:      -8.0      9.139     14.360
REMARK  9 active torsions:
REMARK  status: ('A' for Active; 'I' for Inactive)
REMARK    1  A    between atoms: C_2  and  C_3 
REMARK    2  A    between atoms: C_4  and  C_5 
REMARK    3  A    between atoms: C_5  and  C_7 
REMARK    4  A    between atoms: C_11  and  O_12 
REMARK    5  A    between atoms: C_20  and  S_23 
REMARK    6  A    between atoms: S_23  and  N_26 
REMARK    7  A    between atoms: N_26  and  C_27 
REMARK    8  A    between atoms: C_30  and  S_33 
REMARK    9  A    between atoms: S_33  and  N_34 
ROOT
HETATM    1  C   UNK N   1      35.133  14.726   6.879  0.00  0.00     0.068 A 
HETATM    2  C   UNK N   1      34.550  15.811   7.576  0.00  0.00     0.058 A 
HETATM    3  C   UNK N   1      34.816  15.541   8.910  0.00  0.00     0.015 A 
HETATM    4  C   UNK N   1      35.493  14.350   8.945  0.00  0.00     0.088 A 
HETATM    5  O   UNK N   1      35.670  13.889   7.737  0.00  0.00    -0.313 OA
HETATM    6  C   UNK N   1      35.929  13.766  10.114  0.00  0.00     0.063 A 
HETATM    7  C   UNK N   1      35.656  14.423  11.316  0.00  0.00     0.082 A 
HETATM    8  C   UNK N   1      34.958  15.659  11.311  0.00  0.00     0.026 A 
HETATM    9  C   UNK N   1      34.525  16.231  10.093  0.00  0.00     0.017 A 
ENDROOT
BRANCH   7  10
HETATM   10  S   UNK N   1      36.257  13.703  12.835  0.00  0.00     0.263 S 
HETATM   11  O   UNK N   1      37.521  12.848  12.652  0.00  0.00    -0.200 OA
HETATM   12  O   UNK N   1      36.709  14.749  13.866  0.00  0.00    -0.200 OA
BRANCH  10  13
HETATM   13  N   UNK N   1      35.100  12.693  13.684  0.00  0.00    -0.281 N 
HETATM   14  H   UNK N   1      34.259  12.411  13.257  0.00  0.00     0.179 HD
BRANCH  13  15
HETATM   15  C   UNK N   1      35.417  12.302  14.995  0.00  0.00     0.042 A 
HETATM   16  C   UNK N   1      36.043  11.073  15.210  0.00  0.00     0.031 A 
HETATM   17  C   UNK N   1      36.122  10.547  16.497  0.00  0.00     0.027 A 
HETATM   18  C   UNK N   1      35.571  11.246  17.571  0.00  0.00     0.079 A 
HETATM   19  C   UNK N   1      34.967  12.491  17.365  0.00  0.00     0.027 A 
HETATM   20  C   UNK N   1      34.895  13.023  16.075  0.00  0.00     0.031 A 
BRANCH  18  21
HETATM   21  S   UNK N   1      35.308  10.379  19.104  0.00  0.00     0.256 S 
HETATM   22  O   UNK N   1      34.043   9.541  18.885  0.00  0.00    -0.201 OA
HETATM   23  O   UNK N   1      36.323   9.266  19.407  0.00  0.00    -0.201 OA
BRANCH  21  24
HETATM   24  N   UNK N   1      34.964  11.206  20.623  0.00  0.00    -0.324 N 
HETATM   25  H   UNK N   1      34.631  10.864  21.525  0.00  0.00     0.169 HD
HETATM   26  H   UNK N   1      35.128  12.212  20.596  0.00  0.00     0.169 HD
ENDBRANCH  21  24
ENDBRANCH  18  21
ENDBRANCH  13  15
ENDBRANCH  10  13
ENDBRANCH   7  10
BRANCH   2  27
HETATM   27  C   UNK N   1      33.854  17.026   7.035  0.00  0.00     0.195 C 
HETATM   28  O   UNK N   1      34.532  17.931   6.564  0.00  0.00    -0.287 OA
BRANCH  27  29
HETATM   29  C   UNK N   1      32.372  17.156   7.006  0.00  0.00     0.018 A 
HETATM   30  C   UNK N   1      31.661  17.538   8.153  0.00  0.00     0.037 A 
HETATM   31  C   UNK N   1      30.276  17.744   8.089  0.00  0.00     0.046 A 
HETATM   32 Br   UNK N   1      29.345  18.339   9.647  0.00  0.00    -0.048 Br
HETATM   33  C   UNK N   1      29.589  17.547   6.879  0.00  0.00     0.100 A 
HETATM   34  C   UNK N   1      30.291  17.115   5.750  0.00  0.00     0.046 A 
HETATM   35 Br   UNK N   1      29.411  16.829   4.078  0.00  0.00    -0.048 Br
HETATM   36  C   UNK N   1      31.664  16.920   5.824  0.00  0.00     0.037 A 
BRANCH  33  37
HETATM   37  O   UNK N   1      28.266  17.771   6.805  0.00  0.00    -0.358 OA
HETATM   38  H   UNK N   1      27.785  17.489   6.052  0.00  0.00     0.217 HD
ENDBRANCH  33  37
ENDBRANCH  27  29
ENDBRANCH   2  27
BRANCH   1  39
HETATM   39  C   UNK N   1      35.256  14.522   5.402  0.00  0.00     0.061 C 
HETATM   40  C   UNK N   1      33.971  14.002   4.788  0.00  0.00     0.012 C 
ENDBRANCH   1  39
TORSDOF 9
ENDMDL
MODEL 7
REMARK VINA RESULT:      -7.8      2.986      3.475
REMARK  9 active torsions:
REMARK  status: ('A' for Active; 'I' for Inactive)
REMARK    1  A    between atoms: C_2  and  C_3 
REMARK    2  A    between atoms: C_4  and  C_5 
REMARK    3  A    between atoms: C_5  and  C_7 
REMARK    4  A    between atoms: C_11  and  O_12 
REMARK    5  A    between atoms: C_20  and  S_23 
REMARK    6  A    between atoms: S_23  and  N_26 
REMARK    7  A    between atoms: N_26  and  C_27 
REMARK    8  A    between atoms: C_30  and  S_33 
REMARK    9  A    between atoms: S_33  and  N_34 
ROOT
HETATM    1  C   UNK N   1      27.261  18.803   4.390  0.00  0.00     0.068 A 
HETATM    2  C   UNK N   1      27.864  17.543   4.167  0.00  0.00     0.058 A 
HETATM    3  C   UNK N   1      26.813  16.728   3.771  0.00  0.00     0.015 A 
HETATM    4  C   UNK N   1      25.681  17.502   3.800  0.00  0.00     0.088 A 
HETATM    5  O   UNK N   1      25.970  18.721   4.166  0.00  0.00    -0.313 OA
HETATM    6  C   UNK N   1      24.435  17.024   3.461  0.00  0.00     0.063 A 
HETATM    7  C   UNK N   1      24.329  15.684   3.078  0.00  0.00     0.082 A 
HETATM    8  C   UNK N   1      25.483  14.860   3.037  0.00  0.00     0.026 A 
HETATM    9  C   UNK N   1      26.749  15.383   3.391  0.00  0.00     0.017 A 
ENDROOT
BRANCH   7  10
HETATM   10  S   UNK N   1      22.728  15.064   2.588  0.00  0.00     0.263 S 
HETATM   11  O   UNK N   1      22.602  14.814   1.077  0.00  0.00    -0.200 OA
HETATM   12  O   UNK N   1      22.403  13.686   3.182  0.00  0.00    -0.200 OA
BRANCH  10  13
HETATM   13  N   UNK N   1      21.371  16.086   3.031  0.00  0.00    -0.281 N 
HETATM   14  H   UNK N   1      20.988  16.729   2.393  0.00  0.00     0.179 HD
BRANCH  13  15
HETATM   15  C   UNK N   1      20.853  15.951   4.329  0.00  0.00     0.042 A 
HETATM   16  C   UNK N   1      19.472  15.851   4.507  0.00  0.00     0.031 A 
HETATM   17  C   UNK N   1      18.922  15.987   5.779  0.00  0.00     0.027 A 
HETATM   18  C   UNK N   1      19.749  16.230   6.874  0.00  0.00     0.079 A 
HETATM   19  C   UNK N   1      21.136  16.304   6.705  0.00  0.00     0.027 A 
HETATM   20  C   UNK N   1      21.690  16.158   5.431  0.00  0.00     0.031 A 
BRANCH  18  21
HETATM   21  S   UNK N   1      19.011  16.816   8.385  0.00  0.00     0.256 S 
HETATM   22  O   UNK N   1      19.017  15.612   9.334  0.00  0.00    -0.201 OA
HETATM   23  O   UNK N   1      19.871  17.802   9.191  0.00  0.00    -0.201 OA
BRANCH  21  24
HETATM   24  N   UNK N   1      17.341  17.375   8.481  0.00  0.00    -0.324 N 
HETATM   25  H   UNK N   1      16.773  17.937   7.846  0.00  0.00     0.169 HD
HETATM   26  H   UNK N   1      16.853  17.082   9.326  0.00  0.00     0.169 HD
ENDBRANCH  21  24
ENDBRANCH  18  21
ENDBRANCH  13  15
ENDBRANCH  10  13
ENDBRANCH   7  10
BRANCH   2  27
HETATM   27  C   UNK N   1      29.310  17.149   4.259  0.00  0.00     0.195 C 
HETATM   28  O   UNK N   1      29.897  16.823   3.235  0.00  0.00    -0.287 OA
BRANCH  27  29
HETATM   29  C   UNK N   1      30.070  17.183   5.538  0.00  0.00     0.018 A 
HETATM   30  C   UNK N   1      31.467  17.059   5.547  0.00  0.00     0.037 A 
HETATM   31  C   UNK N   1      32.180  17.183   6.748  0.00  0.00     0.046 A 
HETATM   32 Br   UNK N   1      34.087  17.086   6.721  0.00  0.00    -0.048 Br
HETATM   33  C   UNK N   1      31.494  17.411   7.953  0.00  0.00     0.100 A 
HETATM   34  C   UNK N   1      30.098  17.483   7.950  0.00  0.00     0.046 A 
HETATM   35 Br   UNK N   1      29.111  17.790   9.558  0.00  0.00    -0.048 Br
HETATM   36  C   UNK N   1      29.404  17.364   6.752  0.00  0.00     0.037 A 
BRANCH  33  37
HETATM   37  O   UNK N   1      32.173  17.559   9.104  0.00  0.00    -0.358 OA
HETATM   38  H   UNK N   1      33.028  17.187   9.195  0.00  0.00     0.217 HD
ENDBRANCH  33  37
ENDBRANCH  27  29
ENDBRANCH   2  27
BRANCH   1  39
HETATM   39  C   UNK N   1      27.916  20.104   4.733  0.00  0.00     0.061 C 
HETATM   40  C   UNK N   1      27.269  20.771   5.932  0.00  0.00     0.012 C 
ENDBRANCH   1  39
TORSDOF 9
ENDMDL
MODEL 8
REMARK VINA RESULT:      -7.8      2.994      5.007
REMARK  9 active torsions:
REMARK  status: ('A' for Active; 'I' for Inactive)
REMARK    1  A    between atoms: C_2  and  C_3 
REMARK    2  A    between atoms: C_4  and  C_5 
REMARK    3  A    between atoms: C_5  and  C_7 
REMARK    4  A    between atoms: C_11  and  O_12 
REMARK    5  A    between atoms: C_20  and  S_23 
REMARK    6  A    between atoms: S_23  and  N_26 
REMARK    7  A    between atoms: N_26  and  C_27 
REMARK    8  A    between atoms: C_30  and  S_33 
REMARK    9  A    between atoms: S_33  and  N_34 
ROOT
HETATM    1  C   UNK N   1      25.711  19.288   4.154  0.00  0.00     0.068 A 
HETATM    2  C   UNK N   1      25.943  17.895   4.064  0.00  0.00     0.058 A 
HETATM    3  C   UNK N   1      24.676  17.346   3.946  0.00  0.00     0.015 A 
HETATM    4  C   UNK N   1      23.786  18.388   3.995  0.00  0.00     0.088 A 
HETATM    5  O   UNK N   1      24.419  19.523   4.116  0.00  0.00    -0.313 OA
HETATM    6  C   UNK N   1      22.422  18.219   3.902  0.00  0.00     0.063 A 
HETATM    7  C   UNK N   1      21.932  16.919   3.760  0.00  0.00     0.082 A 
HETATM    8  C   UNK N   1      22.828  15.820   3.705  0.00  0.00     0.026 A 
HETATM    9  C   UNK N   1      24.223  16.029   3.803  0.00  0.00     0.017 A 
ENDROOT
BRANCH   7  10
HETATM   10  S   UNK N   1      20.170  16.688   3.589  0.00  0.00     0.263 S 
HETATM   11  O   UNK N   1      19.449  17.896   2.971  0.00  0.00    -0.200 OA
HETATM   12  O   UNK N   1      19.797  15.550   2.628  0.00  0.00    -0.200 OA
BRANCH  10  13
HETATM   13  N   UNK N   1      19.323  16.323   5.083  0.00  0.00    -0.281 N 
HETATM   14  H   UNK N   1      18.418  16.669   5.253  0.00  0.00     0.179 HD
BRANCH  13  15
HETATM   15  C   UNK N   1      19.985  15.519   6.025  0.00  0.00     0.042 A 
HETATM   16  C   UNK N   1      20.699  16.126   7.061  0.00  0.00     0.031 A 
HETATM   17  C   UNK N   1      21.574  15.373   7.839  0.00  0.00     0.027 A 
HETATM   18  C   UNK N   1      21.743  14.013   7.580  0.00  0.00     0.079 A 
HETATM   19  C   UNK N   1      21.010  13.394   6.561  0.00  0.00     0.027 A 
HETATM   20  C   UNK N   1      20.124  14.148   5.786  0.00  0.00     0.031 A 
BRANCH  18  21
HETATM   21  S   UNK N   1      23.150  13.181   8.285  0.00  0.00     0.256 S 
HETATM   22  O   UNK N   1      24.375  13.954   7.781  0.00  0.00    -0.201 OA
HETATM   23  O   UNK N   1      23.321  13.360   9.801  0.00  0.00    -0.201 OA
BRANCH  21  24
HETATM   24  N   UNK N   1      23.565  11.510   7.902  0.00  0.00    -0.324 N 
HETATM   25  H   UNK N   1      23.078  10.792   7.365  0.00  0.00     0.169 HD
HETATM   26  H   UNK N   1      24.458  11.205   8.289  0.00  0.00     0.169 HD
ENDBRANCH  21  24
ENDBRANCH  18  21
ENDBRANCH  13  15
ENDBRANCH  10  13
ENDBRANCH   7  10
BRANCH   2  27
HETATM   27  C   UNK N   1      27.245  17.148   4.031  0.00  0.00     0.195 C 
HETATM   28  O   UNK N   1      27.489  16.434   3.067  0.00  0.00    -0.287 OA
BRANCH  27  29
HETATM   29  C   UNK N   1      28.270  17.275   5.103  0.00  0.00     0.018 A 
HETATM   30  C   UNK N   1      27.891  17.425   6.445  0.00  0.00     0.037 A 
HETATM   31  C   UNK N   1      28.865  17.452   7.454  0.00  0.00     0.046 A 
HETATM   32 Br   UNK N   1      28.318  17.580   9.280  0.00  0.00    -0.048 Br
HETATM   33  C   UNK N   1      30.226  17.351   7.122  0.00  0.00     0.100 A 
HETATM   34  C   UNK N   1      30.604  17.253   5.780  0.00  0.00     0.046 A 
HETATM   35 Br   UNK N   1      32.441  17.114   5.268  0.00  0.00    -0.048 Br
HETATM   36  C   UNK N   1      29.630  17.221   4.790  0.00  0.00     0.037 A 
BRANCH  33  37
HETATM   37  O   UNK N   1      31.162  17.347   8.087  0.00  0.00    -0.358 OA
HETATM   38  H   UNK N   1      31.543  18.154   8.374  0.00  0.00     0.217 HD
ENDBRANCH  33  37
ENDBRANCH  27  29
ENDBRANCH   2  27
BRANCH   1  39
HETATM   39  C   UNK N   1      26.710  20.402   4.193  0.00  0.00     0.061 C 
HETATM   40  C   UNK N   1      26.900  20.950   5.594  0.00  0.00     0.012 C 
ENDBRANCH   1  39
TORSDOF 9
ENDMDL
MODEL 9
REMARK VINA RESULT:      -7.8      5.292      9.973
REMARK  9 active torsions:
REMARK  status: ('A' for Active; 'I' for Inactive)
REMARK    1  A    between atoms: C_2  and  C_3 
REMARK    2  A    between atoms: C_4  and  C_5 
REMARK    3  A    between atoms: C_5  and  C_7 
REMARK    4  A    between atoms: C_11  and  O_12 
REMARK    5  A    between atoms: C_20  and  S_23 
REMARK    6  A    between atoms: S_23  and  N_26 
REMARK    7  A    between atoms: N_26  and  C_27 
REMARK    8  A    between atoms: C_30  and  S_33 
REMARK    9  A    between atoms: S_33  and  N_34 
ROOT
HETATM    1  C   UNK N   1      21.988  18.565   3.716  0.00  0.00     0.068 A 
HETATM    2  C   UNK N   1      22.304  17.306   4.280  0.00  0.00     0.058 A 
HETATM    3  C   UNK N   1      23.665  17.381   4.538  0.00  0.00     0.015 A 
HETATM    4  C   UNK N   1      24.080  18.616   4.112  0.00  0.00     0.088 A 
HETATM    5  O   UNK N   1      23.075  19.297   3.633  0.00  0.00    -0.313 OA
HETATM    6  C   UNK N   1      25.385  19.048   4.215  0.00  0.00     0.063 A 
HETATM    7  C   UNK N   1      26.321  18.175   4.774  0.00  0.00     0.082 A 
HETATM    8  C   UNK N   1      25.920  16.891   5.225  0.00  0.00     0.026 A 
HETATM    9  C   UNK N   1      24.572  16.479   5.105  0.00  0.00     0.017 A 
ENDROOT
BRANCH   7  10
HETATM   10  S   UNK N   1      28.005  18.739   4.959  0.00  0.00     0.263 S 
HETATM   11  O   UNK N   1      28.212  20.204   4.543  0.00  0.00    -0.200 OA
HETATM   12  O   UNK N   1      28.490  18.736   6.417  0.00  0.00    -0.200 OA
BRANCH  10  13
HETATM   13  N   UNK N   1      29.200  17.804   4.077  0.00  0.00    -0.281 N 
HETATM   14  H   UNK N   1      29.076  17.586   3.125  0.00  0.00     0.179 HD
BRANCH  13  15
HETATM   15  C   UNK N   1      30.339  17.378   4.779  0.00  0.00     0.042 A 
HETATM   16  C   UNK N   1      30.196  16.864   6.069  0.00  0.00     0.031 A 
HETATM   17  C   UNK N   1      31.315  16.689   6.878  0.00  0.00     0.027 A 
HETATM   18  C   UNK N   1      32.580  17.033   6.402  0.00  0.00     0.079 A 
HETATM   19  C   UNK N   1      32.732  17.522   5.100  0.00  0.00     0.027 A 
HETATM   20  C   UNK N   1      31.610  17.689   4.284  0.00  0.00     0.031 A 
BRANCH  18  21
HETATM   21  S   UNK N   1      33.911  17.204   7.572  0.00  0.00     0.256 S 
HETATM   22  O   UNK N   1      35.002  16.241   7.090  0.00  0.00    -0.201 OA
HETATM   23  O   UNK N   1      34.673  18.536   7.502  0.00  0.00    -0.201 OA
BRANCH  21  24
HETATM   24  N   UNK N   1      33.749  16.780   9.276  0.00  0.00    -0.324 N 
HETATM   25  H   UNK N   1      32.941  16.761   9.900  0.00  0.00     0.169 HD
HETATM   26  H   UNK N   1      34.623  16.501   9.720  0.00  0.00     0.169 HD
ENDBRANCH  21  24
ENDBRANCH  18  21
ENDBRANCH  13  15
ENDBRANCH  10  13
ENDBRANCH   7  10
BRANCH   2  27
HETATM   27  C   UNK N   1      21.398  16.154   4.603  0.00  0.00     0.195 C 
HETATM   28  O   UNK N   1      20.958  15.475   3.684  0.00  0.00    -0.287 OA
BRANCH  27  29
HETATM   29  C   UNK N   1      21.049  15.775   6.000  0.00  0.00     0.018 A 
HETATM   30  C   UNK N   1      20.164  16.557   6.756  0.00  0.00     0.037 A 
HETATM   31  C   UNK N   1      19.772  16.141   8.037  0.00  0.00     0.046 A 
HETATM   32 Br   UNK N   1      18.505  17.184   9.014  0.00  0.00    -0.048 Br
HETATM   33  C   UNK N   1      20.285  14.950   8.578  0.00  0.00     0.100 A 
HETATM   34  C   UNK N   1      21.209  14.199   7.844  0.00  0.00     0.046 A 
HETATM   35 Br   UNK N   1      21.940  12.572   8.528  0.00  0.00    -0.048 Br
HETATM   36  C   UNK N   1      21.583  14.618   6.573  0.00  0.00     0.037 A 
BRANCH  33  37
HETATM   37  O   UNK N   1      19.892  14.531   9.794  0.00  0.00    -0.358 OA
HETATM   38  H   UNK N   1      20.462  14.632  10.531  0.00  0.00     0.217 HD
ENDBRANCH  33  37
ENDBRANCH  27  29
ENDBRANCH   2  27
BRANCH   1  39
HETATM   39  C   UNK N   1      20.647  19.107   3.333  0.00  0.00     0.061 C 
HETATM   40  C   UNK N   1      20.694  20.594   3.038  0.00  0.00     0.012 C 
ENDBRANCH   1  39
TORSDOF 9
ENDMDL
