MODEL 1
REMARK VINA RESULT:      -4.5      0.000      0.000
REMARK  6 active torsions:
REMARK  status: ('A' for Active; 'I' for Inactive)
REMARK    1  A    between atoms: C_4  and  C_2 
REMARK    2  A    between atoms: S_10  and  C_2 
REMARK    3  A    between atoms: S_10  and  C_3 
REMARK    4  A    between atoms: C_5  and  C_4 
REMARK    5  A    between atoms: C_4  and  N_6 
REMARK    6  A    between atoms: O_9  and  C_5 
ROOT
HETATM    1  C   UNK N   1      20.650  19.438   2.150  0.00  0.00     0.183 C 
ENDROOT
BRANCH   1   2
HETATM    2  C   UNK N   1      21.317  19.806   3.472  0.00  0.00     0.117 C 
BRANCH   2   3
HETATM    3  S   UNK N   1      22.893  18.910   3.694  0.00  0.00    -0.090 SA
BRANCH   3   4
HETATM    4  C   UNK N   1      23.922  20.310   3.232  0.00  0.00     0.182 C 
HETATM    5  C   UNK N   1      25.405  20.176   3.145  0.00  0.00     0.104 C 
HETATM    6  O   UNK N   1      23.397  21.376   2.956  0.00  0.00    -0.286 OA
ENDBRANCH   3   4
ENDBRANCH   2   3
ENDBRANCH   1   2
BRANCH   1   7
HETATM    7  C   UNK N   1      20.786  20.560   1.147  0.00  0.00     0.163 C 
HETATM    8  O   UNK N   1      20.855  20.320  -0.049  0.00  0.00    -0.648 OA
BRANCH   7   9
HETATM    9  O   UNK N   1      20.841  21.838   1.569  0.00  0.00    -0.775 OA
HETATM   10  H   UNK N   1      20.109  22.310   1.913  0.00  0.00     0.167 HD
ENDBRANCH   7   9
ENDBRANCH   1   7
BRANCH   1  11
HETATM   11  N   UNK N   1      19.245  19.156   2.403  0.00  0.00    -0.417 N 
HETATM   12  H   UNK N   1      18.890  18.507   3.104  0.00  0.00     0.150 HD
HETATM   13  H   UNK N   1      18.558  19.649   1.832  0.00  0.00     0.150 HD
ENDBRANCH   1  11
TORSDOF 6
ENDMDL
MODEL 2
REMARK VINA RESULT:      -4.3     12.045     13.797
REMARK  6 active torsions:
REMARK  status: ('A' for Active; 'I' for Inactive)
REMARK    1  A    between atoms: C_4  and  C_2 
REMARK    2  A    between atoms: S_10  and  C_2 
REMARK    3  A    between atoms: S_10  and  C_3 
REMARK    4  A    between atoms: C_5  and  C_4 
REMARK    5  A    between atoms: C_4  and  N_6 
REMARK    6  A    between atoms: O_9  and  C_5 
ROOT
HETATM    1  C   UNK N   1      34.119  17.253   9.125  0.00  0.00     0.183 C 
ENDROOT
BRANCH   1   2
HETATM    2  C   UNK N   1      34.066  15.864   8.493  0.00  0.00     0.117 C 
BRANCH   2   3
HETATM    3  S   UNK N   1      32.417  15.105   8.690  0.00  0.00    -0.090 SA
BRANCH   3   4
HETATM    4  C   UNK N   1      31.596  16.252   7.576  0.00  0.00     0.182 C 
HETATM    5  C   UNK N   1      30.458  17.095   8.046  0.00  0.00     0.104 C 
HETATM    6  O   UNK N   1      31.994  16.363   6.428  0.00  0.00    -0.286 OA
ENDBRANCH   3   4
ENDBRANCH   2   3
ENDBRANCH   1   2
BRANCH   1   7
HETATM    7  C   UNK N   1      34.667  18.268   8.150  0.00  0.00     0.163 C 
HETATM    8  O   UNK N   1      35.290  19.240   8.548  0.00  0.00    -0.648 OA
BRANCH   7   9
HETATM    9  O   UNK N   1      34.463  18.110   6.828  0.00  0.00    -0.775 OA
HETATM   10  H   UNK N   1      33.626  18.177   6.412  0.00  0.00     0.167 HD
ENDBRANCH   7   9
ENDBRANCH   1   7
BRANCH   1  11
HETATM   11  N   UNK N   1      34.957  17.190  10.312  0.00  0.00    -0.417 N 
HETATM   12  H   UNK N   1      34.968  16.427  10.988  0.00  0.00     0.150 HD
HETATM   13  H   UNK N   1      35.588  17.974  10.482  0.00  0.00     0.150 HD
ENDBRANCH   1  11
TORSDOF 6
ENDMDL
MODEL 3
REMARK VINA RESULT:      -4.3      2.160      2.706
REMARK  6 active torsions:
REMARK  status: ('A' for Active; 'I' for Inactive)
REMARK    1  A    between atoms: C_4  and  C_2 
REMARK    2  A    between atoms: S_10  and  C_2 
REMARK    3  A    between atoms: S_10  and  C_3 
REMARK    4  A    between atoms: C_5  and  C_4 
REMARK    5  A    between atoms: C_4  and  N_6 
REMARK    6  A    between atoms: O_9  and  C_5 
ROOT
HETATM    1  C   UNK N   1      19.880  17.499   2.205  0.00  0.00     0.183 C 
ENDROOT
BRANCH   1   2
HETATM    2  C   UNK N   1      21.061  17.985   3.041  0.00  0.00     0.117 C 
BRANCH   2   3
HETATM    3  S   UNK N   1      20.817  19.707   3.599  0.00  0.00    -0.090 SA
BRANCH   3   4
HETATM    4  C   UNK N   1      22.011  20.403   2.450  0.00  0.00     0.182 C 
HETATM    5  C   UNK N   1      23.436  20.596   2.849  0.00  0.00     0.104 C 
HETATM    6  O   UNK N   1      21.658  20.693   1.319  0.00  0.00    -0.286 OA
ENDBRANCH   3   4
ENDBRANCH   2   3
ENDBRANCH   1   2
BRANCH   1   7
HETATM    7  C   UNK N   1      20.300  17.242   0.777  0.00  0.00     0.163 C 
HETATM    8  O   UNK N   1      20.591  16.114   0.408  0.00  0.00    -0.648 OA
BRANCH   7   9
HETATM    9  O   UNK N   1      20.365  18.261  -0.101  0.00  0.00    -0.775 OA
HETATM   10  H   UNK N   1      20.888  19.029   0.022  0.00  0.00     0.167 HD
ENDBRANCH   7   9
ENDBRANCH   1   7
BRANCH   1  11
HETATM   11  N   UNK N   1      18.835  18.510   2.248  0.00  0.00    -0.417 N 
HETATM   12  H   UNK N   1      17.836  18.324   2.337  0.00  0.00     0.150 HD
HETATM   13  H   UNK N   1      19.124  19.487   2.185  0.00  0.00     0.150 HD
ENDBRANCH   1  11
TORSDOF 6
ENDMDL
MODEL 4
REMARK VINA RESULT:      -4.2     14.173     15.476
REMARK  6 active torsions:
REMARK  status: ('A' for Active; 'I' for Inactive)
REMARK    1  A    between atoms: C_4  and  C_2 
REMARK    2  A    between atoms: S_10  and  C_2 
REMARK    3  A    between atoms: S_10  and  C_3 
REMARK    4  A    between atoms: C_5  and  C_4 
REMARK    5  A    between atoms: C_4  and  N_6 
REMARK    6  A    between atoms: O_9  and  C_5 
ROOT
HETATM    1  C   UNK N   1      34.350  16.926   8.890  0.00  0.00     0.183 C 
ENDROOT
BRANCH   1   2
HETATM    2  C   UNK N   1      35.238  16.892  10.131  0.00  0.00     0.117 C 
BRANCH   2   3
HETATM    3  S   UNK N   1      36.114  15.296  10.279  0.00  0.00    -0.090 SA
BRANCH   3   4
HETATM    4  C   UNK N   1      35.062  14.676  11.597  0.00  0.00     0.182 C 
HETATM    5  C   UNK N   1      35.650  14.143  12.861  0.00  0.00     0.104 C 
HETATM    6  O   UNK N   1      33.849  14.718  11.469  0.00  0.00    -0.286 OA
ENDBRANCH   3   4
ENDBRANCH   2   3
ENDBRANCH   1   2
BRANCH   1   7
HETATM    7  C   UNK N   1      34.665  18.131   8.035  0.00  0.00     0.163 C 
HETATM    8  O   UNK N   1      35.212  19.111   8.518  0.00  0.00    -0.648 OA
BRANCH   7   9
HETATM    9  O   UNK N   1      34.335  18.135   6.729  0.00  0.00    -0.775 OA
HETATM   10  H   UNK N   1      34.728  18.694   6.088  0.00  0.00     0.167 HD
ENDBRANCH   7   9
ENDBRANCH   1   7
BRANCH   1  11
HETATM   11  N   UNK N   1      32.960  16.960   9.316  0.00  0.00    -0.417 N 
HETATM   12  H   UNK N   1      32.539  17.679   9.904  0.00  0.00     0.150 HD
HETATM   13  H   UNK N   1      32.354  16.202   9.000  0.00  0.00     0.150 HD
ENDBRANCH   1  11
TORSDOF 6
ENDMDL
MODEL 5
REMARK VINA RESULT:      -4.2      2.515      2.952
REMARK  6 active torsions:
REMARK  status: ('A' for Active; 'I' for Inactive)
REMARK    1  A    between atoms: C_4  and  C_2 
REMARK    2  A    between atoms: S_10  and  C_2 
REMARK    3  A    between atoms: S_10  and  C_3 
REMARK    4  A    between atoms: C_5  and  C_4 
REMARK    5  A    between atoms: C_4  and  N_6 
REMARK    6  A    between atoms: O_9  and  C_5 
ROOT
HETATM    1  C   UNK N   1      20.660  19.321   2.543  0.00  0.00     0.183 C 
ENDROOT
BRANCH   1   2
HETATM    2  C   UNK N   1      20.955  19.355   4.040  0.00  0.00     0.117 C 
BRANCH   2   3
HETATM    3  S   UNK N   1      22.439  18.371   4.449  0.00  0.00    -0.090 SA
BRANCH   3   4
HETATM    4  C   UNK N   1      21.818  17.830   6.046  0.00  0.00     0.182 C 
HETATM    5  C   UNK N   1      21.961  16.410   6.483  0.00  0.00     0.104 C 
HETATM    6  O   UNK N   1      21.298  18.641   6.795  0.00  0.00    -0.286 OA
ENDBRANCH   3   4
ENDBRANCH   2   3
ENDBRANCH   1   2
BRANCH   1   7
HETATM    7  C   UNK N   1      21.166  20.572   1.865  0.00  0.00     0.163 C 
HETATM    8  O   UNK N   1      21.312  20.607   0.652  0.00  0.00    -0.648 OA
BRANCH   7   9
HETATM    9  O   UNK N   1      21.471  21.660   2.598  0.00  0.00    -0.775 OA
HETATM   10  H   UNK N   1      21.283  21.748   3.512  0.00  0.00     0.167 HD
ENDBRANCH   7   9
ENDBRANCH   1   7
BRANCH   1  11
HETATM   11  N   UNK N   1      19.223  19.193   2.357  0.00  0.00    -0.417 N 
HETATM   12  H   UNK N   1      18.668  18.371   2.594  0.00  0.00     0.150 HD
HETATM   13  H   UNK N   1      18.729  19.991   1.957  0.00  0.00     0.150 HD
ENDBRANCH   1  11
TORSDOF 6
ENDMDL
MODEL 6
REMARK VINA RESULT:      -4.2     14.295     15.372
REMARK  6 active torsions:
REMARK  status: ('A' for Active; 'I' for Inactive)
REMARK    1  A    between atoms: C_4  and  C_2 
REMARK    2  A    between atoms: S_10  and  C_2 
REMARK    3  A    between atoms: S_10  and  C_3 
REMARK    4  A    between atoms: C_5  and  C_4 
REMARK    5  A    between atoms: C_4  and  N_6 
REMARK    6  A    between atoms: O_9  and  C_5 
ROOT
HETATM    1  C   UNK N   1      34.366  17.146   9.187  0.00  0.00     0.183 C 
ENDROOT
BRANCH   1   2
HETATM    2  C   UNK N   1      34.740  15.770   8.642  0.00  0.00     0.117 C 
BRANCH   2   3
HETATM    3  S   UNK N   1      33.535  14.499   9.161  0.00  0.00    -0.090 SA
BRANCH   3   4
HETATM    4  C   UNK N   1      34.477  13.986  10.603  0.00  0.00     0.182 C 
HETATM    5  C   UNK N   1      35.473  12.879  10.515  0.00  0.00     0.104 C 
HETATM    6  O   UNK N   1      34.320  14.572  11.662  0.00  0.00    -0.286 OA
ENDBRANCH   3   4
ENDBRANCH   2   3
ENDBRANCH   1   2
BRANCH   1   7
HETATM    7  C   UNK N   1      34.723  18.231   8.199  0.00  0.00     0.163 C 
HETATM    8  O   UNK N   1      35.294  19.246   8.569  0.00  0.00    -0.648 OA
BRANCH   7   9
HETATM    9  O   UNK N   1      34.404  18.090   6.898  0.00  0.00    -0.775 OA
HETATM   10  H   UNK N   1      33.528  18.090   6.568  0.00  0.00     0.167 HD
ENDBRANCH   7   9
ENDBRANCH   1   7
BRANCH   1  11
HETATM   11  N   UNK N   1      35.072  17.355  10.442  0.00  0.00    -0.417 N 
HETATM   12  H   UNK N   1      35.936  17.884  10.553  0.00  0.00     0.150 HD
HETATM   13  H   UNK N   1      34.668  16.938  11.281  0.00  0.00     0.150 HD
ENDBRANCH   1  11
TORSDOF 6
ENDMDL
MODEL 7
REMARK VINA RESULT:      -4.1     11.026     12.019
REMARK  6 active torsions:
REMARK  status: ('A' for Active; 'I' for Inactive)
REMARK    1  A    between atoms: C_4  and  C_2 
REMARK    2  A    between atoms: S_10  and  C_2 
REMARK    3  A    between atoms: S_10  and  C_3 
REMARK    4  A    between atoms: C_5  and  C_4 
REMARK    5  A    between atoms: C_4  and  N_6 
REMARK    6  A    between atoms: O_9  and  C_5 
ROOT
HETATM    1  C   UNK N   1      23.760  11.801  10.938  0.00  0.00     0.183 C 
ENDROOT
BRANCH   1   2
HETATM    2  C   UNK N   1      22.707  11.802   9.832  0.00  0.00     0.117 C 
BRANCH   2   3
HETATM    3  S   UNK N   1      22.600  13.433   9.016  0.00  0.00    -0.090 SA
BRANCH   3   4
HETATM    4  C   UNK N   1      20.925  13.764   9.574  0.00  0.00     0.182 C 
HETATM    5  C   UNK N   1      20.220  15.019   9.180  0.00  0.00     0.104 C 
HETATM    6  O   UNK N   1      20.345  12.938  10.260  0.00  0.00    -0.286 OA
ENDBRANCH   3   4
ENDBRANCH   2   3
ENDBRANCH   1   2
BRANCH   1   7
HETATM    7  C   UNK N   1      23.111  11.874  12.300  0.00  0.00     0.163 C 
HETATM    8  O   UNK N   1      23.778  12.114  13.294  0.00  0.00    -0.648 OA
BRANCH   7   9
HETATM    9  O   UNK N   1      21.786  11.665  12.427  0.00  0.00    -0.775 OA
HETATM   10  H   UNK N   1      21.137  12.047  11.870  0.00  0.00     0.167 HD
ENDBRANCH   7   9
ENDBRANCH   1   7
BRANCH   1  11
HETATM   11  N   UNK N   1      24.642  12.940  10.738  0.00  0.00    -0.417 N 
HETATM   12  H   UNK N   1      25.231  13.095   9.920  0.00  0.00     0.150 HD
HETATM   13  H   UNK N   1      24.674  13.644  11.476  0.00  0.00     0.150 HD
ENDBRANCH   1  11
TORSDOF 6
ENDMDL
MODEL 8
REMARK VINA RESULT:      -4.1     16.543     17.742
REMARK  6 active torsions:
REMARK  status: ('A' for Active; 'I' for Inactive)
REMARK    1  A    between atoms: C_4  and  C_2 
REMARK    2  A    between atoms: S_10  and  C_2 
REMARK    3  A    between atoms: S_10  and  C_3 
REMARK    4  A    between atoms: C_5  and  C_4 
REMARK    5  A    between atoms: C_4  and  N_6 
REMARK    6  A    between atoms: O_9  and  C_5 
ROOT
HETATM    1  C   UNK N   1      34.984  14.775  11.061  0.00  0.00     0.183 C 
ENDROOT
BRANCH   1   2
HETATM    2  C   UNK N   1      35.291  14.104  12.398  0.00  0.00     0.117 C 
BRANCH   2   3
HETATM    3  S   UNK N   1      35.229  12.284  12.259  0.00  0.00    -0.090 SA
BRANCH   3   4
HETATM    4  C   UNK N   1      34.495  12.040  13.881  0.00  0.00     0.182 C 
HETATM    5  C   UNK N   1      33.854  10.743  14.245  0.00  0.00     0.104 C 
HETATM    6  O   UNK N   1      34.548  12.938  14.706  0.00  0.00    -0.286 OA
ENDBRANCH   3   4
ENDBRANCH   2   3
ENDBRANCH   1   2
BRANCH   1   7
HETATM    7  C   UNK N   1      35.760  16.062  10.913  0.00  0.00     0.163 C 
HETATM    8  O   UNK N   1      35.178  17.129  10.795  0.00  0.00    -0.648 OA
BRANCH   7   9
HETATM    9  O   UNK N   1      37.107  16.038  10.900  0.00  0.00    -0.775 OA
HETATM   10  H   UNK N   1      37.619  15.528  10.305  0.00  0.00     0.167 HD
ENDBRANCH   7   9
ENDBRANCH   1   7
BRANCH   1  11
HETATM   11  N   UNK N   1      33.554  15.038  10.994  0.00  0.00    -0.417 N 
HETATM   12  H   UNK N   1      32.899  14.579  10.362  0.00  0.00     0.150 HD
HETATM   13  H   UNK N   1      33.176  15.739  11.631  0.00  0.00     0.150 HD
ENDBRANCH   1  11
TORSDOF 6
ENDMDL
MODEL 9
REMARK VINA RESULT:      -4.0      2.597      4.238
REMARK  6 active torsions:
REMARK  status: ('A' for Active; 'I' for Inactive)
REMARK    1  A    between atoms: C_4  and  C_2 
REMARK    2  A    between atoms: S_10  and  C_2 
REMARK    3  A    between atoms: S_10  and  C_3 
REMARK    4  A    between atoms: C_5  and  C_4 
REMARK    5  A    between atoms: C_4  and  N_6 
REMARK    6  A    between atoms: O_9  and  C_5 
ROOT
HETATM    1  C   UNK N   1      20.443  19.547   2.960  0.00  0.00     0.183 C 
ENDROOT
BRANCH   1   2
HETATM    2  C   UNK N   1      19.525  18.435   2.459  0.00  0.00     0.117 C 
BRANCH   2   3
HETATM    3  S   UNK N   1      20.401  16.834   2.382  0.00  0.00    -0.090 SA
BRANCH   3   4
HETATM    4  C   UNK N   1      19.988  16.525   0.660  0.00  0.00     0.182 C 
HETATM    5  C   UNK N   1      19.165  15.344   0.270  0.00  0.00     0.104 C 
HETATM    6  O   UNK N   1      20.362  17.309  -0.197  0.00  0.00    -0.286 OA
ENDBRANCH   3   4
ENDBRANCH   2   3
ENDBRANCH   1   2
BRANCH   1   7
HETATM    7  C   UNK N   1      20.984  20.360   1.808  0.00  0.00     0.163 C 
HETATM    8  O   UNK N   1      21.700  21.327   2.011  0.00  0.00    -0.648 OA
BRANCH   7   9
HETATM    9  O   UNK N   1      20.669  20.026   0.541  0.00  0.00    -0.775 OA
HETATM   10  H   UNK N   1      21.248  19.581  -0.045  0.00  0.00     0.167 HD
ENDBRANCH   7   9
ENDBRANCH   1   7
BRANCH   1  11
HETATM   11  N   UNK N   1      21.535  18.944   3.708  0.00  0.00    -0.417 N 
HETATM   12  H   UNK N   1      22.421  19.398   3.929  0.00  0.00     0.150 HD
HETATM   13  H   UNK N   1      21.404  17.988   4.040  0.00  0.00     0.150 HD
ENDBRANCH   1  11
TORSDOF 6
ENDMDL
