MODEL 1
REMARK VINA RESULT:      -5.6      0.000      0.000
REMARK WARNING: 32 MAX_TORS EXCEEDED!!!
REMARK  40 active torsions:
REMARK  status: ('A' for Active; 'I' for Inactive)
REMARK    1  A    between atoms: C_2  and  C_1 
REMARK    2  A    between atoms: C_1  and  O_4 
REMARK    3  A    between atoms: C_3  and  C_2 
REMARK    4  A    between atoms: C_2  and  O_6 
REMARK    5  A    between atoms: C_3  and  O_5 
REMARK    6  A    between atoms: O_4  and  P_7 
REMARK    7  A    between atoms: C_32  and  O_5 
REMARK    8  A    between atoms: O_6  and  C_51 
REMARK    9  A    between atoms: P_7  and  O_10 
REMARK   10  A    between atoms: O_10  and  C_11 
REMARK   11  A    between atoms: C_11  and  C_12 
REMARK   12  A    between atoms: C_12  and  N_13 
REMARK   13  A    between atoms: C_18  and  C_19 
REMARK   14  A    between atoms: C_19  and  C_20 
REMARK   15  A    between atoms: C_20  and  C_21 
REMARK   16  A    between atoms: C_21  and  C_22 
REMARK   17  A    between atoms: C_22  and  C_23 
REMARK   18  A    between atoms: C_23  and  C_24 
REMARK   19  A    between atoms: C_24  and  C_25 
REMARK   20  A    between atoms: C_25  and  C_26 
REMARK   21  A    between atoms: C_26  and  C_27 
REMARK   22  A    between atoms: C_27  and  C_28 
REMARK   23  A    between atoms: C_28  and  C_29 
REMARK   24  A    between atoms: C_29  and  C_30 
REMARK   25  A    between atoms: C_30  and  C_31 
REMARK   26  A    between atoms: C_31  and  C_32 
REMARK   27  A    between atoms: C_36  and  C_35 
REMARK   28  A    between atoms: C_37  and  C_36 
REMARK   29  A    between atoms: C_38  and  C_37 
REMARK   30  A    between atoms: C_39  and  C_38 
REMARK   31  A    between atoms: C_41  and  C_40 
REMARK   32  A    between atoms: C_42  and  C_41 
REMARK   33  A    between atoms: C_44  and  C_43 
REMARK   34  A    between atoms: C_45  and  C_44 
REMARK   35  A    between atoms: C_46  and  C_45 
REMARK   36  A    between atoms: C_47  and  C_46 
REMARK   37  A    between atoms: C_48  and  C_47 
REMARK   38  A    between atoms: C_49  and  C_48 
REMARK   39  A    between atoms: C_50  and  C_49 
REMARK   40  A    between atoms: C_51  and  C_50 
ROOT
HETATM    1  C   UNK N   1      21.017  19.202   3.400  0.00  0.00     0.180 C 
ENDROOT
BRANCH   1   2
HETATM    2  C   UNK N   1      20.542  18.265   4.510  0.00  0.00     0.216 C 
BRANCH   2   3
HETATM    3  O   UNK N   1      21.587  17.550   5.091  0.00  0.00    -0.287 OA
BRANCH   3   4
HETATM    4  P   UNK N   1      20.910  16.935   6.571  0.00  0.00     0.408 P 
HETATM    5  O   UNK N   1      19.287  16.355   6.356  0.00  0.00    -0.624 OA
HETATM    6  O   UNK N   1      20.801  18.147   7.533  0.00  0.00    -0.624 OA
BRANCH   4   7
HETATM    7  O   UNK N   1      21.939  15.778   7.371  0.00  0.00    -0.288 OA
BRANCH   7   8
HETATM    8  C   UNK N   1      21.074  14.811   7.888  0.00  0.00     0.209 C 
BRANCH   8   9
HETATM    9  C   UNK N   1      21.436  14.470   9.334  0.00  0.00     0.262 C 
BRANCH   9  10
HETATM   10  N   UNK N   1      21.962  13.112   9.509  0.00  0.00    -0.077 N 
HETATM   11  C   UNK N   1      21.777  12.281   8.325  0.00  0.00     0.271 C 
HETATM   12  C   UNK N   1      23.386  13.213   9.763  0.00  0.00     0.271 C 
HETATM   13  C   UNK N   1      21.344  12.470  10.656  0.00  0.00     0.271 C 
ENDBRANCH   9  10
ENDBRANCH   8   9
ENDBRANCH   7   8
ENDBRANCH   4   7
ENDBRANCH   3   4
ENDBRANCH   2   3
ENDBRANCH   1   2
BRANCH   1  14
HETATM   14  C   UNK N   1      20.419  18.849   2.040  0.00  0.00     0.213 C 
BRANCH  14  15
HETATM   15  O   UNK N   1      20.075  17.516   1.935  0.00  0.00    -0.319 OA
BRANCH  15  16
HETATM   16  C   UNK N   1      20.143  16.839   0.768  0.00  0.00     0.258 C 
HETATM   17  O   UNK N   1      20.428  17.443  -0.257  0.00  0.00    -0.265 OA
BRANCH  16  18
HETATM   18  C   UNK N   1      19.873  15.367   0.708  0.00  0.00     0.111 C 
BRANCH  18  19
HETATM   19  C   UNK N   1      21.076  14.559   1.184  0.00  0.00     0.010 C 
BRANCH  19  20
HETATM   20  C   UNK N   1      21.527  14.907   2.606  0.00  0.00     0.000 C 
BRANCH  20  21
HETATM   21  C   UNK N   1      23.042  14.857   2.794  0.00  0.00     0.000 C 
BRANCH  21  22
HETATM   22  C   UNK N   1      23.596  13.498   2.421  0.00  0.00     0.000 C 
BRANCH  22  23
HETATM   23  C   UNK N   1      24.830  13.659   1.551  0.00  0.00     0.000 C 
BRANCH  23  24
HETATM   24  C   UNK N   1      26.042  14.041   2.389  0.00  0.00     0.000 C 
BRANCH  24  25
HETATM   25  C   UNK N   1      26.623  15.390   1.983  0.00  0.00     0.000 C 
BRANCH  25  26
HETATM   26  C   UNK N   1      26.505  16.403   3.108  0.00  0.00     0.000 C 
BRANCH  26  27
HETATM   27  C   UNK N   1      26.663  15.712   4.451  0.00  0.00     0.000 C 
BRANCH  27  28
HETATM   28  C   UNK N   1      25.640  16.248   5.437  0.00  0.00     0.000 C 
BRANCH  28  29
HETATM   29  C   UNK N   1      25.405  15.242   6.549  0.00  0.00     0.000 C 
BRANCH  29  30
HETATM   30  C   UNK N   1      24.575  14.083   6.033  0.00  0.00    -0.000 C 
BRANCH  30  31
HETATM   31  C   UNK N   1      25.176  12.765   6.479  0.00  0.00    -0.005 C 
HETATM   32  C   UNK N   1      25.593  11.942   5.277  0.00  0.00     0.005 C 
ENDBRANCH  30  31
ENDBRANCH  29  30
ENDBRANCH  28  29
ENDBRANCH  27  28
ENDBRANCH  26  27
ENDBRANCH  25  26
ENDBRANCH  24  25
ENDBRANCH  23  24
ENDBRANCH  22  23
ENDBRANCH  21  22
ENDBRANCH  20  21
ENDBRANCH  19  20
ENDBRANCH  18  19
ENDBRANCH  16  18
ENDBRANCH  15  16
ENDBRANCH  14  15
ENDBRANCH   1  14
BRANCH   1  33
HETATM   33  O   UNK N   1      22.396  19.293   3.325  0.00  0.00    -0.312 OA
BRANCH  33  34
HETATM   34  C   UNK N   1      23.061  20.425   2.987  0.00  0.00     0.259 C 
HETATM   35  O   UNK N   1      22.448  21.460   2.714  0.00  0.00    -0.265 OA
BRANCH  34  36
HETATM   36  C   UNK N   1      24.537  20.426   2.874  0.00  0.00     0.111 C 
BRANCH  36  37
HETATM   37  C   UNK N   1      25.131  19.634   4.033  0.00  0.00     0.010 C 
BRANCH  37  38
HETATM   38  C   UNK N   1      26.472  20.204   4.462  0.00  0.00     0.000 C 
BRANCH  38  39
HETATM   39  C   UNK N   1      26.532  20.320   5.974  0.00  0.00     0.000 C 
BRANCH  39  40
HETATM   40  C   UNK N   1      27.904  19.880   6.461  0.00  0.00     0.000 C 
BRANCH  40  41
HETATM   41  C   UNK N   1      28.418  18.676   5.690  0.00  0.00     0.004 C 
BRANCH  41  42
HETATM   42  C   UNK N   1      28.960  17.605   6.628  0.00  0.00     0.027 C 
BRANCH  42  43
HETATM   43  C   UNK N   1      29.254  18.190   7.974  0.00  0.00    -0.030 C 
HETATM   44  C   UNK N   1      30.359  17.881   8.652  0.00  0.00    -0.027 C 
BRANCH  44  45
HETATM   45  C   UNK N   1      31.414  16.978   8.083  0.00  0.00     0.053 C 
BRANCH  45  46
HETATM   46  C   UNK N   1      32.657  17.749   7.766  0.00  0.00    -0.027 C 
HETATM   47  C   UNK N   1      33.277  17.670   6.582  0.00  0.00    -0.030 C 
BRANCH  47  48
HETATM   48  C   UNK N   1      32.776  16.797   5.471  0.00  0.00     0.027 C 
BRANCH  48  49
HETATM   49  C   UNK N   1      32.033  17.622   4.434  0.00  0.00     0.004 C 
BRANCH  49  50
HETATM   50  C   UNK N   1      31.809  16.825   3.160  0.00  0.00    -0.000 C 
BRANCH  50  51
HETATM   51  C   UNK N   1      30.365  16.379   3.053  0.00  0.00    -0.005 C 
HETATM   52  C   UNK N   1      30.270  14.903   3.369  0.00  0.00     0.005 C 
ENDBRANCH  50  51
ENDBRANCH  49  50
ENDBRANCH  48  49
ENDBRANCH  47  48
ENDBRANCH  45  46
ENDBRANCH  44  45
ENDBRANCH  42  43
ENDBRANCH  41  42
ENDBRANCH  40  41
ENDBRANCH  39  40
ENDBRANCH  38  39
ENDBRANCH  37  38
ENDBRANCH  36  37
ENDBRANCH  34  36
ENDBRANCH  33  34
ENDBRANCH   1  33
TORSDOF 40
ENDMDL
MODEL 2
REMARK VINA RESULT:      -5.5      1.369      2.320
REMARK WARNING: 32 MAX_TORS EXCEEDED!!!
REMARK  40 active torsions:
REMARK  status: ('A' for Active; 'I' for Inactive)
REMARK    1  A    between atoms: C_2  and  C_1 
REMARK    2  A    between atoms: C_1  and  O_4 
REMARK    3  A    between atoms: C_3  and  C_2 
REMARK    4  A    between atoms: C_2  and  O_6 
REMARK    5  A    between atoms: C_3  and  O_5 
REMARK    6  A    between atoms: O_4  and  P_7 
REMARK    7  A    between atoms: C_32  and  O_5 
REMARK    8  A    between atoms: O_6  and  C_51 
REMARK    9  A    between atoms: P_7  and  O_10 
REMARK   10  A    between atoms: O_10  and  C_11 
REMARK   11  A    between atoms: C_11  and  C_12 
REMARK   12  A    between atoms: C_12  and  N_13 
REMARK   13  A    between atoms: C_18  and  C_19 
REMARK   14  A    between atoms: C_19  and  C_20 
REMARK   15  A    between atoms: C_20  and  C_21 
REMARK   16  A    between atoms: C_21  and  C_22 
REMARK   17  A    between atoms: C_22  and  C_23 
REMARK   18  A    between atoms: C_23  and  C_24 
REMARK   19  A    between atoms: C_24  and  C_25 
REMARK   20  A    between atoms: C_25  and  C_26 
REMARK   21  A    between atoms: C_26  and  C_27 
REMARK   22  A    between atoms: C_27  and  C_28 
REMARK   23  A    between atoms: C_28  and  C_29 
REMARK   24  A    between atoms: C_29  and  C_30 
REMARK   25  A    between atoms: C_30  and  C_31 
REMARK   26  A    between atoms: C_31  and  C_32 
REMARK   27  A    between atoms: C_36  and  C_35 
REMARK   28  A    between atoms: C_37  and  C_36 
REMARK   29  A    between atoms: C_38  and  C_37 
REMARK   30  A    between atoms: C_39  and  C_38 
REMARK   31  A    between atoms: C_41  and  C_40 
REMARK   32  A    between atoms: C_42  and  C_41 
REMARK   33  A    between atoms: C_44  and  C_43 
REMARK   34  A    between atoms: C_45  and  C_44 
REMARK   35  A    between atoms: C_46  and  C_45 
REMARK   36  A    between atoms: C_47  and  C_46 
REMARK   37  A    between atoms: C_48  and  C_47 
REMARK   38  A    between atoms: C_49  and  C_48 
REMARK   39  A    between atoms: C_50  and  C_49 
REMARK   40  A    between atoms: C_51  and  C_50 
ROOT
HETATM    1  C   UNK N   1      20.997  18.647   3.920  0.00  0.00     0.180 C 
ENDROOT
BRANCH   1   2
HETATM    2  C   UNK N   1      21.352  17.861   5.183  0.00  0.00     0.216 C 
BRANCH   2   3
HETATM    3  O   UNK N   1      21.427  16.488   4.955  0.00  0.00    -0.287 OA
BRANCH   3   4
HETATM    4  P   UNK N   1      21.239  15.786   6.535  0.00  0.00     0.408 P 
HETATM    5  O   UNK N   1      19.772  14.866   6.672  0.00  0.00    -0.624 OA
HETATM    6  O   UNK N   1      21.086  16.973   7.521  0.00  0.00    -0.624 OA
BRANCH   4   7
HETATM    7  O   UNK N   1      22.642  14.898   7.066  0.00  0.00    -0.288 OA
BRANCH   7   8
HETATM    8  C   UNK N   1      22.140  13.767   7.713  0.00  0.00     0.209 C 
BRANCH   8   9
HETATM    9  C   UNK N   1      22.524  13.767   9.193  0.00  0.00     0.262 C 
BRANCH   9  10
HETATM   10  N   UNK N   1      23.488  12.723   9.555  0.00  0.00    -0.077 N 
HETATM   11  C   UNK N   1      24.851  13.230   9.668  0.00  0.00     0.271 C 
HETATM   12  C   UNK N   1      23.105  12.188  10.848  0.00  0.00     0.271 C 
HETATM   13  C   UNK N   1      23.450  11.638   8.590  0.00  0.00     0.271 C 
ENDBRANCH   9  10
ENDBRANCH   8   9
ENDBRANCH   7   8
ENDBRANCH   4   7
ENDBRANCH   3   4
ENDBRANCH   2   3
ENDBRANCH   1   2
BRANCH   1  14
HETATM   14  C   UNK N   1      19.887  17.983   3.110  0.00  0.00     0.213 C 
BRANCH  14  15
HETATM   15  O   UNK N   1      20.063  18.117   1.748  0.00  0.00    -0.319 OA
BRANCH  15  16
HETATM   16  C   UNK N   1      20.085  17.056   0.912  0.00  0.00     0.258 C 
HETATM   17  O   UNK N   1      20.309  17.237  -0.277  0.00  0.00    -0.265 OA
BRANCH  16  18
HETATM   18  C   UNK N   1      19.836  15.666   1.414  0.00  0.00     0.111 C 
BRANCH  18  19
HETATM   19  C   UNK N   1      18.907  14.895   0.482  0.00  0.00     0.010 C 
BRANCH  19  20
HETATM   20  C   UNK N   1      18.975  13.376   0.665  0.00  0.00     0.000 C 
BRANCH  20  21
HETATM   21  C   UNK N   1      20.342  12.781   0.330  0.00  0.00     0.000 C 
BRANCH  21  22
HETATM   22  C   UNK N   1      20.921  12.038   1.515  0.00  0.00     0.000 C 
BRANCH  22  23
HETATM   23  C   UNK N   1      22.425  12.237   1.571  0.00  0.00     0.000 C 
BRANCH  23  24
HETATM   24  C   UNK N   1      22.885  13.220   0.504  0.00  0.00     0.000 C 
BRANCH  24  25
HETATM   25  C   UNK N   1      24.175  13.932   0.893  0.00  0.00     0.000 C 
BRANCH  25  26
HETATM   26  C   UNK N   1      25.164  12.975   1.534  0.00  0.00     0.000 C 
BRANCH  26  27
HETATM   27  C   UNK N   1      26.057  13.723   2.507  0.00  0.00     0.000 C 
BRANCH  27  28
HETATM   28  C   UNK N   1      26.366  15.110   1.972  0.00  0.00     0.000 C 
BRANCH  28  29
HETATM   29  C   UNK N   1      26.547  16.087   3.118  0.00  0.00     0.000 C 
BRANCH  29  30
HETATM   30  C   UNK N   1      25.214  16.710   3.484  0.00  0.00    -0.000 C 
BRANCH  30  31
HETATM   31  C   UNK N   1      25.032  16.722   4.988  0.00  0.00    -0.005 C 
HETATM   32  C   UNK N   1      25.993  15.752   5.643  0.00  0.00     0.005 C 
ENDBRANCH  30  31
ENDBRANCH  29  30
ENDBRANCH  28  29
ENDBRANCH  27  28
ENDBRANCH  26  27
ENDBRANCH  25  26
ENDBRANCH  24  25
ENDBRANCH  23  24
ENDBRANCH  22  23
ENDBRANCH  21  22
ENDBRANCH  20  21
ENDBRANCH  19  20
ENDBRANCH  18  19
ENDBRANCH  16  18
ENDBRANCH  15  16
ENDBRANCH  14  15
ENDBRANCH   1  14
BRANCH   1  33
HETATM   33  O   UNK N   1      22.098  18.914   3.125  0.00  0.00    -0.312 OA
BRANCH  33  34
HETATM   34  C   UNK N   1      22.808  20.067   3.180  0.00  0.00     0.259 C 
HETATM   35  O   UNK N   1      22.348  21.114   2.717  0.00  0.00    -0.265 OA
BRANCH  34  36
HETATM   36  C   UNK N   1      24.178  20.083   3.740  0.00  0.00     0.111 C 
BRANCH  36  37
HETATM   37  C   UNK N   1      25.167  20.451   2.641  0.00  0.00     0.010 C 
BRANCH  37  38
HETATM   38  C   UNK N   1      26.595  20.452   3.159  0.00  0.00     0.000 C 
BRANCH  38  39
HETATM   39  C   UNK N   1      26.610  20.176   4.651  0.00  0.00     0.000 C 
BRANCH  39  40
HETATM   40  C   UNK N   1      28.039  19.915   5.102  0.00  0.00     0.000 C 
BRANCH  40  41
HETATM   41  C   UNK N   1      28.463  18.481   4.835  0.00  0.00     0.004 C 
BRANCH  41  42
HETATM   42  C   UNK N   1      29.053  17.835   6.082  0.00  0.00     0.027 C 
BRANCH  42  43
HETATM   43  C   UNK N   1      28.256  18.210   7.292  0.00  0.00    -0.030 C 
HETATM   44  C   UNK N   1      28.826  18.399   8.482  0.00  0.00    -0.027 C 
BRANCH  44  45
HETATM   45  C   UNK N   1      30.312  18.313   8.673  0.00  0.00     0.053 C 
BRANCH  45  46
HETATM   46  C   UNK N   1      30.723  16.914   9.009  0.00  0.00    -0.027 C 
HETATM   47  C   UNK N   1      31.836  16.349   8.525  0.00  0.00    -0.030 C 
BRANCH  47  48
HETATM   48  C   UNK N   1      32.766  17.074   7.600  0.00  0.00     0.027 C 
BRANCH  48  49
HETATM   49  C   UNK N   1      32.587  16.592   6.172  0.00  0.00     0.004 C 
BRANCH  49  50
HETATM   50  C   UNK N   1      33.056  17.640   5.178  0.00  0.00    -0.000 C 
BRANCH  50  51
HETATM   51  C   UNK N   1      32.125  17.701   3.983  0.00  0.00    -0.005 C 
HETATM   52  C   UNK N   1      32.551  16.671   2.961  0.00  0.00     0.005 C 
ENDBRANCH  50  51
ENDBRANCH  49  50
ENDBRANCH  48  49
ENDBRANCH  47  48
ENDBRANCH  45  46
ENDBRANCH  44  45
ENDBRANCH  42  43
ENDBRANCH  41  42
ENDBRANCH  40  41
ENDBRANCH  39  40
ENDBRANCH  38  39
ENDBRANCH  37  38
ENDBRANCH  36  37
ENDBRANCH  34  36
ENDBRANCH  33  34
ENDBRANCH   1  33
TORSDOF 40
ENDMDL
MODEL 3
REMARK VINA RESULT:      -5.3      1.954      4.834
REMARK WARNING: 32 MAX_TORS EXCEEDED!!!
REMARK  40 active torsions:
REMARK  status: ('A' for Active; 'I' for Inactive)
REMARK    1  A    between atoms: C_2  and  C_1 
REMARK    2  A    between atoms: C_1  and  O_4 
REMARK    3  A    between atoms: C_3  and  C_2 
REMARK    4  A    between atoms: C_2  and  O_6 
REMARK    5  A    between atoms: C_3  and  O_5 
REMARK    6  A    between atoms: O_4  and  P_7 
REMARK    7  A    between atoms: C_32  and  O_5 
REMARK    8  A    between atoms: O_6  and  C_51 
REMARK    9  A    between atoms: P_7  and  O_10 
REMARK   10  A    between atoms: O_10  and  C_11 
REMARK   11  A    between atoms: C_11  and  C_12 
REMARK   12  A    between atoms: C_12  and  N_13 
REMARK   13  A    between atoms: C_18  and  C_19 
REMARK   14  A    between atoms: C_19  and  C_20 
REMARK   15  A    between atoms: C_20  and  C_21 
REMARK   16  A    between atoms: C_21  and  C_22 
REMARK   17  A    between atoms: C_22  and  C_23 
REMARK   18  A    between atoms: C_23  and  C_24 
REMARK   19  A    between atoms: C_24  and  C_25 
REMARK   20  A    between atoms: C_25  and  C_26 
REMARK   21  A    between atoms: C_26  and  C_27 
REMARK   22  A    between atoms: C_27  and  C_28 
REMARK   23  A    between atoms: C_28  and  C_29 
REMARK   24  A    between atoms: C_29  and  C_30 
REMARK   25  A    between atoms: C_30  and  C_31 
REMARK   26  A    between atoms: C_31  and  C_32 
REMARK   27  A    between atoms: C_36  and  C_35 
REMARK   28  A    between atoms: C_37  and  C_36 
REMARK   29  A    between atoms: C_38  and  C_37 
REMARK   30  A    between atoms: C_39  and  C_38 
REMARK   31  A    between atoms: C_41  and  C_40 
REMARK   32  A    between atoms: C_42  and  C_41 
REMARK   33  A    between atoms: C_44  and  C_43 
REMARK   34  A    between atoms: C_45  and  C_44 
REMARK   35  A    between atoms: C_46  and  C_45 
REMARK   36  A    between atoms: C_47  and  C_46 
REMARK   37  A    between atoms: C_48  and  C_47 
REMARK   38  A    between atoms: C_49  and  C_48 
REMARK   39  A    between atoms: C_50  and  C_49 
REMARK   40  A    between atoms: C_51  and  C_50 
ROOT
HETATM    1  C   UNK N   1      21.297  18.073   4.922  0.00  0.00     0.180 C 
ENDROOT
BRANCH   1   2
HETATM    2  C   UNK N   1      20.170  17.130   4.499  0.00  0.00     0.216 C 
BRANCH   2   3
HETATM    3  O   UNK N   1      20.601  15.813   4.352  0.00  0.00    -0.287 OA
BRANCH   3   4
HETATM    4  P   UNK N   1      19.246  14.862   4.888  0.00  0.00     0.408 P 
HETATM    5  O   UNK N   1      18.022  15.834   5.645  0.00  0.00    -0.624 OA
HETATM    6  O   UNK N   1      19.788  13.925   5.999  0.00  0.00    -0.624 OA
BRANCH   4   7
HETATM    7  O   UNK N   1      18.605  13.817   3.649  0.00  0.00    -0.288 OA
BRANCH   7   8
HETATM    8  C   UNK N   1      19.401  14.044   2.525  0.00  0.00     0.209 C 
BRANCH   8   9
HETATM    9  C   UNK N   1      20.522  13.009   2.430  0.00  0.00     0.262 C 
BRANCH   9  10
HETATM   10  N   UNK N   1      21.706  13.483   1.704  0.00  0.00    -0.077 N 
HETATM   11  C   UNK N   1      22.895  13.545   2.546  0.00  0.00     0.271 C 
HETATM   12  C   UNK N   1      21.972  12.552   0.626  0.00  0.00     0.271 C 
HETATM   13  C   UNK N   1      21.455  14.789   1.119  0.00  0.00     0.271 C 
ENDBRANCH   9  10
ENDBRANCH   8   9
ENDBRANCH   7   8
ENDBRANCH   4   7
ENDBRANCH   3   4
ENDBRANCH   2   3
ENDBRANCH   1   2
BRANCH   1  14
HETATM   14  C   UNK N   1      21.346  18.284   6.433  0.00  0.00     0.213 C 
BRANCH  14  15
HETATM   15  O   UNK N   1      21.119  17.124   7.145  0.00  0.00    -0.319 OA
BRANCH  15  16
HETATM   16  C   UNK N   1      20.331  17.087   8.242  0.00  0.00     0.258 C 
HETATM   17  O   UNK N   1      19.898  18.136   8.701  0.00  0.00    -0.265 OA
BRANCH  16  18
HETATM   18  C   UNK N   1      19.983  15.790   8.906  0.00  0.00     0.111 C 
BRANCH  18  19
HETATM   19  C   UNK N   1      21.217  14.914   9.099  0.00  0.00     0.010 C 
BRANCH  19  20
HETATM   20  C   UNK N   1      20.950  13.648   9.919  0.00  0.00     0.000 C 
BRANCH  20  21
HETATM   21  C   UNK N   1      22.214  12.851  10.239  0.00  0.00     0.000 C 
BRANCH  21  22
HETATM   22  C   UNK N   1      22.701  12.086   9.026  0.00  0.00     0.000 C 
BRANCH  22  23
HETATM   23  C   UNK N   1      24.216  11.999   9.038  0.00  0.00     0.000 C 
BRANCH  23  24
HETATM   24  C   UNK N   1      24.843  13.384   8.964  0.00  0.00     0.000 C 
BRANCH  24  25
HETATM   25  C   UNK N   1      25.044  13.850   7.527  0.00  0.00     0.000 C 
BRANCH  25  26
HETATM   26  C   UNK N   1      25.949  15.068   7.463  0.00  0.00     0.000 C 
BRANCH  26  27
HETATM   27  C   UNK N   1      25.796  15.760   6.121  0.00  0.00     0.000 C 
BRANCH  27  28
HETATM   28  C   UNK N   1      27.100  15.692   5.347  0.00  0.00     0.000 C 
BRANCH  28  29
HETATM   29  C   UNK N   1      26.845  15.212   3.930  0.00  0.00     0.000 C 
BRANCH  29  30
HETATM   30  C   UNK N   1      27.688  13.986   3.638  0.00  0.00    -0.000 C 
BRANCH  30  31
HETATM   31  C   UNK N   1      29.163  14.326   3.726  0.00  0.00    -0.005 C 
HETATM   32  C   UNK N   1      29.881  13.327   4.609  0.00  0.00     0.005 C 
ENDBRANCH  30  31
ENDBRANCH  29  30
ENDBRANCH  28  29
ENDBRANCH  27  28
ENDBRANCH  26  27
ENDBRANCH  25  26
ENDBRANCH  24  25
ENDBRANCH  23  24
ENDBRANCH  22  23
ENDBRANCH  21  22
ENDBRANCH  20  21
ENDBRANCH  19  20
ENDBRANCH  18  19
ENDBRANCH  16  18
ENDBRANCH  15  16
ENDBRANCH  14  15
ENDBRANCH   1  14
BRANCH   1  33
HETATM   33  O   UNK N   1      21.266  19.284   4.254  0.00  0.00    -0.312 OA
BRANCH  33  34
HETATM   34  C   UNK N   1      22.200  19.673   3.352  0.00  0.00     0.259 C 
HETATM   35  O   UNK N   1      21.868  20.174   2.275  0.00  0.00    -0.265 OA
BRANCH  34  36
HETATM   36  C   UNK N   1      23.639  19.447   3.614  0.00  0.00     0.111 C 
BRANCH  36  37
HETATM   37  C   UNK N   1      24.458  20.490   2.863  0.00  0.00     0.010 C 
BRANCH  37  38
HETATM   38  C   UNK N   1      25.933  20.389   3.208  0.00  0.00     0.000 C 
BRANCH  38  39
HETATM   39  C   UNK N   1      26.236  19.032   3.819  0.00  0.00     0.000 C 
BRANCH  39  40
HETATM   40  C   UNK N   1      27.470  19.139   4.702  0.00  0.00     0.000 C 
BRANCH  40  41
HETATM   41  C   UNK N   1      27.124  19.615   6.102  0.00  0.00     0.004 C 
BRANCH  41  42
HETATM   42  C   UNK N   1      28.289  19.412   7.062  0.00  0.00     0.027 C 
BRANCH  42  43
HETATM   43  C   UNK N   1      28.044  18.223   7.937  0.00  0.00    -0.030 C 
HETATM   44  C   UNK N   1      29.041  17.463   8.391  0.00  0.00    -0.027 C 
BRANCH  44  45
HETATM   45  C   UNK N   1      30.478  17.788   8.109  0.00  0.00     0.053 C 
BRANCH  45  46
HETATM   46  C   UNK N   1      31.211  16.576   7.626  0.00  0.00    -0.027 C 
HETATM   47  C   UNK N   1      31.373  16.295   6.327  0.00  0.00    -0.030 C 
BRANCH  47  48
HETATM   48  C   UNK N   1      30.830  17.176   5.243  0.00  0.00     0.027 C 
BRANCH  48  49
HETATM   49  C   UNK N   1      31.947  17.666   4.339  0.00  0.00     0.004 C 
BRANCH  49  50
HETATM   50  C   UNK N   1      32.098  16.772   3.122  0.00  0.00    -0.000 C 
BRANCH  50  51
HETATM   51  C   UNK N   1      33.332  15.901   3.245  0.00  0.00    -0.005 C 
HETATM   52  C   UNK N   1      33.029  14.520   2.707  0.00  0.00     0.005 C 
ENDBRANCH  50  51
ENDBRANCH  49  50
ENDBRANCH  48  49
ENDBRANCH  47  48
ENDBRANCH  45  46
ENDBRANCH  44  45
ENDBRANCH  42  43
ENDBRANCH  41  42
ENDBRANCH  40  41
ENDBRANCH  39  40
ENDBRANCH  38  39
ENDBRANCH  37  38
ENDBRANCH  36  37
ENDBRANCH  34  36
ENDBRANCH  33  34
ENDBRANCH   1  33
TORSDOF 40
ENDMDL
MODEL 4
REMARK VINA RESULT:      -5.3      1.438      2.667
REMARK WARNING: 32 MAX_TORS EXCEEDED!!!
REMARK  40 active torsions:
REMARK  status: ('A' for Active; 'I' for Inactive)
REMARK    1  A    between atoms: C_2  and  C_1 
REMARK    2  A    between atoms: C_1  and  O_4 
REMARK    3  A    between atoms: C_3  and  C_2 
REMARK    4  A    between atoms: C_2  and  O_6 
REMARK    5  A    between atoms: C_3  and  O_5 
REMARK    6  A    between atoms: O_4  and  P_7 
REMARK    7  A    between atoms: C_32  and  O_5 
REMARK    8  A    between atoms: O_6  and  C_51 
REMARK    9  A    between atoms: P_7  and  O_10 
REMARK   10  A    between atoms: O_10  and  C_11 
REMARK   11  A    between atoms: C_11  and  C_12 
REMARK   12  A    between atoms: C_12  and  N_13 
REMARK   13  A    between atoms: C_18  and  C_19 
REMARK   14  A    between atoms: C_19  and  C_20 
REMARK   15  A    between atoms: C_20  and  C_21 
REMARK   16  A    between atoms: C_21  and  C_22 
REMARK   17  A    between atoms: C_22  and  C_23 
REMARK   18  A    between atoms: C_23  and  C_24 
REMARK   19  A    between atoms: C_24  and  C_25 
REMARK   20  A    between atoms: C_25  and  C_26 
REMARK   21  A    between atoms: C_26  and  C_27 
REMARK   22  A    between atoms: C_27  and  C_28 
REMARK   23  A    between atoms: C_28  and  C_29 
REMARK   24  A    between atoms: C_29  and  C_30 
REMARK   25  A    between atoms: C_30  and  C_31 
REMARK   26  A    between atoms: C_31  and  C_32 
REMARK   27  A    between atoms: C_36  and  C_35 
REMARK   28  A    between atoms: C_37  and  C_36 
REMARK   29  A    between atoms: C_38  and  C_37 
REMARK   30  A    between atoms: C_39  and  C_38 
REMARK   31  A    between atoms: C_41  and  C_40 
REMARK   32  A    between atoms: C_42  and  C_41 
REMARK   33  A    between atoms: C_44  and  C_43 
REMARK   34  A    between atoms: C_45  and  C_44 
REMARK   35  A    between atoms: C_46  and  C_45 
REMARK   36  A    between atoms: C_47  and  C_46 
REMARK   37  A    between atoms: C_48  and  C_47 
REMARK   38  A    between atoms: C_49  and  C_48 
REMARK   39  A    between atoms: C_50  and  C_49 
REMARK   40  A    between atoms: C_51  and  C_50 
ROOT
HETATM    1  C   UNK N   1      21.533  18.899   4.177  0.00  0.00     0.180 C 
ENDROOT
BRANCH   1   2
HETATM    2  C   UNK N   1      21.843  18.117   5.453  0.00  0.00     0.216 C 
BRANCH   2   3
HETATM    3  O   UNK N   1      21.518  16.766   5.345  0.00  0.00    -0.287 OA
BRANCH   3   4
HETATM    4  P   UNK N   1      20.781  16.384   6.873  0.00  0.00     0.408 P 
HETATM    5  O   UNK N   1      19.136  15.856   6.694  0.00  0.00    -0.624 OA
HETATM    6  O   UNK N   1      20.714  17.715   7.666  0.00  0.00    -0.624 OA
BRANCH   4   7
HETATM    7  O   UNK N   1      21.734  15.294   7.845  0.00  0.00    -0.288 OA
BRANCH   7   8
HETATM    8  C   UNK N   1      22.285  14.381   6.943  0.00  0.00     0.209 C 
BRANCH   8   9
HETATM    9  C   UNK N   1      22.379  12.987   7.564  0.00  0.00     0.262 C 
BRANCH   9  10
HETATM   10  N   UNK N   1      23.747  12.462   7.637  0.00  0.00    -0.077 N 
HETATM   11  C   UNK N   1      23.848  11.269   8.469  0.00  0.00     0.271 C 
HETATM   12  C   UNK N   1      24.160  12.103   6.294  0.00  0.00     0.271 C 
HETATM   13  C   UNK N   1      24.657  13.480   8.131  0.00  0.00     0.271 C 
ENDBRANCH   9  10
ENDBRANCH   8   9
ENDBRANCH   7   8
ENDBRANCH   4   7
ENDBRANCH   3   4
ENDBRANCH   2   3
ENDBRANCH   1   2
BRANCH   1  14
HETATM   14  C   UNK N   1      20.391  18.281   3.374  0.00  0.00     0.213 C 
BRANCH  14  15
HETATM   15  O   UNK N   1      20.583  18.372   2.010  0.00  0.00    -0.319 OA
BRANCH  15  16
HETATM   16  C   UNK N   1      20.440  17.312   1.185  0.00  0.00     0.258 C 
HETATM   17  O   UNK N   1      20.385  17.498  -0.023  0.00  0.00    -0.265 OA
BRANCH  16  18
HETATM   18  C   UNK N   1      20.343  15.917   1.723  0.00  0.00     0.111 C 
BRANCH  18  19
HETATM   19  C   UNK N   1      19.598  14.998   0.760  0.00  0.00     0.010 C 
BRANCH  19  20
HETATM   20  C   UNK N   1      19.967  13.519   0.911  0.00  0.00     0.000 C 
BRANCH  20  21
HETATM   21  C   UNK N   1      20.494  13.160   2.299  0.00  0.00     0.000 C 
BRANCH  21  22
HETATM   22  C   UNK N   1      21.173  11.806   2.293  0.00  0.00     0.000 C 
BRANCH  22  23
HETATM   23  C   UNK N   1      21.803  11.545   0.937  0.00  0.00     0.000 C 
BRANCH  23  24
HETATM   24  C   UNK N   1      23.284  11.893   0.947  0.00  0.00     0.000 C 
BRANCH  24  25
HETATM   25  C   UNK N   1      23.607  13.072   0.038  0.00  0.00     0.000 C 
BRANCH  25  26
HETATM   26  C   UNK N   1      23.627  14.378   0.813  0.00  0.00     0.000 C 
BRANCH  26  27
HETATM   27  C   UNK N   1      24.391  14.200   2.113  0.00  0.00     0.000 C 
BRANCH  27  28
HETATM   28  C   UNK N   1      25.861  14.515   1.902  0.00  0.00     0.000 C 
BRANCH  28  29
HETATM   29  C   UNK N   1      26.714  13.317   2.278  0.00  0.00     0.000 C 
BRANCH  29  30
HETATM   30  C   UNK N   1      28.161  13.571   1.903  0.00  0.00    -0.000 C 
BRANCH  30  31
HETATM   31  C   UNK N   1      29.087  13.012   2.964  0.00  0.00    -0.005 C 
HETATM   32  C   UNK N   1      30.364  12.500   2.331  0.00  0.00     0.005 C 
ENDBRANCH  30  31
ENDBRANCH  29  30
ENDBRANCH  28  29
ENDBRANCH  27  28
ENDBRANCH  26  27
ENDBRANCH  25  26
ENDBRANCH  24  25
ENDBRANCH  23  24
ENDBRANCH  22  23
ENDBRANCH  21  22
ENDBRANCH  20  21
ENDBRANCH  19  20
ENDBRANCH  18  19
ENDBRANCH  16  18
ENDBRANCH  15  16
ENDBRANCH  14  15
ENDBRANCH   1  14
BRANCH   1  33
HETATM   33  O   UNK N   1      22.648  19.095   3.381  0.00  0.00    -0.312 OA
BRANCH  33  34
HETATM   34  C   UNK N   1      23.144  20.317   3.064  0.00  0.00     0.259 C 
HETATM   35  O   UNK N   1      22.394  21.230   2.711  0.00  0.00    -0.265 OA
BRANCH  34  36
HETATM   36  C   UNK N   1      24.604  20.562   3.072  0.00  0.00     0.111 C 
BRANCH  36  37
HETATM   37  C   UNK N   1      25.301  19.421   3.803  0.00  0.00     0.010 C 
BRANCH  37  38
HETATM   38  C   UNK N   1      26.679  19.836   4.290  0.00  0.00     0.000 C 
BRANCH  38  39
HETATM   39  C   UNK N   1      26.555  20.897   5.368  0.00  0.00     0.000 C 
BRANCH  39  40
HETATM   40  C   UNK N   1      27.032  20.326   6.695  0.00  0.00     0.000 C 
BRANCH  40  41
HETATM   41  C   UNK N   1      28.076  19.240   6.501  0.00  0.00     0.004 C 
BRANCH  41  42
HETATM   42  C   UNK N   1      28.174  18.338   7.725  0.00  0.00     0.027 C 
BRANCH  42  43
HETATM   43  C   UNK N   1      29.183  18.878   8.691  0.00  0.00    -0.030 C 
HETATM   44  C   UNK N   1      30.317  18.233   8.961  0.00  0.00    -0.027 C 
BRANCH  44  45
HETATM   45  C   UNK N   1      30.690  16.957   8.264  0.00  0.00     0.053 C 
BRANCH  45  46
HETATM   46  C   UNK N   1      31.722  17.209   7.211  0.00  0.00    -0.027 C 
HETATM   47  C   UNK N   1      31.539  16.888   5.924  0.00  0.00    -0.030 C 
BRANCH  47  48
HETATM   48  C   UNK N   1      30.279  16.243   5.430  0.00  0.00     0.027 C 
BRANCH  48  49
HETATM   49  C   UNK N   1      29.684  17.039   4.282  0.00  0.00     0.004 C 
BRANCH  49  50
HETATM   50  C   UNK N   1      28.285  16.552   3.947  0.00  0.00    -0.000 C 
BRANCH  50  51
HETATM   51  C   UNK N   1      27.719  15.722   5.082  0.00  0.00    -0.005 C 
HETATM   52  C   UNK N   1      26.284  16.127   5.333  0.00  0.00     0.005 C 
ENDBRANCH  50  51
ENDBRANCH  49  50
ENDBRANCH  48  49
ENDBRANCH  47  48
ENDBRANCH  45  46
ENDBRANCH  44  45
ENDBRANCH  42  43
ENDBRANCH  41  42
ENDBRANCH  40  41
ENDBRANCH  39  40
ENDBRANCH  38  39
ENDBRANCH  37  38
ENDBRANCH  36  37
ENDBRANCH  34  36
ENDBRANCH  33  34
ENDBRANCH   1  33
TORSDOF 40
ENDMDL
MODEL 5
REMARK VINA RESULT:      -5.2      4.974      9.182
REMARK WARNING: 32 MAX_TORS EXCEEDED!!!
REMARK  40 active torsions:
REMARK  status: ('A' for Active; 'I' for Inactive)
REMARK    1  A    between atoms: C_2  and  C_1 
REMARK    2  A    between atoms: C_1  and  O_4 
REMARK    3  A    between atoms: C_3  and  C_2 
REMARK    4  A    between atoms: C_2  and  O_6 
REMARK    5  A    between atoms: C_3  and  O_5 
REMARK    6  A    between atoms: O_4  and  P_7 
REMARK    7  A    between atoms: C_32  and  O_5 
REMARK    8  A    between atoms: O_6  and  C_51 
REMARK    9  A    between atoms: P_7  and  O_10 
REMARK   10  A    between atoms: O_10  and  C_11 
REMARK   11  A    between atoms: C_11  and  C_12 
REMARK   12  A    between atoms: C_12  and  N_13 
REMARK   13  A    between atoms: C_18  and  C_19 
REMARK   14  A    between atoms: C_19  and  C_20 
REMARK   15  A    between atoms: C_20  and  C_21 
REMARK   16  A    between atoms: C_21  and  C_22 
REMARK   17  A    between atoms: C_22  and  C_23 
REMARK   18  A    between atoms: C_23  and  C_24 
REMARK   19  A    between atoms: C_24  and  C_25 
REMARK   20  A    between atoms: C_25  and  C_26 
REMARK   21  A    between atoms: C_26  and  C_27 
REMARK   22  A    between atoms: C_27  and  C_28 
REMARK   23  A    between atoms: C_28  and  C_29 
REMARK   24  A    between atoms: C_29  and  C_30 
REMARK   25  A    between atoms: C_30  and  C_31 
REMARK   26  A    between atoms: C_31  and  C_32 
REMARK   27  A    between atoms: C_36  and  C_35 
REMARK   28  A    between atoms: C_37  and  C_36 
REMARK   29  A    between atoms: C_38  and  C_37 
REMARK   30  A    between atoms: C_39  and  C_38 
REMARK   31  A    between atoms: C_41  and  C_40 
REMARK   32  A    between atoms: C_42  and  C_41 
REMARK   33  A    between atoms: C_44  and  C_43 
REMARK   34  A    between atoms: C_45  and  C_44 
REMARK   35  A    between atoms: C_46  and  C_45 
REMARK   36  A    between atoms: C_47  and  C_46 
REMARK   37  A    between atoms: C_48  and  C_47 
REMARK   38  A    between atoms: C_49  and  C_48 
REMARK   39  A    between atoms: C_50  and  C_49 
REMARK   40  A    between atoms: C_51  and  C_50 
ROOT
HETATM    1  C   UNK N   1      30.260  17.131   7.962  0.00  0.00     0.180 C 
ENDROOT
BRANCH   1   2
HETATM    2  C   UNK N   1      31.625  17.195   8.646  0.00  0.00     0.216 C 
BRANCH   2   3
HETATM    3  O   UNK N   1      32.335  18.349   8.317  0.00  0.00    -0.287 OA
BRANCH   3   4
HETATM    4  P   UNK N   1      33.976  17.801   8.140  0.00  0.00     0.408 P 
HETATM    5  O   UNK N   1      34.446  16.718   9.414  0.00  0.00    -0.624 OA
HETATM    6  O   UNK N   1      34.871  19.057   8.301  0.00  0.00    -0.624 OA
BRANCH   4   7
HETATM    7  O   UNK N   1      34.324  17.165   6.554  0.00  0.00    -0.288 OA
BRANCH   7   8
HETATM    8  C   UNK N   1      34.594  15.809   6.751  0.00  0.00     0.209 C 
BRANCH   8   9
HETATM    9  C   UNK N   1      33.586  14.936   6.003  0.00  0.00     0.262 C 
BRANCH   9  10
HETATM   10  N   UNK N   1      34.116  14.344   4.770  0.00  0.00    -0.077 N 
HETATM   11  C   UNK N   1      33.506  13.057   4.456  0.00  0.00     0.271 C 
HETATM   12  C   UNK N   1      33.827  15.251   3.677  0.00  0.00     0.271 C 
HETATM   13  C   UNK N   1      35.558  14.190   4.858  0.00  0.00     0.271 C 
ENDBRANCH   9  10
ENDBRANCH   8   9
ENDBRANCH   7   8
ENDBRANCH   4   7
ENDBRANCH   3   4
ENDBRANCH   2   3
ENDBRANCH   1   2
BRANCH   1  14
HETATM   14  C   UNK N   1      30.336  16.537   6.558  0.00  0.00     0.213 C 
BRANCH  14  15
HETATM   15  O   UNK N   1      29.110  16.111   6.088  0.00  0.00    -0.319 OA
BRANCH  15  16
HETATM   16  C   UNK N   1      28.652  16.436   4.859  0.00  0.00     0.258 C 
HETATM   17  O   UNK N   1      29.185  17.350   4.245  0.00  0.00    -0.265 OA
BRANCH  16  18
HETATM   18  C   UNK N   1      27.503  15.700   4.239  0.00  0.00     0.111 C 
BRANCH  18  19
HETATM   19  C   UNK N   1      27.536  15.795   2.717  0.00  0.00     0.010 C 
BRANCH  19  20
HETATM   20  C   UNK N   1      26.420  15.006   2.027  0.00  0.00     0.000 C 
BRANCH  20  21
HETATM   21  C   UNK N   1      26.557  13.492   2.182  0.00  0.00     0.000 C 
BRANCH  21  22
HETATM   22  C   UNK N   1      25.288  12.781   1.760  0.00  0.00     0.000 C 
BRANCH  22  23
HETATM   23  C   UNK N   1      24.426  13.707   0.922  0.00  0.00     0.000 C 
BRANCH  23  24
HETATM   24  C   UNK N   1      23.460  12.915   0.053  0.00  0.00     0.000 C 
BRANCH  24  25
HETATM   25  C   UNK N   1      22.036  12.949   0.593  0.00  0.00     0.000 C 
BRANCH  25  26
HETATM   26  C   UNK N   1      21.567  14.374   0.827  0.00  0.00     0.000 C 
BRANCH  26  27
HETATM   27  C   UNK N   1      20.191  14.371   1.467  0.00  0.00     0.000 C 
BRANCH  27  28
HETATM   28  C   UNK N   1      19.943  15.690   2.178  0.00  0.00     0.000 C 
BRANCH  28  29
HETATM   29  C   UNK N   1      20.310  16.851   1.273  0.00  0.00     0.000 C 
BRANCH  29  30
HETATM   30  C   UNK N   1      19.944  18.164   1.938  0.00  0.00    -0.000 C 
BRANCH  30  31
HETATM   31  C   UNK N   1      20.318  18.134   3.407  0.00  0.00    -0.005 C 
HETATM   32  C   UNK N   1      21.058  19.399   3.788  0.00  0.00     0.005 C 
ENDBRANCH  30  31
ENDBRANCH  29  30
ENDBRANCH  28  29
ENDBRANCH  27  28
ENDBRANCH  26  27
ENDBRANCH  25  26
ENDBRANCH  24  25
ENDBRANCH  23  24
ENDBRANCH  22  23
ENDBRANCH  21  22
ENDBRANCH  20  21
ENDBRANCH  19  20
ENDBRANCH  18  19
ENDBRANCH  16  18
ENDBRANCH  15  16
ENDBRANCH  14  15
ENDBRANCH   1  14
BRANCH   1  33
HETATM   33  O   UNK N   1      29.606  18.350   7.949  0.00  0.00    -0.312 OA
BRANCH  33  34
HETATM   34  C   UNK N   1      28.343  18.534   8.407  0.00  0.00     0.259 C 
HETATM   35  O   UNK N   1      27.910  17.868   9.350  0.00  0.00    -0.265 OA
BRANCH  34  36
HETATM   36  C   UNK N   1      27.434  19.495   7.742  0.00  0.00     0.111 C 
BRANCH  36  37
HETATM   37  C   UNK N   1      27.989  19.844   6.366  0.00  0.00     0.010 C 
BRANCH  37  38
HETATM   38  C   UNK N   1      26.959  20.575   5.523  0.00  0.00     0.000 C 
BRANCH  38  39
HETATM   39  C   UNK N   1      27.084  20.161   4.068  0.00  0.00     0.000 C 
BRANCH  39  40
HETATM   40  C   UNK N   1      26.016  19.127   3.744  0.00  0.00     0.000 C 
BRANCH  40  41
HETATM   41  C   UNK N   1      24.962  19.041   4.834  0.00  0.00     0.004 C 
BRANCH  41  42
HETATM   42  C   UNK N   1      24.386  17.635   4.941  0.00  0.00     0.027 C 
BRANCH  42  43
HETATM   43  C   UNK N   1      23.956  17.143   3.594  0.00  0.00    -0.030 C 
HETATM   44  C   UNK N   1      23.245  16.026   3.445  0.00  0.00    -0.027 C 
BRANCH  44  45
HETATM   45  C   UNK N   1      22.772  15.223   4.621  0.00  0.00     0.053 C 
BRANCH  45  46
HETATM   46  C   UNK N   1      23.205  13.795   4.497  0.00  0.00    -0.027 C 
HETATM   47  C   UNK N   1      24.156  13.256   5.270  0.00  0.00    -0.030 C 
BRANCH  47  48
HETATM   48  C   UNK N   1      24.871  14.041   6.327  0.00  0.00     0.027 C 
BRANCH  48  49
HETATM   49  C   UNK N   1      24.132  13.956   7.651  0.00  0.00     0.004 C 
BRANCH  49  50
HETATM   50  C   UNK N   1      25.041  13.438   8.752  0.00  0.00    -0.000 C 
BRANCH  50  51
HETATM   51  C   UNK N   1      24.331  12.390   9.585  0.00  0.00    -0.005 C 
HETATM   52  C   UNK N   1      23.696  11.366   8.670  0.00  0.00     0.005 C 
ENDBRANCH  50  51
ENDBRANCH  49  50
ENDBRANCH  48  49
ENDBRANCH  47  48
ENDBRANCH  45  46
ENDBRANCH  44  45
ENDBRANCH  42  43
ENDBRANCH  41  42
ENDBRANCH  40  41
ENDBRANCH  39  40
ENDBRANCH  38  39
ENDBRANCH  37  38
ENDBRANCH  36  37
ENDBRANCH  34  36
ENDBRANCH  33  34
ENDBRANCH   1  33
TORSDOF 40
ENDMDL
MODEL 6
REMARK VINA RESULT:      -5.2      1.663      3.140
REMARK WARNING: 32 MAX_TORS EXCEEDED!!!
REMARK  40 active torsions:
REMARK  status: ('A' for Active; 'I' for Inactive)
REMARK    1  A    between atoms: C_2  and  C_1 
REMARK    2  A    between atoms: C_1  and  O_4 
REMARK    3  A    between atoms: C_3  and  C_2 
REMARK    4  A    between atoms: C_2  and  O_6 
REMARK    5  A    between atoms: C_3  and  O_5 
REMARK    6  A    between atoms: O_4  and  P_7 
REMARK    7  A    between atoms: C_32  and  O_5 
REMARK    8  A    between atoms: O_6  and  C_51 
REMARK    9  A    between atoms: P_7  and  O_10 
REMARK   10  A    between atoms: O_10  and  C_11 
REMARK   11  A    between atoms: C_11  and  C_12 
REMARK   12  A    between atoms: C_12  and  N_13 
REMARK   13  A    between atoms: C_18  and  C_19 
REMARK   14  A    between atoms: C_19  and  C_20 
REMARK   15  A    between atoms: C_20  and  C_21 
REMARK   16  A    between atoms: C_21  and  C_22 
REMARK   17  A    between atoms: C_22  and  C_23 
REMARK   18  A    between atoms: C_23  and  C_24 
REMARK   19  A    between atoms: C_24  and  C_25 
REMARK   20  A    between atoms: C_25  and  C_26 
REMARK   21  A    between atoms: C_26  and  C_27 
REMARK   22  A    between atoms: C_27  and  C_28 
REMARK   23  A    between atoms: C_28  and  C_29 
REMARK   24  A    between atoms: C_29  and  C_30 
REMARK   25  A    between atoms: C_30  and  C_31 
REMARK   26  A    between atoms: C_31  and  C_32 
REMARK   27  A    between atoms: C_36  and  C_35 
REMARK   28  A    between atoms: C_37  and  C_36 
REMARK   29  A    between atoms: C_38  and  C_37 
REMARK   30  A    between atoms: C_39  and  C_38 
REMARK   31  A    between atoms: C_41  and  C_40 
REMARK   32  A    between atoms: C_42  and  C_41 
REMARK   33  A    between atoms: C_44  and  C_43 
REMARK   34  A    between atoms: C_45  and  C_44 
REMARK   35  A    between atoms: C_46  and  C_45 
REMARK   36  A    between atoms: C_47  and  C_46 
REMARK   37  A    between atoms: C_48  and  C_47 
REMARK   38  A    between atoms: C_49  and  C_48 
REMARK   39  A    between atoms: C_50  and  C_49 
REMARK   40  A    between atoms: C_51  and  C_50 
ROOT
HETATM    1  C   UNK N   1      21.655  18.279   4.334  0.00  0.00     0.180 C 
ENDROOT
BRANCH   1   2
HETATM    2  C   UNK N   1      21.790  17.956   5.822  0.00  0.00     0.216 C 
BRANCH   2   3
HETATM    3  O   UNK N   1      21.452  16.636   6.116  0.00  0.00    -0.287 OA
BRANCH   3   4
HETATM    4  P   UNK N   1      20.417  16.764   7.508  0.00  0.00     0.408 P 
HETATM    5  O   UNK N   1      18.783  16.290   7.153  0.00  0.00    -0.624 OA
HETATM    6  O   UNK N   1      20.352  18.272   7.862  0.00  0.00    -0.624 OA
BRANCH   4   7
HETATM    7  O   UNK N   1      21.057  15.966   8.919  0.00  0.00    -0.288 OA
BRANCH   7   8
HETATM    8  C   UNK N   1      20.999  14.601   8.630  0.00  0.00     0.209 C 
BRANCH   8   9
HETATM    9  C   UNK N   1      21.720  13.784   9.703  0.00  0.00     0.262 C 
BRANCH   9  10
HETATM   10  N   UNK N   1      22.546  12.698   9.164  0.00  0.00    -0.077 N 
HETATM   11  C   UNK N   1      21.997  12.128   7.940  0.00  0.00     0.271 C 
HETATM   12  C   UNK N   1      23.854  13.242   8.854  0.00  0.00     0.271 C 
HETATM   13  C   UNK N   1      22.718  11.650  10.155  0.00  0.00     0.271 C 
ENDBRANCH   9  10
ENDBRANCH   8   9
ENDBRANCH   7   8
ENDBRANCH   4   7
ENDBRANCH   3   4
ENDBRANCH   2   3
ENDBRANCH   1   2
BRANCH   1  14
HETATM   14  C   UNK N   1      20.996  17.149   3.547  0.00  0.00     0.213 C 
BRANCH  14  15
HETATM   15  O   UNK N   1      20.888  17.425   2.199  0.00  0.00    -0.319 OA
BRANCH  15  16
HETATM   16  C   UNK N   1      20.385  16.537   1.315  0.00  0.00     0.258 C 
HETATM   17  O   UNK N   1      20.264  16.865   0.142  0.00  0.00    -0.265 OA
BRANCH  16  18
HETATM   18  C   UNK N   1      19.971  15.163   1.745  0.00  0.00     0.111 C 
BRANCH  18  19
HETATM   19  C   UNK N   1      18.977  14.547   0.764  0.00  0.00     0.010 C 
BRANCH  19  20
HETATM   20  C   UNK N   1      19.354  13.134   0.311  0.00  0.00     0.000 C 
BRANCH  20  21
HETATM   21  C   UNK N   1      20.758  12.710   0.739  0.00  0.00     0.000 C 
BRANCH  21  22
HETATM   22  C   UNK N   1      20.721  11.434   1.554  0.00  0.00     0.000 C 
BRANCH  22  23
HETATM   23  C   UNK N   1      20.721  11.762   3.036  0.00  0.00     0.000 C 
BRANCH  23  24
HETATM   24  C   UNK N   1      22.123  11.655   3.618  0.00  0.00     0.000 C 
BRANCH  24  25
HETATM   25  C   UNK N   1      22.562  12.941   4.306  0.00  0.00     0.000 C 
BRANCH  25  26
HETATM   26  C   UNK N   1      23.128  13.936   3.309  0.00  0.00     0.000 C 
BRANCH  26  27
HETATM   27  C   UNK N   1      24.595  13.643   3.054  0.00  0.00     0.000 C 
BRANCH  27  28
HETATM   28  C   UNK N   1      24.854  13.531   1.562  0.00  0.00     0.000 C 
BRANCH  28  29
HETATM   29  C   UNK N   1      25.121  12.086   1.183  0.00  0.00     0.000 C 
BRANCH  29  30
HETATM   30  C   UNK N   1      24.144  11.642   0.111  0.00  0.00    -0.000 C 
BRANCH  30  31
HETATM   31  C   UNK N   1      23.939  10.141   0.173  0.00  0.00    -0.005 C 
HETATM   32  C   UNK N   1      23.023   9.689  -0.944  0.00  0.00     0.005 C 
ENDBRANCH  30  31
ENDBRANCH  29  30
ENDBRANCH  28  29
ENDBRANCH  27  28
ENDBRANCH  26  27
ENDBRANCH  25  26
ENDBRANCH  24  25
ENDBRANCH  23  24
ENDBRANCH  22  23
ENDBRANCH  21  22
ENDBRANCH  20  21
ENDBRANCH  19  20
ENDBRANCH  18  19
ENDBRANCH  16  18
ENDBRANCH  15  16
ENDBRANCH  14  15
ENDBRANCH   1  14
BRANCH   1  33
HETATM   33  O   UNK N   1      22.853  18.654   3.753  0.00  0.00    -0.312 OA
BRANCH  33  34
HETATM   34  C   UNK N   1      23.108  19.901   3.285  0.00  0.00     0.259 C 
HETATM   35  O   UNK N   1      22.189  20.697   3.077  0.00  0.00    -0.265 OA
BRANCH  34  36
HETATM   36  C   UNK N   1      24.490  20.312   2.952  0.00  0.00     0.111 C 
BRANCH  36  37
HETATM   37  C   UNK N   1      25.405  20.006   4.133  0.00  0.00     0.010 C 
BRANCH  37  38
HETATM   38  C   UNK N   1      26.863  20.240   3.779  0.00  0.00     0.000 C 
BRANCH  38  39
HETATM   39  C   UNK N   1      27.685  20.424   5.041  0.00  0.00     0.000 C 
BRANCH  39  40
HETATM   40  C   UNK N   1      27.342  19.324   6.033  0.00  0.00     0.000 C 
BRANCH  40  41
HETATM   41  C   UNK N   1      27.965  19.576   7.395  0.00  0.00     0.004 C 
BRANCH  41  42
HETATM   42  C   UNK N   1      28.361  18.272   8.076  0.00  0.00     0.027 C 
BRANCH  42  43
HETATM   43  C   UNK N   1      29.705  18.406   8.721  0.00  0.00    -0.030 C 
HETATM   44  C   UNK N   1      30.739  17.645   8.363  0.00  0.00    -0.027 C 
BRANCH  44  45
HETATM   45  C   UNK N   1      30.642  16.648   7.246  0.00  0.00     0.053 C 
BRANCH  45  46
HETATM   46  C   UNK N   1      31.111  17.248   5.957  0.00  0.00    -0.027 C 
HETATM   47  C   UNK N   1      30.418  17.150   4.816  0.00  0.00    -0.030 C 
BRANCH  47  48
HETATM   48  C   UNK N   1      29.109  16.425   4.733  0.00  0.00     0.027 C 
BRANCH  48  49
HETATM   49  C   UNK N   1      28.356  16.817   3.474  0.00  0.00     0.004 C 
BRANCH  49  50
HETATM   50  C   UNK N   1      26.877  16.496   3.599  0.00  0.00    -0.000 C 
BRANCH  50  51
HETATM   51  C   UNK N   1      26.552  15.994   4.991  0.00  0.00    -0.005 C 
HETATM   52  C   UNK N   1      25.164  16.453   5.380  0.00  0.00     0.005 C 
ENDBRANCH  50  51
ENDBRANCH  49  50
ENDBRANCH  48  49
ENDBRANCH  47  48
ENDBRANCH  45  46
ENDBRANCH  44  45
ENDBRANCH  42  43
ENDBRANCH  41  42
ENDBRANCH  40  41
ENDBRANCH  39  40
ENDBRANCH  38  39
ENDBRANCH  37  38
ENDBRANCH  36  37
ENDBRANCH  34  36
ENDBRANCH  33  34
ENDBRANCH   1  33
TORSDOF 40
ENDMDL
MODEL 7
REMARK VINA RESULT:      -5.2      1.701      4.560
REMARK WARNING: 32 MAX_TORS EXCEEDED!!!
REMARK  40 active torsions:
REMARK  status: ('A' for Active; 'I' for Inactive)
REMARK    1  A    between atoms: C_2  and  C_1 
REMARK    2  A    between atoms: C_1  and  O_4 
REMARK    3  A    between atoms: C_3  and  C_2 
REMARK    4  A    between atoms: C_2  and  O_6 
REMARK    5  A    between atoms: C_3  and  O_5 
REMARK    6  A    between atoms: O_4  and  P_7 
REMARK    7  A    between atoms: C_32  and  O_5 
REMARK    8  A    between atoms: O_6  and  C_51 
REMARK    9  A    between atoms: P_7  and  O_10 
REMARK   10  A    between atoms: O_10  and  C_11 
REMARK   11  A    between atoms: C_11  and  C_12 
REMARK   12  A    between atoms: C_12  and  N_13 
REMARK   13  A    between atoms: C_18  and  C_19 
REMARK   14  A    between atoms: C_19  and  C_20 
REMARK   15  A    between atoms: C_20  and  C_21 
REMARK   16  A    between atoms: C_21  and  C_22 
REMARK   17  A    between atoms: C_22  and  C_23 
REMARK   18  A    between atoms: C_23  and  C_24 
REMARK   19  A    between atoms: C_24  and  C_25 
REMARK   20  A    between atoms: C_25  and  C_26 
REMARK   21  A    between atoms: C_26  and  C_27 
REMARK   22  A    between atoms: C_27  and  C_28 
REMARK   23  A    between atoms: C_28  and  C_29 
REMARK   24  A    between atoms: C_29  and  C_30 
REMARK   25  A    between atoms: C_30  and  C_31 
REMARK   26  A    between atoms: C_31  and  C_32 
REMARK   27  A    between atoms: C_36  and  C_35 
REMARK   28  A    between atoms: C_37  and  C_36 
REMARK   29  A    between atoms: C_38  and  C_37 
REMARK   30  A    between atoms: C_39  and  C_38 
REMARK   31  A    between atoms: C_41  and  C_40 
REMARK   32  A    between atoms: C_42  and  C_41 
REMARK   33  A    between atoms: C_44  and  C_43 
REMARK   34  A    between atoms: C_45  and  C_44 
REMARK   35  A    between atoms: C_46  and  C_45 
REMARK   36  A    between atoms: C_47  and  C_46 
REMARK   37  A    between atoms: C_48  and  C_47 
REMARK   38  A    between atoms: C_49  and  C_48 
REMARK   39  A    between atoms: C_50  and  C_49 
REMARK   40  A    between atoms: C_51  and  C_50 
ROOT
HETATM    1  C   UNK N   1      19.684  15.625   3.716  0.00  0.00     0.180 C 
ENDROOT
BRANCH   1   2
HETATM    2  C   UNK N   1      19.653  14.811   5.009  0.00  0.00     0.216 C 
BRANCH   2   3
HETATM    3  O   UNK N   1      20.791  15.004   5.791  0.00  0.00    -0.287 OA
BRANCH   3   4
HETATM    4  P   UNK N   1      20.164  15.458   7.348  0.00  0.00     0.408 P 
HETATM    5  O   UNK N   1      18.604  16.214   7.231  0.00  0.00    -0.624 OA
HETATM    6  O   UNK N   1      21.121  16.547   7.900  0.00  0.00    -0.624 OA
BRANCH   4   7
HETATM    7  O   UNK N   1      20.195  14.158   8.510  0.00  0.00    -0.288 OA
BRANCH   7   8
HETATM    8  C   UNK N   1      21.439  13.546   8.346  0.00  0.00     0.209 C 
BRANCH   8   9
HETATM    9  C   UNK N   1      22.264  13.630   9.631  0.00  0.00     0.262 C 
BRANCH   9  10
HETATM   10  N   UNK N   1      23.267  12.567   9.761  0.00  0.00    -0.077 N 
HETATM   11  C   UNK N   1      24.633  13.073   9.702  0.00  0.00     0.271 C 
HETATM   12  C   UNK N   1      23.083  11.934  11.052  0.00  0.00     0.271 C 
HETATM   13  C   UNK N   1      23.076  11.559   8.733  0.00  0.00     0.271 C 
ENDBRANCH   9  10
ENDBRANCH   8   9
ENDBRANCH   7   8
ENDBRANCH   4   7
ENDBRANCH   3   4
ENDBRANCH   2   3
ENDBRANCH   1   2
BRANCH   1  14
HETATM   14  C   UNK N   1      19.641  14.746   2.469  0.00  0.00     0.213 C 
BRANCH  14  15
HETATM   15  O   UNK N   1      20.719  13.888   2.380  0.00  0.00    -0.319 OA
BRANCH  15  16
HETATM   16  C   UNK N   1      21.881  14.242   1.789  0.00  0.00     0.258 C 
HETATM   17  O   UNK N   1      21.849  14.878   0.743  0.00  0.00    -0.265 OA
BRANCH  16  18
HETATM   18  C   UNK N   1      23.202  13.869   2.387  0.00  0.00     0.111 C 
BRANCH  18  19
HETATM   19  C   UNK N   1      24.248  14.955   2.153  0.00  0.00     0.010 C 
BRANCH  19  20
HETATM   20  C   UNK N   1      25.654  14.409   1.889  0.00  0.00     0.000 C 
BRANCH  20  21
HETATM   21  C   UNK N   1      26.767  15.402   2.220  0.00  0.00     0.000 C 
BRANCH  21  22
HETATM   22  C   UNK N   1      28.103  14.704   2.352  0.00  0.00     0.000 C 
BRANCH  22  23
HETATM   23  C   UNK N   1      29.203  15.723   2.589  0.00  0.00     0.000 C 
BRANCH  23  24
HETATM   24  C   UNK N   1      28.692  16.896   3.411  0.00  0.00     0.000 C 
BRANCH  24  25
HETATM   25  C   UNK N   1      29.422  17.031   4.742  0.00  0.00     0.000 C 
BRANCH  25  26
HETATM   26  C   UNK N   1      30.797  17.648   4.558  0.00  0.00     0.000 C 
BRANCH  26  27
HETATM   27  C   UNK N   1      31.802  16.961   5.465  0.00  0.00     0.000 C 
BRANCH  27  28
HETATM   28  C   UNK N   1      33.152  16.874   4.776  0.00  0.00     0.000 C 
BRANCH  28  29
HETATM   29  C   UNK N   1      32.969  16.791   3.272  0.00  0.00     0.000 C 
BRANCH  29  30
HETATM   30  C   UNK N   1      33.570  15.501   2.746  0.00  0.00    -0.000 C 
BRANCH  30  31
HETATM   31  C   UNK N   1      33.212  14.343   3.655  0.00  0.00    -0.005 C 
HETATM   32  C   UNK N   1      32.094  13.522   3.047  0.00  0.00     0.005 C 
ENDBRANCH  30  31
ENDBRANCH  29  30
ENDBRANCH  28  29
ENDBRANCH  27  28
ENDBRANCH  26  27
ENDBRANCH  25  26
ENDBRANCH  24  25
ENDBRANCH  23  24
ENDBRANCH  22  23
ENDBRANCH  21  22
ENDBRANCH  20  21
ENDBRANCH  19  20
ENDBRANCH  18  19
ENDBRANCH  16  18
ENDBRANCH  15  16
ENDBRANCH  14  15
ENDBRANCH   1  14
BRANCH   1  33
HETATM   33  O   UNK N   1      20.747  16.509   3.662  0.00  0.00    -0.312 OA
BRANCH  33  34
HETATM   34  C   UNK N   1      20.618  17.854   3.784  0.00  0.00     0.259 C 
HETATM   35  O   UNK N   1      19.762  18.467   3.142  0.00  0.00    -0.265 OA
BRANCH  34  36
HETATM   36  C   UNK N   1      21.546  18.624   4.642  0.00  0.00     0.111 C 
BRANCH  36  37
HETATM   37  C   UNK N   1      22.892  18.754   3.938  0.00  0.00     0.010 C 
BRANCH  37  38
HETATM   38  C   UNK N   1      23.936  17.850   4.569  0.00  0.00     0.000 C 
BRANCH  38  39
HETATM   39  C   UNK N   1      25.323  18.233   4.084  0.00  0.00     0.000 C 
BRANCH  39  40
HETATM   40  C   UNK N   1      25.442  19.749   4.042  0.00  0.00     0.000 C 
BRANCH  40  41
HETATM   41  C   UNK N   1      26.832  20.195   3.622  0.00  0.00     0.004 C 
BRANCH  41  42
HETATM   42  C   UNK N   1      27.793  20.208   4.803  0.00  0.00     0.027 C 
BRANCH  42  43
HETATM   43  C   UNK N   1      27.090  20.664   6.044  0.00  0.00    -0.030 C 
HETATM   44  C   UNK N   1      27.407  20.191   7.248  0.00  0.00    -0.027 C 
BRANCH  44  45
HETATM   45  C   UNK N   1      28.533  19.219   7.449  0.00  0.00     0.053 C 
BRANCH  45  46
HETATM   46  C   UNK N   1      28.216  18.260   8.554  0.00  0.00    -0.027 C 
HETATM   47  C   UNK N   1      27.599  17.090   8.343  0.00  0.00    -0.030 C 
BRANCH  47  48
HETATM   48  C   UNK N   1      27.172  16.643   6.978  0.00  0.00     0.027 C 
BRANCH  48  49
HETATM   49  C   UNK N   1      26.414  15.329   7.056  0.00  0.00     0.004 C 
BRANCH  49  50
HETATM   50  C   UNK N   1      26.606  14.511   5.791  0.00  0.00    -0.000 C 
BRANCH  50  51
HETATM   51  C   UNK N   1      25.462  13.536   5.603  0.00  0.00    -0.005 C 
HETATM   52  C   UNK N   1      24.155  14.227   5.926  0.00  0.00     0.005 C 
ENDBRANCH  50  51
ENDBRANCH  49  50
ENDBRANCH  48  49
ENDBRANCH  47  48
ENDBRANCH  45  46
ENDBRANCH  44  45
ENDBRANCH  42  43
ENDBRANCH  41  42
ENDBRANCH  40  41
ENDBRANCH  39  40
ENDBRANCH  38  39
ENDBRANCH  37  38
ENDBRANCH  36  37
ENDBRANCH  34  36
ENDBRANCH  33  34
ENDBRANCH   1  33
TORSDOF 40
ENDMDL
MODEL 8
REMARK VINA RESULT:      -5.1      6.125      9.909
REMARK WARNING: 32 MAX_TORS EXCEEDED!!!
REMARK  40 active torsions:
REMARK  status: ('A' for Active; 'I' for Inactive)
REMARK    1  A    between atoms: C_2  and  C_1 
REMARK    2  A    between atoms: C_1  and  O_4 
REMARK    3  A    between atoms: C_3  and  C_2 
REMARK    4  A    between atoms: C_2  and  O_6 
REMARK    5  A    between atoms: C_3  and  O_5 
REMARK    6  A    between atoms: O_4  and  P_7 
REMARK    7  A    between atoms: C_32  and  O_5 
REMARK    8  A    between atoms: O_6  and  C_51 
REMARK    9  A    between atoms: P_7  and  O_10 
REMARK   10  A    between atoms: O_10  and  C_11 
REMARK   11  A    between atoms: C_11  and  C_12 
REMARK   12  A    between atoms: C_12  and  N_13 
REMARK   13  A    between atoms: C_18  and  C_19 
REMARK   14  A    between atoms: C_19  and  C_20 
REMARK   15  A    between atoms: C_20  and  C_21 
REMARK   16  A    between atoms: C_21  and  C_22 
REMARK   17  A    between atoms: C_22  and  C_23 
REMARK   18  A    between atoms: C_23  and  C_24 
REMARK   19  A    between atoms: C_24  and  C_25 
REMARK   20  A    between atoms: C_25  and  C_26 
REMARK   21  A    between atoms: C_26  and  C_27 
REMARK   22  A    between atoms: C_27  and  C_28 
REMARK   23  A    between atoms: C_28  and  C_29 
REMARK   24  A    between atoms: C_29  and  C_30 
REMARK   25  A    between atoms: C_30  and  C_31 
REMARK   26  A    between atoms: C_31  and  C_32 
REMARK   27  A    between atoms: C_36  and  C_35 
REMARK   28  A    between atoms: C_37  and  C_36 
REMARK   29  A    between atoms: C_38  and  C_37 
REMARK   30  A    between atoms: C_39  and  C_38 
REMARK   31  A    between atoms: C_41  and  C_40 
REMARK   32  A    between atoms: C_42  and  C_41 
REMARK   33  A    between atoms: C_44  and  C_43 
REMARK   34  A    between atoms: C_45  and  C_44 
REMARK   35  A    between atoms: C_46  and  C_45 
REMARK   36  A    between atoms: C_47  and  C_46 
REMARK   37  A    between atoms: C_48  and  C_47 
REMARK   38  A    between atoms: C_49  and  C_48 
REMARK   39  A    between atoms: C_50  and  C_49 
REMARK   40  A    between atoms: C_51  and  C_50 
ROOT
HETATM    1  C   UNK N   1      32.607  16.687   8.122  0.00  0.00     0.180 C 
ENDROOT
BRANCH   1   2
HETATM    2  C   UNK N   1      33.282  15.402   8.601  0.00  0.00     0.216 C 
BRANCH   2   3
HETATM    3  O   UNK N   1      34.672  15.486   8.577  0.00  0.00    -0.287 OA
BRANCH   3   4
HETATM    4  P   UNK N   1      35.115  15.670  10.249  0.00  0.00     0.408 P 
HETATM    5  O   UNK N   1      33.940  14.969  11.318  0.00  0.00    -0.624 OA
HETATM    6  O   UNK N   1      35.093  17.194  10.537  0.00  0.00    -0.624 OA
BRANCH   4   7
HETATM    7  O   UNK N   1      36.740  15.140  10.594  0.00  0.00    -0.288 OA
BRANCH   7   8
HETATM    8  C   UNK N   1      36.598  14.066  11.474  0.00  0.00     0.209 C 
BRANCH   8   9
HETATM    9  C   UNK N   1      36.558  12.738  10.716  0.00  0.00     0.262 C 
BRANCH   9  10
HETATM   10  N   UNK N   1      36.039  11.619  11.509  0.00  0.00    -0.077 N 
HETATM   11  C   UNK N   1      35.163  10.743  10.739  0.00  0.00     0.271 C 
HETATM   12  C   UNK N   1      37.167  10.830  11.963  0.00  0.00     0.271 C 
HETATM   13  C   UNK N   1      35.331  12.108  12.679  0.00  0.00     0.271 C 
ENDBRANCH   9  10
ENDBRANCH   8   9
ENDBRANCH   7   8
ENDBRANCH   4   7
ENDBRANCH   3   4
ENDBRANCH   2   3
ENDBRANCH   1   2
BRANCH   1  14
HETATM   14  C   UNK N   1      31.247  16.914   8.777  0.00  0.00     0.213 C 
BRANCH  14  15
HETATM   15  O   UNK N   1      30.234  17.104   7.859  0.00  0.00    -0.319 OA
BRANCH  15  16
HETATM   16  C   UNK N   1      29.088  17.749   8.168  0.00  0.00     0.258 C 
HETATM   17  O   UNK N   1      28.915  18.145   9.313  0.00  0.00    -0.265 OA
BRANCH  16  18
HETATM   18  C   UNK N   1      28.026  17.982   7.137  0.00  0.00     0.111 C 
BRANCH  18  19
HETATM   19  C   UNK N   1      27.926  19.458   6.764  0.00  0.00     0.010 C 
BRANCH  19  20
HETATM   20  C   UNK N   1      27.945  19.714   5.254  0.00  0.00     0.000 C 
BRANCH  20  21
HETATM   21  C   UNK N   1      26.833  20.647   4.779  0.00  0.00     0.000 C 
BRANCH  21  22
HETATM   22  C   UNK N   1      26.493  20.398   3.324  0.00  0.00     0.000 C 
BRANCH  22  23
HETATM   23  C   UNK N   1      25.077  19.866   3.203  0.00  0.00     0.000 C 
BRANCH  23  24
HETATM   24  C   UNK N   1      24.996  18.421   3.674  0.00  0.00     0.000 C 
BRANCH  24  25
HETATM   25  C   UNK N   1      23.595  18.043   4.140  0.00  0.00     0.000 C 
BRANCH  25  26
HETATM   26  C   UNK N   1      23.641  17.222   5.416  0.00  0.00     0.000 C 
BRANCH  26  27
HETATM   27  C   UNK N   1      24.441  15.952   5.190  0.00  0.00     0.000 C 
BRANCH  27  28
HETATM   28  C   UNK N   1      25.062  15.487   6.496  0.00  0.00     0.000 C 
BRANCH  28  29
HETATM   29  C   UNK N   1      25.234  13.980   6.488  0.00  0.00     0.000 C 
BRANCH  29  30
HETATM   30  C   UNK N   1      25.062  13.430   7.891  0.00  0.00    -0.000 C 
BRANCH  30  31
HETATM   31  C   UNK N   1      24.232  12.162   7.862  0.00  0.00    -0.005 C 
HETATM   32  C   UNK N   1      23.814  11.775   9.265  0.00  0.00     0.005 C 
ENDBRANCH  30  31
ENDBRANCH  29  30
ENDBRANCH  28  29
ENDBRANCH  27  28
ENDBRANCH  26  27
ENDBRANCH  25  26
ENDBRANCH  24  25
ENDBRANCH  23  24
ENDBRANCH  22  23
ENDBRANCH  21  22
ENDBRANCH  20  21
ENDBRANCH  19  20
ENDBRANCH  18  19
ENDBRANCH  16  18
ENDBRANCH  15  16
ENDBRANCH  14  15
ENDBRANCH   1  14
BRANCH   1  33
HETATM   33  O   UNK N   1      32.511  16.763   6.743  0.00  0.00    -0.312 OA
BRANCH  33  34
HETATM   34  C   UNK N   1      33.376  17.457   5.963  0.00  0.00     0.259 C 
HETATM   35  O   UNK N   1      34.361  18.014   6.454  0.00  0.00    -0.265 OA
BRANCH  34  36
HETATM   36  C   UNK N   1      33.122  17.616   4.514  0.00  0.00     0.111 C 
BRANCH  36  37
HETATM   37  C   UNK N   1      31.626  17.488   4.248  0.00  0.00     0.010 C 
BRANCH  37  38
HETATM   38  C   UNK N   1      31.350  16.548   3.087  0.00  0.00     0.000 C 
BRANCH  38  39
HETATM   39  C   UNK N   1      32.089  15.237   3.287  0.00  0.00     0.000 C 
BRANCH  39  40
HETATM   40  C   UNK N   1      31.083  14.110   3.455  0.00  0.00     0.000 C 
BRANCH  40  41
HETATM   41  C   UNK N   1      30.493  14.081   4.854  0.00  0.00     0.004 C 
BRANCH  41  42
HETATM   42  C   UNK N   1      28.971  14.038   4.816  0.00  0.00     0.027 C 
BRANCH  42  43
HETATM   43  C   UNK N   1      28.405  15.419   4.934  0.00  0.00    -0.030 C 
HETATM   44  C   UNK N   1      27.890  16.062   3.887  0.00  0.00    -0.027 C 
BRANCH  44  45
HETATM   45  C   UNK N   1      27.782  15.420   2.535  0.00  0.00     0.053 C 
BRANCH  45  46
HETATM   46  C   UNK N   1      26.380  15.500   2.020  0.00  0.00    -0.027 C 
HETATM   47  C   UNK N   1      25.535  14.462   2.051  0.00  0.00    -0.030 C 
BRANCH  47  48
HETATM   48  C   UNK N   1      25.927  13.126   2.605  0.00  0.00     0.027 C 
BRANCH  48  49
HETATM   49  C   UNK N   1      25.866  12.058   1.527  0.00  0.00     0.004 C 
BRANCH  49  50
HETATM   50  C   UNK N   1      27.030  11.091   1.649  0.00  0.00    -0.000 C 
BRANCH  50  51
HETATM   51  C   UNK N   1      28.289  11.817   2.079  0.00  0.00    -0.005 C 
HETATM   52  C   UNK N   1      29.071  12.236   0.854  0.00  0.00     0.005 C 
ENDBRANCH  50  51
ENDBRANCH  49  50
ENDBRANCH  48  49
ENDBRANCH  47  48
ENDBRANCH  45  46
ENDBRANCH  44  45
ENDBRANCH  42  43
ENDBRANCH  41  42
ENDBRANCH  40  41
ENDBRANCH  39  40
ENDBRANCH  38  39
ENDBRANCH  37  38
ENDBRANCH  36  37
ENDBRANCH  34  36
ENDBRANCH  33  34
ENDBRANCH   1  33
TORSDOF 40
ENDMDL
MODEL 9
REMARK VINA RESULT:      -5.1      2.384      4.970
REMARK WARNING: 32 MAX_TORS EXCEEDED!!!
REMARK  40 active torsions:
REMARK  status: ('A' for Active; 'I' for Inactive)
REMARK    1  A    between atoms: C_2  and  C_1 
REMARK    2  A    between atoms: C_1  and  O_4 
REMARK    3  A    between atoms: C_3  and  C_2 
REMARK    4  A    between atoms: C_2  and  O_6 
REMARK    5  A    between atoms: C_3  and  O_5 
REMARK    6  A    between atoms: O_4  and  P_7 
REMARK    7  A    between atoms: C_32  and  O_5 
REMARK    8  A    between atoms: O_6  and  C_51 
REMARK    9  A    between atoms: P_7  and  O_10 
REMARK   10  A    between atoms: O_10  and  C_11 
REMARK   11  A    between atoms: C_11  and  C_12 
REMARK   12  A    between atoms: C_12  and  N_13 
REMARK   13  A    between atoms: C_18  and  C_19 
REMARK   14  A    between atoms: C_19  and  C_20 
REMARK   15  A    between atoms: C_20  and  C_21 
REMARK   16  A    between atoms: C_21  and  C_22 
REMARK   17  A    between atoms: C_22  and  C_23 
REMARK   18  A    between atoms: C_23  and  C_24 
REMARK   19  A    between atoms: C_24  and  C_25 
REMARK   20  A    between atoms: C_25  and  C_26 
REMARK   21  A    between atoms: C_26  and  C_27 
REMARK   22  A    between atoms: C_27  and  C_28 
REMARK   23  A    between atoms: C_28  and  C_29 
REMARK   24  A    between atoms: C_29  and  C_30 
REMARK   25  A    between atoms: C_30  and  C_31 
REMARK   26  A    between atoms: C_31  and  C_32 
REMARK   27  A    between atoms: C_36  and  C_35 
REMARK   28  A    between atoms: C_37  and  C_36 
REMARK   29  A    between atoms: C_38  and  C_37 
REMARK   30  A    between atoms: C_39  and  C_38 
REMARK   31  A    between atoms: C_41  and  C_40 
REMARK   32  A    between atoms: C_42  and  C_41 
REMARK   33  A    between atoms: C_44  and  C_43 
REMARK   34  A    between atoms: C_45  and  C_44 
REMARK   35  A    between atoms: C_46  and  C_45 
REMARK   36  A    between atoms: C_47  and  C_46 
REMARK   37  A    between atoms: C_48  and  C_47 
REMARK   38  A    between atoms: C_49  and  C_48 
REMARK   39  A    between atoms: C_50  and  C_49 
REMARK   40  A    between atoms: C_51  and  C_50 
ROOT
HETATM    1  C   UNK N   1      19.966  16.102   4.628  0.00  0.00     0.180 C 
ENDROOT
BRANCH   1   2
HETATM    2  C   UNK N   1      19.446  15.109   3.589  0.00  0.00     0.216 C 
BRANCH   2   3
HETATM    3  O   UNK N   1      20.196  13.935   3.548  0.00  0.00    -0.287 OA
BRANCH   3   4
HETATM    4  P   UNK N   1      19.005  12.668   3.612  0.00  0.00     0.408 P 
HETATM    5  O   UNK N   1      18.085  12.560   2.142  0.00  0.00    -0.624 OA
HETATM    6  O   UNK N   1      17.994  13.079   4.713  0.00  0.00    -0.624 OA
BRANCH   4   7
HETATM    7  O   UNK N   1      19.659  11.131   4.110  0.00  0.00    -0.288 OA
BRANCH   7   8
HETATM    8  C   UNK N   1      20.604  11.433   5.093  0.00  0.00     0.209 C 
BRANCH   8   9
HETATM    9  C   UNK N   1      21.611  10.293   5.254  0.00  0.00     0.262 C 
BRANCH   9  10
HETATM   10  N   UNK N   1      22.928  10.581   4.675  0.00  0.00    -0.077 N 
HETATM   11  C   UNK N   1      24.025  10.133   5.524  0.00  0.00     0.271 C 
HETATM   12  C   UNK N   1      23.025   9.874   3.413  0.00  0.00     0.271 C 
HETATM   13  C   UNK N   1      23.067  12.001   4.407  0.00  0.00     0.271 C 
ENDBRANCH   9  10
ENDBRANCH   8   9
ENDBRANCH   7   8
ENDBRANCH   4   7
ENDBRANCH   3   4
ENDBRANCH   2   3
ENDBRANCH   1   2
BRANCH   1  14
HETATM   14  C   UNK N   1      19.117  16.121   5.896  0.00  0.00     0.213 C 
BRANCH  14  15
HETATM   15  O   UNK N   1      19.700  15.433   6.942  0.00  0.00    -0.319 OA
BRANCH  15  16
HETATM   16  C   UNK N   1      20.490  16.037   7.856  0.00  0.00     0.258 C 
HETATM   17  O   UNK N   1      20.742  17.228   7.735  0.00  0.00    -0.265 OA
BRANCH  16  18
HETATM   18  C   UNK N   1      21.063  15.274   9.011  0.00  0.00     0.111 C 
BRANCH  18  19
HETATM   19  C   UNK N   1      20.753  13.785   8.906  0.00  0.00     0.010 C 
BRANCH  19  20
HETATM   20  C   UNK N   1      21.022  13.007  10.198  0.00  0.00     0.000 C 
BRANCH  20  21
HETATM   21  C   UNK N   1      22.507  12.836  10.509  0.00  0.00     0.000 C 
BRANCH  21  22
HETATM   22  C   UNK N   1      23.058  11.574   9.878  0.00  0.00     0.000 C 
BRANCH  22  23
HETATM   23  C   UNK N   1      23.844  11.918   8.626  0.00  0.00     0.000 C 
BRANCH  23  24
HETATM   24  C   UNK N   1      24.508  13.280   8.755  0.00  0.00     0.000 C 
BRANCH  24  25
HETATM   25  C   UNK N   1      24.706  13.957   7.405  0.00  0.00     0.000 C 
BRANCH  25  26
HETATM   26  C   UNK N   1      25.867  14.936   7.442  0.00  0.00     0.000 C 
BRANCH  26  27
HETATM   27  C   UNK N   1      25.979  15.661   6.113  0.00  0.00     0.000 C 
BRANCH  27  28
HETATM   28  C   UNK N   1      25.525  14.754   4.983  0.00  0.00     0.000 C 
BRANCH  28  29
HETATM   29  C   UNK N   1      26.719  14.054   4.360  0.00  0.00     0.000 C 
BRANCH  29  30
HETATM   30  C   UNK N   1      26.438  13.748   2.902  0.00  0.00    -0.000 C 
BRANCH  30  31
HETATM   31  C   UNK N   1      25.808  14.947   2.223  0.00  0.00    -0.005 C 
HETATM   32  C   UNK N   1      24.641  14.511   1.362  0.00  0.00     0.005 C 
ENDBRANCH  30  31
ENDBRANCH  29  30
ENDBRANCH  28  29
ENDBRANCH  27  28
ENDBRANCH  26  27
ENDBRANCH  25  26
ENDBRANCH  24  25
ENDBRANCH  23  24
ENDBRANCH  22  23
ENDBRANCH  21  22
ENDBRANCH  20  21
ENDBRANCH  19  20
ENDBRANCH  18  19
ENDBRANCH  16  18
ENDBRANCH  15  16
ENDBRANCH  14  15
ENDBRANCH   1  14
BRANCH   1  33
HETATM   33  O   UNK N   1      20.124  17.379   4.119  0.00  0.00    -0.312 OA
BRANCH  33  34
HETATM   34  C   UNK N   1      21.320  17.906   3.758  0.00  0.00     0.259 C 
HETATM   35  O   UNK N   1      21.379  18.875   2.997  0.00  0.00    -0.265 OA
BRANCH  34  36
HETATM   36  C   UNK N   1      22.584  17.289   4.217  0.00  0.00     0.111 C 
BRANCH  36  37
HETATM   37  C   UNK N   1      23.198  18.155   5.311  0.00  0.00     0.010 C 
BRANCH  37  38
HETATM   38  C   UNK N   1      24.460  18.847   4.825  0.00  0.00     0.000 C 
BRANCH  38  39
HETATM   39  C   UNK N   1      25.006  18.138   3.598  0.00  0.00     0.000 C 
BRANCH  39  40
HETATM   40  C   UNK N   1      26.497  18.411   3.479  0.00  0.00     0.000 C 
BRANCH  40  41
HETATM   41  C   UNK N   1      26.823  19.878   3.699  0.00  0.00     0.004 C 
BRANCH  41  42
HETATM   42  C   UNK N   1      28.032  20.049   4.609  0.00  0.00     0.027 C 
BRANCH  42  43
HETATM   43  C   UNK N   1      27.633  20.724   5.885  0.00  0.00    -0.030 C 
HETATM   44  C   UNK N   1      27.584  20.068   7.044  0.00  0.00    -0.027 C 
BRANCH  44  45
HETATM   45  C   UNK N   1      27.987  18.627   7.160  0.00  0.00     0.053 C 
BRANCH  45  46
HETATM   46  C   UNK N   1      29.015  18.448   8.233  0.00  0.00    -0.027 C 
HETATM   47  C   UNK N   1      30.011  17.558   8.142  0.00  0.00    -0.030 C 
BRANCH  47  48
HETATM   48  C   UNK N   1      30.179  16.661   6.953  0.00  0.00     0.027 C 
BRANCH  48  49
HETATM   49  C   UNK N   1      31.283  17.174   6.045  0.00  0.00     0.004 C 
BRANCH  49  50
HETATM   50  C   UNK N   1      31.038  16.767   4.603  0.00  0.00    -0.000 C 
BRANCH  50  51
HETATM   51  C   UNK N   1      29.566  16.497   4.364  0.00  0.00    -0.005 C 
HETATM   52  C   UNK N   1      29.313  16.371   2.878  0.00  0.00     0.005 C 
ENDBRANCH  50  51
ENDBRANCH  49  50
ENDBRANCH  48  49
ENDBRANCH  47  48
ENDBRANCH  45  46
ENDBRANCH  44  45
ENDBRANCH  42  43
ENDBRANCH  41  42
ENDBRANCH  40  41
ENDBRANCH  39  40
ENDBRANCH  38  39
ENDBRANCH  37  38
ENDBRANCH  36  37
ENDBRANCH  34  36
ENDBRANCH  33  34
ENDBRANCH   1  33
TORSDOF 40
ENDMDL
