MODEL 1
REMARK VINA RESULT:      -5.5      0.000      0.000
REMARK  2 active torsions:
REMARK  status: ('A' for Active; 'I' for Inactive)
REMARK       I    between atoms: N_1  and  C_2 
REMARK    1  A    between atoms: C_9  and  C_10 
REMARK    2  A    between atoms: C_10  and  O_11 
ROOT
HETATM    1  N   UNK N   1      37.547  13.397  11.738  0.00  0.00    -0.234 N 
HETATM    2  C   UNK N   1      36.540  14.192  11.157  0.00  0.00     0.680 A 
HETATM    3  N   UNK N   1      35.429  13.605  10.643  0.00  0.00    -0.175 N 
ATOM      4  HN  UNK N   1      35.333  12.591  10.682  1.00  0.00     0.186 HD
HETATM    5  C   UNK N   1      34.446  14.349  10.079  0.00  0.00     0.149 A 
HETATM    6  C   UNK N   1      34.561  15.737  10.016  0.00  0.00     0.146 A 
HETATM    7  N   UNK N   1      33.526  16.508   9.423  0.00  0.00    -0.352 N 
ATOM      8  HN  UNK N   1      33.628  17.523   9.387  1.00  0.00     0.166 HD
HETATM    9  C   UNK N   1      32.456  15.970   8.926  0.00  0.00     0.028 A 
HETATM   10  C   UNK N   1      32.225  14.473   8.938  0.00  0.00     0.176 A 
HETATM   11  N   UNK N   1      33.300  13.721   9.550  0.00  0.00    -0.368 N 
HETATM   12  C   UNK N   1      35.710  16.333  10.549  0.00  0.00     0.290 A 
HETATM   13  O   UNK N   1      35.855  17.542  10.518  0.00  0.00    -0.265 OA
HETATM   14  N   UNK N   1      36.682  15.545  11.112  0.00  0.00    -0.154 N 
HETATM   15  H   UNK N   1      38.353  13.820  12.112  0.00  0.00     0.174 HD
HETATM   16  H   UNK N   1      37.443  12.418  11.771  0.00  0.00     0.174 HD
HETATM   17  H   UNK N   1      33.228  12.740   9.599  0.00  0.00     0.161 HD
HETATM   18  H   UNK N   1      37.490  15.962  11.487  0.00  0.00     0.187 HD
ENDROOT
BRANCH   9  19
HETATM   19  C   UNK N   1      31.389  16.824   8.309  0.00  0.00     0.218 C 
BRANCH  19  20
HETATM   20  O   UNK N   1      31.062  17.908   9.123  0.00  0.00    -0.395 OA
HETATM   21  H   UNK N   1      30.313  17.844   9.737  0.00  0.00     0.209 HD
ENDBRANCH  19  20
ENDBRANCH   9  19
TORSDOF 2
ENDMDL
MODEL 2
REMARK VINA RESULT:      -5.4     11.055     13.632
REMARK  2 active torsions:
REMARK  status: ('A' for Active; 'I' for Inactive)
REMARK       I    between atoms: N_1  and  C_2 
REMARK    1  A    between atoms: C_9  and  C_10 
REMARK    2  A    between atoms: C_10  and  O_11 
ROOT
HETATM    1  N   UNK N   1      26.175  17.895   5.800  0.00  0.00    -0.234 N 
HETATM    2  C   UNK N   1      25.314  18.564   4.909  0.00  0.00     0.680 A 
HETATM    3  N   UNK N   1      23.973  18.374   4.995  0.00  0.00    -0.175 N 
ATOM      4  HN  UNK N   1      23.599  17.747   5.707  1.00  0.00     0.186 HD
HETATM    5  C   UNK N   1      23.124  19.006   4.148  0.00  0.00     0.149 A 
HETATM    6  C   UNK N   1      23.617  19.866   3.169  0.00  0.00     0.146 A 
HETATM    7  N   UNK N   1      22.720  20.525   2.286  0.00  0.00    -0.352 N 
ATOM      8  HN  UNK N   1      23.100  21.151   1.575  1.00  0.00     0.166 HD
HETATM    9  C   UNK N   1      21.435  20.359   2.349  0.00  0.00     0.028 A 
HETATM   10  C   UNK N   1      20.789  19.448   3.372  0.00  0.00     0.176 A 
HETATM   11  N   UNK N   1      21.733  18.796   4.254  0.00  0.00    -0.368 N 
HETATM   12  C   UNK N   1      25.002  20.056   3.087  0.00  0.00     0.290 A 
HETATM   13  O   UNK N   1      25.480  20.799   2.248  0.00  0.00    -0.265 OA
HETATM   14  N   UNK N   1      25.827  19.398   3.963  0.00  0.00    -0.154 N 
HETATM   15  H   UNK N   1      27.148  18.031   5.740  0.00  0.00     0.174 HD
HETATM   16  H   UNK N   1      25.803  17.292   6.484  0.00  0.00     0.174 HD
HETATM   17  H   UNK N   1      21.395  18.186   4.948  0.00  0.00     0.161 HD
HETATM   18  H   UNK N   1      26.801  19.530   3.908  0.00  0.00     0.187 HD
ENDROOT
BRANCH   9  19
HETATM   19  C   UNK N   1      20.526  21.075   1.396  0.00  0.00     0.218 C 
BRANCH  19  20
HETATM   20  O   UNK N   1      20.614  20.549   0.107  0.00  0.00    -0.395 OA
HETATM   21  H   UNK N   1      20.370  21.095  -0.657  0.00  0.00     0.209 HD
ENDBRANCH  19  20
ENDBRANCH   9  19
TORSDOF 2
ENDMDL
MODEL 3
REMARK VINA RESULT:      -5.4      2.564      4.950
REMARK  2 active torsions:
REMARK  status: ('A' for Active; 'I' for Inactive)
REMARK       I    between atoms: N_1  and  C_2 
REMARK    1  A    between atoms: C_9  and  C_10 
REMARK    2  A    between atoms: C_10  and  O_11 
ROOT
HETATM    1  N   UNK N   1      33.713  14.058   8.111  0.00  0.00    -0.234 N 
HETATM    2  C   UNK N   1      34.385  14.248   9.334  0.00  0.00     0.680 A 
HETATM    3  N   UNK N   1      34.184  13.379  10.356  0.00  0.00    -0.175 N 
ATOM      4  HN  UNK N   1      33.546  12.593  10.230  1.00  0.00     0.186 HD
HETATM    5  C   UNK N   1      34.819  13.540  11.543  0.00  0.00     0.149 A 
HETATM    6  C   UNK N   1      35.694  14.607  11.734  0.00  0.00     0.146 A 
HETATM    7  N   UNK N   1      36.355  14.769  12.981  0.00  0.00    -0.352 N 
ATOM      8  HN  UNK N   1      36.993  15.557  13.101  1.00  0.00     0.166 HD
HETATM    9  C   UNK N   1      36.179  13.951  13.972  0.00  0.00     0.028 A 
HETATM   10  C   UNK N   1      35.252  12.757  13.878  0.00  0.00     0.176 A 
HETATM   11  N   UNK N   1      34.597  12.626  12.594  0.00  0.00    -0.368 N 
HETATM   12  C   UNK N   1      35.896  15.499  10.673  0.00  0.00     0.290 A 
HETATM   13  O   UNK N   1      36.651  16.448  10.792  0.00  0.00    -0.265 OA
HETATM   14  N   UNK N   1      35.233  15.301   9.488  0.00  0.00    -0.154 N 
HETATM   15  H   UNK N   1      33.857  14.687   7.367  0.00  0.00     0.174 HD
HETATM   16  H   UNK N   1      33.099  13.296   8.000  0.00  0.00     0.174 HD
HETATM   17  H   UNK N   1      33.977  11.875  12.449  0.00  0.00     0.161 HD
HETATM   18  H   UNK N   1      35.374  15.926   8.741  0.00  0.00     0.187 HD
ENDROOT
BRANCH   9  19
HETATM   19  C   UNK N   1      36.898  14.161  15.271  0.00  0.00     0.218 C 
BRANCH  19  20
HETATM   20  O   UNK N   1      37.639  15.342  15.264  0.00  0.00    -0.395 OA
HETATM   21  H   UNK N   1      38.602  15.312  15.384  0.00  0.00     0.209 HD
ENDBRANCH  19  20
ENDBRANCH   9  19
TORSDOF 2
ENDMDL
MODEL 4
REMARK VINA RESULT:      -5.4      3.566      4.800
REMARK  2 active torsions:
REMARK  status: ('A' for Active; 'I' for Inactive)
REMARK       I    between atoms: N_1  and  C_2 
REMARK    1  A    between atoms: C_9  and  C_10 
REMARK    2  A    between atoms: C_10  and  O_11 
ROOT
HETATM    1  N   UNK N   1      35.225  10.663  16.404  0.00  0.00    -0.234 N 
HETATM    2  C   UNK N   1      35.506  11.750  15.554  0.00  0.00     0.680 A 
HETATM    3  N   UNK N   1      34.932  11.812  14.326  0.00  0.00    -0.175 N 
ATOM      4  HN  UNK N   1      34.301  11.069  14.027  1.00  0.00     0.186 HD
HETATM    5  C   UNK N   1      35.187  12.849  13.490  0.00  0.00     0.149 A 
HETATM    6  C   UNK N   1      36.046  13.874  13.881  0.00  0.00     0.146 A 
HETATM    7  N   UNK N   1      36.307  14.957  12.998  0.00  0.00    -0.352 N 
ATOM      8  HN  UNK N   1      36.940  15.698  13.303  1.00  0.00     0.166 HD
HETATM    9  C   UNK N   1      35.771  15.037  11.820  0.00  0.00     0.028 A 
HETATM   10  C   UNK N   1      34.823  13.982  11.291  0.00  0.00     0.176 A 
HETATM   11  N   UNK N   1      34.581  12.896  12.217  0.00  0.00    -0.368 N 
HETATM   12  C   UNK N   1      36.633  13.801  15.150  0.00  0.00     0.290 A 
HETATM   13  O   UNK N   1      37.391  14.674  15.536  0.00  0.00    -0.265 OA
HETATM   14  N   UNK N   1      36.350  12.735  15.966  0.00  0.00    -0.154 N 
HETATM   15  H   UNK N   1      35.639  10.615  17.295  0.00  0.00     0.174 HD
HETATM   16  H   UNK N   1      34.614   9.950  16.105  0.00  0.00     0.174 HD
HETATM   17  H   UNK N   1      33.976  12.167  11.950  0.00  0.00     0.161 HD
HETATM   18  H   UNK N   1      36.761  12.682  16.858  0.00  0.00     0.187 HD
ENDROOT
BRANCH   9  19
HETATM   19  C   UNK N   1      36.075  16.199  10.922  0.00  0.00     0.218 C 
BRANCH  19  20
HETATM   20  O   UNK N   1      35.021  17.111  10.884  0.00  0.00    -0.395 OA
HETATM   21  H   UNK N   1      34.192  16.913  11.348  0.00  0.00     0.209 HD
ENDBRANCH  19  20
ENDBRANCH   9  19
TORSDOF 2
ENDMDL
MODEL 5
REMARK VINA RESULT:      -5.3      2.917      3.446
REMARK  2 active torsions:
REMARK  status: ('A' for Active; 'I' for Inactive)
REMARK       I    between atoms: N_1  and  C_2 
REMARK    1  A    between atoms: C_9  and  C_10 
REMARK    2  A    between atoms: C_10  and  O_11 
ROOT
HETATM    1  N   UNK N   1      34.604  15.549  11.363  0.00  0.00    -0.234 N 
HETATM    2  C   UNK N   1      34.365  16.103  10.090  0.00  0.00     0.680 A 
HETATM    3  N   UNK N   1      33.699  15.380   9.154  0.00  0.00    -0.175 N 
ATOM      4  HN  UNK N   1      33.377  14.439   9.381  1.00  0.00     0.186 HD
HETATM    5  C   UNK N   1      33.457  15.890   7.922  0.00  0.00     0.149 A 
HETATM    6  C   UNK N   1      33.889  17.174   7.594  0.00  0.00     0.146 A 
HETATM    7  N   UNK N   1      33.631  17.701   6.300  0.00  0.00    -0.352 N 
ATOM      8  HN  UNK N   1      33.956  18.643   6.079  1.00  0.00     0.166 HD
HETATM    9  C   UNK N   1      32.997  17.029   5.390  0.00  0.00     0.028 A 
HETATM   10  C   UNK N   1      32.481  15.626   5.635  0.00  0.00     0.176 A 
HETATM   11  N   UNK N   1      32.763  15.123   6.962  0.00  0.00    -0.368 N 
HETATM   12  C   UNK N   1      34.576  17.912   8.566  0.00  0.00     0.290 A 
HETATM   13  O   UNK N   1      34.973  19.039   8.326  0.00  0.00    -0.265 OA
HETATM   14  N   UNK N   1      34.801  17.359   9.801  0.00  0.00    -0.154 N 
HETATM   15  H   UNK N   1      35.087  16.071  12.043  0.00  0.00     0.174 HD
HETATM   16  H   UNK N   1      34.288  14.640  11.571  0.00  0.00     0.174 HD
HETATM   17  H   UNK N   1      32.461  14.218   7.204  0.00  0.00     0.161 HD
HETATM   18  H   UNK N   1      35.283  17.876  10.485  0.00  0.00     0.187 HD
ENDROOT
BRANCH   9  19
HETATM   19  C   UNK N   1      32.747  17.626   4.037  0.00  0.00     0.218 C 
BRANCH  19  20
HETATM   20  O   UNK N   1      31.436  18.085   3.911  0.00  0.00    -0.395 OA
HETATM   21  H   UNK N   1      31.221  18.764   3.253  0.00  0.00     0.209 HD
ENDBRANCH  19  20
ENDBRANCH   9  19
TORSDOF 2
ENDMDL
MODEL 6
REMARK VINA RESULT:      -5.3      1.774      1.792
REMARK  2 active torsions:
REMARK  status: ('A' for Active; 'I' for Inactive)
REMARK       I    between atoms: N_1  and  C_2 
REMARK    1  A    between atoms: C_9  and  C_10 
REMARK    2  A    between atoms: C_10  and  O_11 
ROOT
HETATM    1  N   UNK N   1      35.329  13.655  13.052  0.00  0.00    -0.234 N 
HETATM    2  C   UNK N   1      35.038  14.448  11.925  0.00  0.00     0.680 A 
HETATM    3  N   UNK N   1      34.122  14.023  11.019  0.00  0.00    -0.175 N 
ATOM      4  HN  UNK N   1      33.650  13.130  11.161  1.00  0.00     0.186 HD
HETATM    5  C   UNK N   1      33.824  14.769   9.926  0.00  0.00     0.149 A 
HETATM    6  C   UNK N   1      34.458  15.991   9.714  0.00  0.00     0.146 A 
HETATM    7  N   UNK N   1      34.140  16.766   8.567  0.00  0.00    -0.352 N 
ATOM      8  HN  UNK N   1      34.615  17.659   8.429  1.00  0.00     0.166 HD
HETATM    9  C   UNK N   1      33.269  16.380   7.687  0.00  0.00     0.028 A 
HETATM   10  C   UNK N   1      32.520  15.070   7.815  0.00  0.00     0.176 A 
HETATM   11  N   UNK N   1      32.869  14.309   8.995  0.00  0.00    -0.368 N 
HETATM   12  C   UNK N   1      35.402  16.422  10.655  0.00  0.00     0.290 A 
HETATM   13  O   UNK N   1      35.982  17.484  10.513  0.00  0.00    -0.265 OA
HETATM   14  N   UNK N   1      35.674  15.638  11.747  0.00  0.00    -0.154 N 
HETATM   15  H   UNK N   1      35.993  13.961  13.711  0.00  0.00     0.174 HD
HETATM   16  H   UNK N   1      34.868  12.795  13.180  0.00  0.00     0.174 HD
HETATM   17  H   UNK N   1      32.427  13.444   9.154  0.00  0.00     0.161 HD
HETATM   18  H   UNK N   1      36.337  15.939  12.409  0.00  0.00     0.187 HD
ENDROOT
BRANCH   9  19
HETATM   19  C   UNK N   1      32.965  17.231   6.491  0.00  0.00     0.218 C 
BRANCH  19  20
HETATM   20  O   UNK N   1      34.106  17.873   6.012  0.00  0.00    -0.395 OA
HETATM   21  H   UNK N   1      34.043  18.773   5.655  0.00  0.00     0.209 HD
ENDBRANCH  19  20
ENDBRANCH   9  19
TORSDOF 2
ENDMDL
MODEL 7
REMARK VINA RESULT:      -5.2      2.456      2.995
REMARK  2 active torsions:
REMARK  status: ('A' for Active; 'I' for Inactive)
REMARK       I    between atoms: N_1  and  C_2 
REMARK    1  A    between atoms: C_9  and  C_10 
REMARK    2  A    between atoms: C_10  and  O_11 
ROOT
HETATM    1  N   UNK N   1      36.789  14.183  13.691  0.00  0.00    -0.234 N 
HETATM    2  C   UNK N   1      36.374  14.406  12.364  0.00  0.00     0.680 A 
HETATM    3  N   UNK N   1      35.890  15.622  12.004  0.00  0.00    -0.175 N 
ATOM      4  HN  UNK N   1      35.831  16.366  12.699  1.00  0.00     0.186 HD
HETATM    5  C   UNK N   1      35.485  15.862  10.732  0.00  0.00     0.149 A 
HETATM    6  C   UNK N   1      35.558  14.857   9.769  0.00  0.00     0.146 A 
HETATM    7  N   UNK N   1      35.131  15.117   8.439  0.00  0.00    -0.352 N 
ATOM      8  HN  UNK N   1      35.192  14.369   7.748  1.00  0.00     0.166 HD
HETATM    9  C   UNK N   1      34.665  16.271   8.071  0.00  0.00     0.028 A 
HETATM   10  C   UNK N   1      34.540  17.434   9.033  0.00  0.00     0.176 A 
HETATM   11  N   UNK N   1      34.985  17.132  10.377  0.00  0.00    -0.368 N 
HETATM   12  C   UNK N   1      36.058  13.606  10.150  0.00  0.00     0.290 A 
HETATM   13  O   UNK N   1      36.142  12.697   9.343  0.00  0.00    -0.265 OA
HETATM   14  N   UNK N   1      36.458  13.405  11.447  0.00  0.00    -0.154 N 
HETATM   15  H   UNK N   1      37.140  13.303  13.956  0.00  0.00     0.174 HD
HETATM   16  H   UNK N   1      36.727  14.909  14.354  0.00  0.00     0.174 HD
HETATM   17  H   UNK N   1      34.937  17.835  11.065  0.00  0.00     0.161 HD
HETATM   18  H   UNK N   1      36.810  12.526  11.717  0.00  0.00     0.187 HD
ENDROOT
BRANCH   9  19
HETATM   19  C   UNK N   1      34.226  16.500   6.656  0.00  0.00     0.218 C 
BRANCH  19  20
HETATM   20  O   UNK N   1      34.309  17.846   6.302  0.00  0.00    -0.395 OA
HETATM   21  H   UNK N   1      33.547  18.431   6.437  0.00  0.00     0.209 HD
ENDBRANCH  19  20
ENDBRANCH   9  19
TORSDOF 2
ENDMDL
MODEL 8
REMARK VINA RESULT:      -5.0     11.741     14.640
REMARK  2 active torsions:
REMARK  status: ('A' for Active; 'I' for Inactive)
REMARK       I    between atoms: N_1  and  C_2 
REMARK    1  A    between atoms: C_9  and  C_10 
REMARK    2  A    between atoms: C_10  and  O_11 
ROOT
HETATM    1  N   UNK N   1      18.602  18.635   2.311  0.00  0.00    -0.234 N 
HETATM    2  C   UNK N   1      19.935  18.887   2.689  0.00  0.00     0.680 A 
HETATM    3  N   UNK N   1      20.678  17.897   3.244  0.00  0.00    -0.175 N 
ATOM      4  HN  UNK N   1      20.264  16.975   3.384  1.00  0.00     0.186 HD
HETATM    5  C   UNK N   1      21.964  18.115   3.617  0.00  0.00     0.149 A 
HETATM    6  C   UNK N   1      22.547  19.367   3.434  0.00  0.00     0.146 A 
HETATM    7  N   UNK N   1      23.894  19.587   3.827  0.00  0.00    -0.352 N 
ATOM      8  HN  UNK N   1      24.303  20.511   3.685  1.00  0.00     0.166 HD
HETATM    9  C   UNK N   1      24.623  18.656   4.360  0.00  0.00     0.028 A 
HETATM   10  C   UNK N   1      24.094  17.258   4.605  0.00  0.00     0.176 A 
HETATM   11  N   UNK N   1      22.720  17.072   4.192  0.00  0.00    -0.368 N 
HETATM   12  C   UNK N   1      21.772  20.384   2.860  0.00  0.00     0.290 A 
HETATM   13  O   UNK N   1      22.238  21.495   2.681  0.00  0.00    -0.265 OA
HETATM   14  N   UNK N   1      20.475  20.122   2.497  0.00  0.00    -0.154 N 
HETATM   15  H   UNK N   1      18.061  19.351   1.908  0.00  0.00     0.174 HD
HETATM   16  H   UNK N   1      18.213  17.742   2.450  0.00  0.00     0.174 HD
HETATM   17  H   UNK N   1      22.299  16.191   4.317  0.00  0.00     0.161 HD
HETATM   18  H   UNK N   1      19.930  20.834   2.094  0.00  0.00     0.187 HD
ENDROOT
BRANCH   9  19
HETATM   19  C   UNK N   1      26.041  18.933   4.759  0.00  0.00     0.218 C 
BRANCH  19  20
HETATM   20  O   UNK N   1      26.449  20.206   4.362  0.00  0.00    -0.395 OA
HETATM   21  H   UNK N   1      26.249  20.975   4.919  0.00  0.00     0.209 HD
ENDBRANCH  19  20
ENDBRANCH   9  19
TORSDOF 2
ENDMDL
MODEL 9
REMARK VINA RESULT:      -4.8      4.804      6.326
REMARK  2 active torsions:
REMARK  status: ('A' for Active; 'I' for Inactive)
REMARK       I    between atoms: N_1  and  C_2 
REMARK    1  A    between atoms: C_9  and  C_10 
REMARK    2  A    between atoms: C_10  and  O_11 
ROOT
HETATM    1  N   UNK N   1      33.766  13.940   1.716  0.00  0.00    -0.234 N 
HETATM    2  C   UNK N   1      33.706  14.811   2.822  0.00  0.00     0.680 A 
HETATM    3  N   UNK N   1      34.345  14.484   3.973  0.00  0.00    -0.175 N 
ATOM      4  HN  UNK N   1      34.865  13.609   4.029  1.00  0.00     0.186 HD
HETATM    5  C   UNK N   1      34.302  15.306   5.051  0.00  0.00     0.149 A 
HETATM    6  C   UNK N   1      33.597  16.506   4.993  0.00  0.00     0.146 A 
HETATM    7  N   UNK N   1      33.557  17.361   6.128  0.00  0.00    -0.352 N 
ATOM      8  HN  UNK N   1      33.035  18.236   6.066  1.00  0.00     0.166 HD
HETATM    9  C   UNK N   1      34.160  17.071   7.238  0.00  0.00     0.028 A 
HETATM   10  C   UNK N   1      34.956  15.794   7.414  0.00  0.00     0.176 A 
HETATM   11  N   UNK N   1      34.973  14.949   6.239  0.00  0.00    -0.368 N 
HETATM   12  C   UNK N   1      32.940  16.835   3.801  0.00  0.00     0.290 A 
HETATM   13  O   UNK N   1      32.311  17.873   3.703  0.00  0.00    -0.265 OA
HETATM   14  N   UNK N   1      33.008  15.976   2.733  0.00  0.00    -0.154 N 
HETATM   15  H   UNK N   1      33.303  14.174   0.880  0.00  0.00     0.174 HD
HETATM   16  H   UNK N   1      34.271  13.097   1.781  0.00  0.00     0.174 HD
HETATM   17  H   UNK N   1      35.469  14.099   6.270  0.00  0.00     0.161 HD
HETATM   18  H   UNK N   1      32.547  16.205   1.894  0.00  0.00     0.187 HD
ENDROOT
BRANCH   9  19
HETATM   19  C   UNK N   1      34.091  18.004   8.410  0.00  0.00     0.218 C 
BRANCH  19  20
HETATM   20  O   UNK N   1      34.980  19.070   8.273  0.00  0.00    -0.395 OA
HETATM   21  H   UNK N   1      35.666  19.044   7.587  0.00  0.00     0.209 HD
ENDBRANCH  19  20
ENDBRANCH   9  19
TORSDOF 2
ENDMDL
