MODEL 1
REMARK VINA RESULT:      -7.1      0.000      0.000
REMARK  12 active torsions:
REMARK  status: ('A' for Active; 'I' for Inactive)
REMARK    1  A    between atoms: C_5  and  C_2 
REMARK    2  A    between atoms: O_14  and  C_2 
REMARK    3  A    between atoms: C_3  and  O_15 
REMARK    4  A    between atoms: C_10  and  C_4 
REMARK    5  A    between atoms: C_6  and  N_13 
REMARK    6  A    between atoms: C_7  and  O_16 
REMARK    7  A    between atoms: C_8  and  O_29 
REMARK    8  A    between atoms: C_9  and  O_28 
REMARK    9  A    between atoms: C_11  and  O_19 
REMARK   10  A    between atoms: C_12  and  O_28 
REMARK   11  A    between atoms: S_30  and  N_13 
REMARK   12  A    between atoms: S_31  and  O_29 
ROOT
HETATM    1  C   UNK N   1      34.415  17.103   8.146  0.00  0.00     0.179 C 
HETATM    2  C   UNK N   1      34.370  15.186  10.327  0.00  0.00     0.181 C 
HETATM    3  C   UNK N   1      33.117  15.240   9.455  0.00  0.00     0.178 C 
HETATM    4  C   UNK N   1      33.002  16.507   8.562  0.00  0.00     0.186 C 
HETATM    5  C   UNK N   1      35.527  15.392   9.346  0.00  0.00     0.283 C 
HETATM    6  O   UNK N   1      35.519  16.733   8.950  0.00  0.00    -0.349 OA
ENDROOT
BRANCH   4   7
HETATM    7  O   UNK N   1      32.238  16.025   7.450  0.00  0.00    -0.347 OA
BRANCH   7   8
HETATM    8  C   UNK N   1      31.671  16.897   6.484  0.00  0.00     0.300 C 
HETATM    9  C   UNK N   1      31.786  16.392   5.017  0.00  0.00     0.233 C 
HETATM   10  C   UNK N   1      30.981  17.353   4.109  0.00  0.00     0.179 C 
HETATM   11  C   UNK N   1      29.589  17.520   4.637  0.00  0.00     0.051 C 
HETATM   12  C   UNK N   1      29.365  17.517   5.963  0.00  0.00     0.147 C 
HETATM   13  O   UNK N   1      30.384  17.289   6.837  0.00  0.00    -0.311 OA
BRANCH   9  14
HETATM   14  O   UNK N   1      33.091  16.047   4.478  0.00  0.00    -0.244 OA
BRANCH  14  15
HETATM   15  S   UNK N   1      33.539  14.638   3.470  0.00  0.00     0.252 S 
HETATM   16  O   UNK N   1      32.067  14.211   4.219  0.00  0.00    -0.572 OA
HETATM   17  O   UNK N   1      33.650  15.804   2.492  0.00  0.00    -0.572 OA
HETATM   18  O   UNK N   1      32.461  14.360   2.410  0.00  0.00    -0.572 OA
ENDBRANCH  14  15
ENDBRANCH   9  14
BRANCH  10  19
HETATM   19  O   UNK N   1      30.928  16.867   2.803  0.00  0.00    -0.389 OA
HETATM   20  H   UNK N   1      30.947  17.008   1.843  0.00  0.00     0.210 HD
ENDBRANCH  10  19
BRANCH  12  21
HETATM   21  C   UNK N   1      27.997  17.720   6.489  0.00  0.00     0.233 C 
HETATM   22  O   UNK N   1      27.264  16.772   6.702  0.00  0.00    -0.642 OA
HETATM   23  O   UNK N   1      27.565  18.970   6.753  0.00  0.00    -0.642 OA
ENDBRANCH  12  21
ENDBRANCH   7   8
ENDBRANCH   4   7
BRANCH   1  24
HETATM   24  C   UNK N   1      34.442  18.636   8.310  0.00  0.00     0.198 C 
BRANCH  24  25
HETATM   25  O   UNK N   1      35.576  19.149   8.926  0.00  0.00    -0.398 OA
HETATM   26  H   UNK N   1      35.610  19.638   9.763  0.00  0.00     0.209 HD
ENDBRANCH  24  25
ENDBRANCH   1  24
BRANCH   3  27
HETATM   27  O   UNK N   1      31.963  15.091  10.233  0.00  0.00    -0.391 OA
HETATM   28  H   UNK N   1      31.782  14.560  11.024  0.00  0.00     0.210 HD
ENDBRANCH   3  27
BRANCH   2  29
HETATM   29  N   UNK N   1      34.438  13.868  10.975  0.00  0.00    -0.289 N 
HETATM   30  H   UNK N   1      33.967  13.037  10.617  0.00  0.00     0.175 HD
BRANCH  29  31
HETATM   31  S   UNK N   1      35.434  13.881  12.453  0.00  0.00     0.205 S 
HETATM   32  O   UNK N   1      34.673  13.253  13.861  0.00  0.00    -0.578 OA
HETATM   33  O   UNK N   1      35.828  15.338  12.731  0.00  0.00    -0.578 OA
HETATM   34  O   UNK N   1      36.773  13.170  12.203  0.00  0.00    -0.578 OA
ENDBRANCH  29  31
ENDBRANCH   2  29
BRANCH   5  35
HETATM   35  O   UNK N   1      36.753  15.148   9.957  0.00  0.00    -0.369 OA
HETATM   36  H   UNK N   1      37.248  15.871  10.375  0.00  0.00     0.212 HD
ENDBRANCH   5  35
TORSDOF 12
ENDMDL
MODEL 2
REMARK VINA RESULT:      -7.1      8.036     12.168
REMARK  12 active torsions:
REMARK  status: ('A' for Active; 'I' for Inactive)
REMARK    1  A    between atoms: C_5  and  C_2 
REMARK    2  A    between atoms: O_14  and  C_2 
REMARK    3  A    between atoms: C_3  and  O_15 
REMARK    4  A    between atoms: C_10  and  C_4 
REMARK    5  A    between atoms: C_6  and  N_13 
REMARK    6  A    between atoms: C_7  and  O_16 
REMARK    7  A    between atoms: C_8  and  O_29 
REMARK    8  A    between atoms: C_9  and  O_28 
REMARK    9  A    between atoms: C_11  and  O_19 
REMARK   10  A    between atoms: C_12  and  O_28 
REMARK   11  A    between atoms: S_30  and  N_13 
REMARK   12  A    between atoms: S_31  and  O_29 
ROOT
HETATM    1  C   UNK N   1      20.308  17.185   4.571  0.00  0.00     0.179 C 
HETATM    2  C   UNK N   1      21.080  15.810   7.011  0.00  0.00     0.181 C 
HETATM    3  C   UNK N   1      22.146  16.702   6.376  0.00  0.00     0.178 C 
HETATM    4  C   UNK N   1      21.860  17.108   4.903  0.00  0.00     0.186 C 
HETATM    5  C   UNK N   1      19.769  16.569   6.794  0.00  0.00     0.283 C 
HETATM    6  O   UNK N   1      19.440  16.478   5.437  0.00  0.00    -0.349 OA
ENDROOT
BRANCH   4   7
HETATM    7  O   UNK N   1      22.526  18.373   4.803  0.00  0.00    -0.347 OA
BRANCH   7   8
HETATM    8  C   UNK N   1      23.640  18.578   3.947  0.00  0.00     0.300 C 
HETATM    9  C   UNK N   1      23.812  20.044   3.457  0.00  0.00     0.233 C 
HETATM   10  C   UNK N   1      25.149  20.143   2.684  0.00  0.00     0.179 C 
HETATM   11  C   UNK N   1      26.270  19.593   3.512  0.00  0.00     0.051 C 
HETATM   12  C   UNK N   1      26.054  18.549   4.332  0.00  0.00     0.147 C 
HETATM   13  O   UNK N   1      24.804  18.028   4.475  0.00  0.00    -0.311 OA
BRANCH   9  14
HETATM   14  O   UNK N   1      22.707  20.711   2.788  0.00  0.00    -0.244 OA
BRANCH  14  15
HETATM   15  S   UNK N   1      21.262  19.975   2.031  0.00  0.00     0.252 S 
HETATM   16  O   UNK N   1      20.675  20.855   3.369  0.00  0.00    -0.572 OA
HETATM   17  O   UNK N   1      21.958  20.648   0.852  0.00  0.00    -0.572 OA
HETATM   18  O   UNK N   1      20.277  21.059   1.567  0.00  0.00    -0.572 OA
ENDBRANCH  14  15
ENDBRANCH   9  14
BRANCH  10  19
HETATM   19  O   UNK N   1      25.425  21.468   2.348  0.00  0.00    -0.389 OA
HETATM   20  H   UNK N   1      25.710  22.140   1.708  0.00  0.00     0.210 HD
ENDBRANCH  10  19
BRANCH  12  21
HETATM   21  C   UNK N   1      27.166  17.979   5.122  0.00  0.00     0.233 C 
HETATM   22  O   UNK N   1      28.153  18.644   5.380  0.00  0.00    -0.642 OA
HETATM   23  O   UNK N   1      27.077  16.713   5.580  0.00  0.00    -0.642 OA
ENDBRANCH  12  21
ENDBRANCH   7   8
ENDBRANCH   4   7
BRANCH   1  24
HETATM   24  C   UNK N   1      19.992  16.500   3.226  0.00  0.00     0.198 C 
BRANCH  24  25
HETATM   25  O   UNK N   1      19.278  15.312   3.317  0.00  0.00    -0.398 OA
HETATM   26  H   UNK N   1      19.647  14.420   3.412  0.00  0.00     0.209 HD
ENDBRANCH  24  25
ENDBRANCH   1  24
BRANCH   3  27
HETATM   27  O   UNK N   1      23.412  16.112   6.477  0.00  0.00    -0.391 OA
HETATM   28  H   UNK N   1      24.305  16.480   6.383  0.00  0.00     0.210 HD
ENDBRANCH   3  27
BRANCH   2  29
HETATM   29  N   UNK N   1      21.385  15.654   8.440  0.00  0.00    -0.289 N 
HETATM   30  H   UNK N   1      21.879  16.355   8.993  0.00  0.00     0.175 HD
BRANCH  29  31
HETATM   31  S   UNK N   1      20.799  14.107   9.102  0.00  0.00     0.205 S 
HETATM   32  O   UNK N   1      19.269  14.170   9.882  0.00  0.00    -0.578 OA
HETATM   33  O   UNK N   1      21.836  13.617  10.121  0.00  0.00    -0.578 OA
HETATM   34  O   UNK N   1      20.802  13.023   8.011  0.00  0.00    -0.578 OA
ENDBRANCH  29  31
ENDBRANCH   2  29
BRANCH   5  35
HETATM   35  O   UNK N   1      18.729  15.990   7.511  0.00  0.00    -0.369 OA
HETATM   36  H   UNK N   1      17.807  16.225   7.322  0.00  0.00     0.212 HD
ENDBRANCH   5  35
TORSDOF 12
ENDMDL
MODEL 3
REMARK VINA RESULT:      -7.1      3.174      4.585
REMARK  12 active torsions:
REMARK  status: ('A' for Active; 'I' for Inactive)
REMARK    1  A    between atoms: C_5  and  C_2 
REMARK    2  A    between atoms: O_14  and  C_2 
REMARK    3  A    between atoms: C_3  and  O_15 
REMARK    4  A    between atoms: C_10  and  C_4 
REMARK    5  A    between atoms: C_6  and  N_13 
REMARK    6  A    between atoms: C_7  and  O_16 
REMARK    7  A    between atoms: C_8  and  O_29 
REMARK    8  A    between atoms: C_9  and  O_28 
REMARK    9  A    between atoms: C_11  and  O_19 
REMARK   10  A    between atoms: C_12  and  O_28 
REMARK   11  A    between atoms: S_30  and  N_13 
REMARK   12  A    between atoms: S_31  and  O_29 
ROOT
HETATM    1  C   UNK N   1      35.774  15.315  10.520  0.00  0.00     0.179 C 
HETATM    2  C   UNK N   1      35.238  13.078  12.294  0.00  0.00     0.181 C 
HETATM    3  C   UNK N   1      35.029  12.818  10.803  0.00  0.00     0.178 C 
HETATM    4  C   UNK N   1      34.941  14.099   9.926  0.00  0.00     0.186 C 
HETATM    5  C   UNK N   1      36.469  13.987  12.353  0.00  0.00     0.283 C 
HETATM    6  O   UNK N   1      36.088  15.254  11.898  0.00  0.00    -0.349 OA
ENDROOT
BRANCH   4   7
HETATM    7  O   UNK N   1      35.432  13.635   8.663  0.00  0.00    -0.347 OA
BRANCH   7   8
HETATM    8  C   UNK N   1      34.745  13.881   7.445  0.00  0.00     0.300 C 
HETATM    9  C   UNK N   1      33.298  13.315   7.398  0.00  0.00     0.233 C 
HETATM   10  C   UNK N   1      32.627  13.806   6.093  0.00  0.00     0.179 C 
HETATM   11  C   UNK N   1      32.752  15.295   5.974  0.00  0.00     0.051 C 
HETATM   12  C   UNK N   1      33.853  15.918   6.429  0.00  0.00     0.147 C 
HETATM   13  O   UNK N   1      34.831  15.218   7.066  0.00  0.00    -0.311 OA
BRANCH   9  14
HETATM   14  O   UNK N   1      33.071  11.905   7.668  0.00  0.00    -0.244 OA
BRANCH  14  15
HETATM   15  S   UNK N   1      33.615  10.491   6.715  0.00  0.00     0.252 S 
HETATM   16  O   UNK N   1      34.378  10.335   8.233  0.00  0.00    -0.572 OA
HETATM   17  O   UNK N   1      32.098  10.446   6.553  0.00  0.00    -0.572 OA
HETATM   18  O   UNK N   1      33.192   9.179   7.393  0.00  0.00    -0.572 OA
ENDBRANCH  14  15
ENDBRANCH   9  14
BRANCH  10  19
HETATM   19  O   UNK N   1      31.279  13.449   6.068  0.00  0.00    -0.389 OA
HETATM   20  H   UNK N   1      30.505  13.085   5.609  0.00  0.00     0.210 HD
ENDBRANCH  10  19
BRANCH  12  21
HETATM   21  C   UNK N   1      33.998  17.382   6.278  0.00  0.00     0.233 C 
HETATM   22  O   UNK N   1      33.557  17.955   5.298  0.00  0.00    -0.642 OA
HETATM   23  O   UNK N   1      34.607  18.094   7.248  0.00  0.00    -0.642 OA
ENDBRANCH  12  21
ENDBRANCH   7   8
ENDBRANCH   4   7
BRANCH   1  24
HETATM   24  C   UNK N   1      34.960  16.624  10.468  0.00  0.00     0.198 C 
BRANCH  24  25
HETATM   25  O   UNK N   1      33.788  16.567   9.725  0.00  0.00    -0.398 OA
HETATM   26  H   UNK N   1      32.887  16.711  10.053  0.00  0.00     0.209 HD
ENDBRANCH  24  25
ENDBRANCH   1  24
BRANCH   3  27
HETATM   27  O   UNK N   1      33.905  12.011  10.592  0.00  0.00    -0.391 OA
HETATM   28  H   UNK N   1      32.961  12.160  10.761  0.00  0.00     0.210 HD
ENDBRANCH   3  27
BRANCH   2  29
HETATM   29  N   UNK N   1      35.481  11.794  12.967  0.00  0.00    -0.289 N 
HETATM   30  H   UNK N   1      36.069  11.055  12.582  0.00  0.00     0.175 HD
BRANCH  29  31
HETATM   31  S   UNK N   1      34.633  11.669  14.530  0.00  0.00     0.205 S 
HETATM   32  O   UNK N   1      33.129  10.839  14.489  0.00  0.00    -0.578 OA
HETATM   33  O   UNK N   1      34.379  13.097  15.033  0.00  0.00    -0.578 OA
HETATM   34  O   UNK N   1      35.559  11.055  15.593  0.00  0.00    -0.578 OA
ENDBRANCH  29  31
ENDBRANCH   2  29
BRANCH   5  35
HETATM   35  O   UNK N   1      36.920  14.136  13.660  0.00  0.00    -0.369 OA
HETATM   36  H   UNK N   1      36.945  15.011  14.077  0.00  0.00     0.212 HD
ENDBRANCH   5  35
TORSDOF 12
ENDMDL
MODEL 4
REMARK VINA RESULT:      -6.9      1.469      2.072
REMARK  12 active torsions:
REMARK  status: ('A' for Active; 'I' for Inactive)
REMARK    1  A    between atoms: C_5  and  C_2 
REMARK    2  A    between atoms: O_14  and  C_2 
REMARK    3  A    between atoms: C_3  and  O_15 
REMARK    4  A    between atoms: C_10  and  C_4 
REMARK    5  A    between atoms: C_6  and  N_13 
REMARK    6  A    between atoms: C_7  and  O_16 
REMARK    7  A    between atoms: C_8  and  O_29 
REMARK    8  A    between atoms: C_9  and  O_28 
REMARK    9  A    between atoms: C_11  and  O_19 
REMARK   10  A    between atoms: C_12  and  O_28 
REMARK   11  A    between atoms: S_30  and  N_13 
REMARK   12  A    between atoms: S_31  and  O_29 
ROOT
HETATM    1  C   UNK N   1      34.301  16.993   8.132  0.00  0.00     0.179 C 
HETATM    2  C   UNK N   1      34.309  15.153  10.380  0.00  0.00     0.181 C 
HETATM    3  C   UNK N   1      33.080  15.101   9.474  0.00  0.00     0.178 C 
HETATM    4  C   UNK N   1      32.915  16.327   8.532  0.00  0.00     0.186 C 
HETATM    5  C   UNK N   1      35.479  15.395   9.422  0.00  0.00     0.283 C 
HETATM    6  O   UNK N   1      35.402  16.719   8.977  0.00  0.00    -0.349 OA
ENDROOT
BRANCH   4   7
HETATM    7  O   UNK N   1      32.213  15.760   7.419  0.00  0.00    -0.347 OA
BRANCH   7   8
HETATM    8  C   UNK N   1      31.138  16.432   6.778  0.00  0.00     0.300 C 
HETATM    9  C   UNK N   1      30.373  15.571   5.734  0.00  0.00     0.233 C 
HETATM   10  C   UNK N   1      29.140  16.373   5.254  0.00  0.00     0.179 C 
HETATM   11  C   UNK N   1      28.337  16.843   6.429  0.00  0.00     0.051 C 
HETATM   12  C   UNK N   1      28.955  17.196   7.570  0.00  0.00     0.147 C 
HETATM   13  O   UNK N   1      30.304  17.062   7.697  0.00  0.00    -0.311 OA
BRANCH   9  14
HETATM   14  O   UNK N   1      31.107  14.938   4.650  0.00  0.00    -0.244 OA
BRANCH  14  15
HETATM   15  S   UNK N   1      31.384  13.192   4.367  0.00  0.00     0.252 S 
HETATM   16  O   UNK N   1      32.876  13.804   4.922  0.00  0.00    -0.572 OA
HETATM   17  O   UNK N   1      30.125  13.202   5.230  0.00  0.00    -0.572 OA
HETATM   18  O   UNK N   1      31.799  12.487   5.667  0.00  0.00    -0.572 OA
ENDBRANCH  14  15
ENDBRANCH   9  14
BRANCH  10  19
HETATM   19  O   UNK N   1      28.336  15.589   4.425  0.00  0.00    -0.389 OA
HETATM   20  H   UNK N   1      27.721  15.496   3.680  0.00  0.00     0.210 HD
ENDBRANCH  10  19
BRANCH  12  21
HETATM   21  C   UNK N   1      28.170  17.697   8.718  0.00  0.00     0.233 C 
HETATM   22  O   UNK N   1      28.114  18.889   8.963  0.00  0.00    -0.642 OA
HETATM   23  O   UNK N   1      27.492  16.825   9.492  0.00  0.00    -0.642 OA
ENDBRANCH  12  21
ENDBRANCH   7   8
ENDBRANCH   4   7
BRANCH   1  24
HETATM   24  C   UNK N   1      34.231  18.529   8.240  0.00  0.00     0.198 C 
BRANCH  24  25
HETATM   25  O   UNK N   1      35.424  19.156   8.576  0.00  0.00    -0.398 OA
HETATM   26  H   UNK N   1      36.161  18.770   9.075  0.00  0.00     0.209 HD
ENDBRANCH  24  25
ENDBRANCH   1  24
BRANCH   3  27
HETATM   27  O   UNK N   1      31.915  14.910  10.226  0.00  0.00    -0.391 OA
HETATM   28  H   UNK N   1      31.211  15.521  10.492  0.00  0.00     0.210 HD
ENDBRANCH   3  27
BRANCH   2  29
HETATM   29  N   UNK N   1      34.437  13.866  11.076  0.00  0.00    -0.289 N 
HETATM   30  H   UNK N   1      33.978  13.008  10.769  0.00  0.00     0.175 HD
BRANCH  29  31
HETATM   31  S   UNK N   1      35.482  13.966  12.517  0.00  0.00     0.205 S 
HETATM   32  O   UNK N   1      36.062  15.538  12.899  0.00  0.00    -0.578 OA
HETATM   33  O   UNK N   1      36.692  13.055  12.274  0.00  0.00    -0.578 OA
HETATM   34  O   UNK N   1      34.778  13.342  13.733  0.00  0.00    -0.578 OA
ENDBRANCH  29  31
ENDBRANCH   2  29
BRANCH   5  35
HETATM   35  O   UNK N   1      36.699  15.248  10.073  0.00  0.00    -0.369 OA
HETATM   36  H   UNK N   1      37.360  14.618   9.745  0.00  0.00     0.212 HD
ENDBRANCH   5  35
TORSDOF 12
ENDMDL
MODEL 5
REMARK VINA RESULT:      -6.8      2.096      2.610
REMARK  12 active torsions:
REMARK  status: ('A' for Active; 'I' for Inactive)
REMARK    1  A    between atoms: C_5  and  C_2 
REMARK    2  A    between atoms: O_14  and  C_2 
REMARK    3  A    between atoms: C_3  and  O_15 
REMARK    4  A    between atoms: C_10  and  C_4 
REMARK    5  A    between atoms: C_6  and  N_13 
REMARK    6  A    between atoms: C_7  and  O_16 
REMARK    7  A    between atoms: C_8  and  O_29 
REMARK    8  A    between atoms: C_9  and  O_28 
REMARK    9  A    between atoms: C_11  and  O_19 
REMARK   10  A    between atoms: C_12  and  O_28 
REMARK   11  A    between atoms: S_30  and  N_13 
REMARK   12  A    between atoms: S_31  and  O_29 
ROOT
HETATM    1  C   UNK N   1      34.735  13.997   7.767  0.00  0.00     0.179 C 
HETATM    2  C   UNK N   1      35.008  13.317  10.578  0.00  0.00     0.181 C 
HETATM    3  C   UNK N   1      33.776  14.139  10.203  0.00  0.00     0.178 C 
HETATM    4  C   UNK N   1      33.845  14.811   8.803  0.00  0.00     0.186 C 
HETATM    5  C   UNK N   1      35.193  12.350   9.405  0.00  0.00     0.283 C 
HETATM    6  O   UNK N   1      35.668  13.086   8.314  0.00  0.00    -0.349 OA
ENDROOT
BRANCH   4   7
HETATM    7  O   UNK N   1      32.463  14.883   8.433  0.00  0.00    -0.347 OA
BRANCH   7   8
HETATM    8  C   UNK N   1      31.900  16.036   7.825  0.00  0.00     0.300 C 
HETATM    9  C   UNK N   1      31.262  15.779   6.429  0.00  0.00     0.233 C 
HETATM   10  C   UNK N   1      30.547  17.075   5.978  0.00  0.00     0.179 C 
HETATM   11  C   UNK N   1      29.611  17.551   7.047  0.00  0.00     0.051 C 
HETATM   12  C   UNK N   1      29.929  17.386   8.343  0.00  0.00     0.147 C 
HETATM   13  O   UNK N   1      31.063  16.722   8.699  0.00  0.00    -0.311 OA
BRANCH   9  14
HETATM   14  O   UNK N   1      32.058  15.163   5.380  0.00  0.00    -0.244 OA
BRANCH  14  15
HETATM   15  S   UNK N   1      31.590  13.850   4.259  0.00  0.00     0.252 S 
HETATM   16  O   UNK N   1      30.426  13.818   5.505  0.00  0.00    -0.572 OA
HETATM   17  O   UNK N   1      31.759  15.047   3.328  0.00  0.00    -0.572 OA
HETATM   18  O   UNK N   1      30.187  14.095   3.685  0.00  0.00    -0.572 OA
ENDBRANCH  14  15
ENDBRANCH   9  14
BRANCH  10  19
HETATM   19  O   UNK N   1      29.833  16.857   4.799  0.00  0.00    -0.389 OA
HETATM   20  H   UNK N   1      29.268  17.176   4.077  0.00  0.00     0.210 HD
ENDBRANCH  10  19
BRANCH  12  21
HETATM   21  C   UNK N   1      29.026  17.889   9.402  0.00  0.00     0.233 C 
HETATM   22  O   UNK N   1      27.873  17.505   9.472  0.00  0.00    -0.642 OA
HETATM   23  O   UNK N   1      29.493  18.768  10.312  0.00  0.00    -0.642 OA
ENDBRANCH  12  21
ENDBRANCH   7   8
ENDBRANCH   4   7
BRANCH   1  24
HETATM   24  C   UNK N   1      35.674  14.936   6.984  0.00  0.00     0.198 C 
BRANCH  24  25
HETATM   25  O   UNK N   1      35.060  15.722   6.018  0.00  0.00    -0.398 OA
HETATM   26  H   UNK N   1      35.290  16.634   5.780  0.00  0.00     0.209 HD
ENDBRANCH  24  25
ENDBRANCH   1  24
BRANCH   3  27
HETATM   27  O   UNK N   1      33.499  15.097  11.185  0.00  0.00    -0.391 OA
HETATM   28  H   UNK N   1      32.807  15.145  11.863  0.00  0.00     0.210 HD
ENDBRANCH   3  27
BRANCH   2  29
HETATM   29  N   UNK N   1      34.734  12.601  11.831  0.00  0.00    -0.289 N 
HETATM   30  H   UNK N   1      34.090  11.813  11.904  0.00  0.00     0.175 HD
BRANCH  29  31
HETATM   31  S   UNK N   1      35.649  13.260  13.212  0.00  0.00     0.205 S 
HETATM   32  O   UNK N   1      37.059  12.380  13.650  0.00  0.00    -0.578 OA
HETATM   33  O   UNK N   1      34.705  13.286  14.422  0.00  0.00    -0.578 OA
HETATM   34  O   UNK N   1      35.992  14.739  12.970  0.00  0.00    -0.578 OA
ENDBRANCH  29  31
ENDBRANCH   2  29
BRANCH   5  35
HETATM   35  O   UNK N   1      36.148  11.383   9.699  0.00  0.00    -0.369 OA
HETATM   36  H   UNK N   1      36.637  11.409  10.536  0.00  0.00     0.212 HD
ENDBRANCH   5  35
TORSDOF 12
ENDMDL
MODEL 6
REMARK VINA RESULT:      -6.7      3.876      7.119
REMARK  12 active torsions:
REMARK  status: ('A' for Active; 'I' for Inactive)
REMARK    1  A    between atoms: C_5  and  C_2 
REMARK    2  A    between atoms: O_14  and  C_2 
REMARK    3  A    between atoms: C_3  and  O_15 
REMARK    4  A    between atoms: C_10  and  C_4 
REMARK    5  A    between atoms: C_6  and  N_13 
REMARK    6  A    between atoms: C_7  and  O_16 
REMARK    7  A    between atoms: C_8  and  O_29 
REMARK    8  A    between atoms: C_9  and  O_28 
REMARK    9  A    between atoms: C_11  and  O_19 
REMARK   10  A    between atoms: C_12  and  O_28 
REMARK   11  A    between atoms: S_30  and  N_13 
REMARK   12  A    between atoms: S_31  and  O_29 
ROOT
HETATM    1  C   UNK N   1      30.506  16.893   8.238  0.00  0.00     0.179 C 
HETATM    2  C   UNK N   1      28.287  18.275   6.972  0.00  0.00     0.181 C 
HETATM    3  C   UNK N   1      28.966  17.190   6.138  0.00  0.00     0.178 C 
HETATM    4  C   UNK N   1      30.360  16.746   6.662  0.00  0.00     0.186 C 
HETATM    5  C   UNK N   1      28.293  17.718   8.398  0.00  0.00     0.283 C 
HETATM    6  O   UNK N   1      29.606  17.778   8.876  0.00  0.00    -0.349 OA
ENDROOT
BRANCH   4   7
HETATM    7  O   UNK N   1      30.436  15.389   6.208  0.00  0.00    -0.347 OA
BRANCH   7   8
HETATM    8  C   UNK N   1      31.567  14.882   5.515  0.00  0.00     0.300 C 
HETATM    9  C   UNK N   1      31.804  15.523   4.118  0.00  0.00     0.233 C 
HETATM   10  C   UNK N   1      33.153  15.000   3.568  0.00  0.00     0.179 C 
HETATM   11  C   UNK N   1      34.240  15.208   4.577  0.00  0.00     0.051 C 
HETATM   12  C   UNK N   1      33.973  15.098   5.890  0.00  0.00     0.147 C 
HETATM   13  O   UNK N   1      32.701  14.871   6.321  0.00  0.00    -0.311 OA
BRANCH   9  14
HETATM   14  O   UNK N   1      30.735  15.510   3.133  0.00  0.00    -0.244 OA
BRANCH  14  15
HETATM   15  S   UNK N   1      29.310  14.430   3.056  0.00  0.00     0.252 S 
HETATM   16  O   UNK N   1      28.744  15.963   2.567  0.00  0.00    -0.572 OA
HETATM   17  O   UNK N   1      30.364  13.658   2.267  0.00  0.00    -0.572 OA
HETATM   18  O   UNK N   1      28.752  14.362   1.626  0.00  0.00    -0.572 OA
ENDBRANCH  14  15
ENDBRANCH   9  14
BRANCH  10  19
HETATM   19  O   UNK N   1      33.487  15.654   2.382  0.00  0.00    -0.389 OA
HETATM   20  H   UNK N   1      33.892  15.659   1.500  0.00  0.00     0.210 HD
ENDBRANCH  10  19
BRANCH  12  21
HETATM   21  C   UNK N   1      35.052  15.265   6.888  0.00  0.00     0.233 C 
HETATM   22  O   UNK N   1      34.904  15.999   7.849  0.00  0.00    -0.642 OA
HETATM   23  O   UNK N   1      36.205  14.582   6.741  0.00  0.00    -0.642 OA
ENDBRANCH  12  21
ENDBRANCH   7   8
ENDBRANCH   4   7
BRANCH   1  24
HETATM   24  C   UNK N   1      31.856  17.537   8.613  0.00  0.00     0.198 C 
BRANCH  24  25
HETATM   25  O   UNK N   1      32.692  17.832   7.544  0.00  0.00    -0.398 OA
HETATM   26  H   UNK N   1      33.501  18.368   7.571  0.00  0.00     0.209 HD
ENDBRANCH  24  25
ENDBRANCH   1  24
BRANCH   3  27
HETATM   27  O   UNK N   1      29.057  17.579   4.796  0.00  0.00    -0.391 OA
HETATM   28  H   UNK N   1      29.077  18.454   4.377  0.00  0.00     0.210 HD
ENDBRANCH   3  27
BRANCH   2  29
HETATM   29  N   UNK N   1      26.918  18.466   6.472  0.00  0.00    -0.289 N 
HETATM   30  H   UNK N   1      26.184  17.761   6.547  0.00  0.00     0.175 HD
BRANCH  29  31
HETATM   31  S   UNK N   1      26.681  20.064   5.719  0.00  0.00     0.205 S 
HETATM   32  O   UNK N   1      26.427  21.365   6.813  0.00  0.00    -0.578 OA
HETATM   33  O   UNK N   1      25.455  19.965   4.800  0.00  0.00    -0.578 OA
HETATM   34  O   UNK N   1      27.842  20.383   4.763  0.00  0.00    -0.578 OA
ENDBRANCH  29  31
ENDBRANCH   2  29
BRANCH   5  35
HETATM   35  O   UNK N   1      27.509  18.496   9.244  0.00  0.00    -0.369 OA
HETATM   36  H   UNK N   1      27.650  19.454   9.306  0.00  0.00     0.212 HD
ENDBRANCH   5  35
TORSDOF 12
ENDMDL
MODEL 7
REMARK VINA RESULT:      -6.7     12.229     15.223
REMARK  12 active torsions:
REMARK  status: ('A' for Active; 'I' for Inactive)
REMARK    1  A    between atoms: C_5  and  C_2 
REMARK    2  A    between atoms: O_14  and  C_2 
REMARK    3  A    between atoms: C_3  and  O_15 
REMARK    4  A    between atoms: C_10  and  C_4 
REMARK    5  A    between atoms: C_6  and  N_13 
REMARK    6  A    between atoms: C_7  and  O_16 
REMARK    7  A    between atoms: C_8  and  O_29 
REMARK    8  A    between atoms: C_9  and  O_28 
REMARK    9  A    between atoms: C_11  and  O_19 
REMARK   10  A    between atoms: C_12  and  O_28 
REMARK   11  A    between atoms: S_30  and  N_13 
REMARK   12  A    between atoms: S_31  and  O_29 
ROOT
HETATM    1  C   UNK N   1      30.019  23.191  -2.790  0.00  0.00     0.179 C 
HETATM    2  C   UNK N   1      31.267  20.763  -3.785  0.00  0.00     0.181 C 
HETATM    3  C   UNK N   1      30.551  21.625  -4.824  0.00  0.00     0.178 C 
HETATM    4  C   UNK N   1      29.581  22.684  -4.231  0.00  0.00     0.186 C 
HETATM    5  C   UNK N   1      31.916  21.773  -2.834  0.00  0.00     0.283 C 
HETATM    6  O   UNK N   1      30.899  22.353  -2.066  0.00  0.00    -0.349 OA
ENDROOT
BRANCH   4   7
HETATM    7  O   UNK N   1      29.610  23.712  -5.229  0.00  0.00    -0.347 OA
BRANCH   7   8
HETATM    8  C   UNK N   1      28.426  24.246  -5.804  0.00  0.00     0.300 C 
HETATM    9  C   UNK N   1      27.377  23.177  -6.223  0.00  0.00     0.233 C 
HETATM   10  C   UNK N   1      26.088  23.910  -6.666  0.00  0.00     0.179 C 
HETATM   11  C   UNK N   1      25.651  24.877  -5.608  0.00  0.00     0.051 C 
HETATM   12  C   UNK N   1      26.567  25.532  -4.873  0.00  0.00     0.147 C 
HETATM   13  O   UNK N   1      27.894  25.272  -5.028  0.00  0.00    -0.311 OA
BRANCH   9  14
HETATM   14  O   UNK N   1      27.768  22.103  -7.120  0.00  0.00    -0.244 OA
BRANCH  14  15
HETATM   15  S   UNK N   1      27.913  22.144  -8.904  0.00  0.00     0.252 S 
HETATM   16  O   UNK N   1      29.501  21.911  -8.325  0.00  0.00    -0.572 OA
HETATM   17  O   UNK N   1      26.803  21.123  -8.678  0.00  0.00    -0.572 OA
HETATM   18  O   UNK N   1      28.488  20.823  -9.437  0.00  0.00    -0.572 OA
ENDBRANCH  14  15
ENDBRANCH   9  14
BRANCH  10  19
HETATM   19  O   UNK N   1      25.063  22.996  -6.914  0.00  0.00    -0.389 OA
HETATM   20  H   UNK N   1      24.651  22.312  -7.464  0.00  0.00     0.210 HD
ENDBRANCH  10  19
BRANCH  12  21
HETATM   21  C   UNK N   1      26.140  26.515  -3.854  0.00  0.00     0.233 C 
HETATM   22  O   UNK N   1      26.325  26.305  -2.668  0.00  0.00    -0.642 OA
HETATM   23  O   UNK N   1      25.557  27.667  -4.244  0.00  0.00    -0.642 OA
ENDBRANCH  12  21
ENDBRANCH   7   8
ENDBRANCH   4   7
BRANCH   1  24
HETATM   24  C   UNK N   1      28.815  23.242  -1.828  0.00  0.00     0.198 C 
BRANCH  24  25
HETATM   25  O   UNK N   1      27.602  23.580  -2.413  0.00  0.00    -0.398 OA
HETATM   26  H   UNK N   1      27.251  23.247  -3.254  0.00  0.00     0.209 HD
ENDBRANCH  24  25
ENDBRANCH   1  24
BRANCH   3  27
HETATM   27  O   UNK N   1      29.881  20.824  -5.756  0.00  0.00    -0.391 OA
HETATM   28  H   UNK N   1      29.031  20.935  -6.210  0.00  0.00     0.210 HD
ENDBRANCH   3  27
BRANCH   2  29
HETATM   29  N   UNK N   1      32.274  19.939  -4.468  0.00  0.00    -0.289 N 
HETATM   30  H   UNK N   1      32.318  18.923  -4.396  0.00  0.00     0.175 HD
BRANCH  29  31
HETATM   31  S   UNK N   1      33.413  20.911  -5.436  0.00  0.00     0.205 S 
HETATM   32  O   UNK N   1      33.843  22.432  -4.761  0.00  0.00    -0.578 OA
HETATM   33  O   UNK N   1      32.761  21.161  -6.803  0.00  0.00    -0.578 OA
HETATM   34  O   UNK N   1      34.671  20.092  -5.763  0.00  0.00    -0.578 OA
ENDBRANCH  29  31
ENDBRANCH   2  29
BRANCH   5  35
HETATM   35  O   UNK N   1      32.790  21.144  -1.955  0.00  0.00    -0.369 OA
HETATM   36  H   UNK N   1      33.749  21.273  -2.036  0.00  0.00     0.212 HD
ENDBRANCH   5  35
TORSDOF 12
ENDMDL
MODEL 8
REMARK VINA RESULT:      -6.6      8.710     12.400
REMARK  12 active torsions:
REMARK  status: ('A' for Active; 'I' for Inactive)
REMARK    1  A    between atoms: C_5  and  C_2 
REMARK    2  A    between atoms: O_14  and  C_2 
REMARK    3  A    between atoms: C_3  and  O_15 
REMARK    4  A    between atoms: C_10  and  C_4 
REMARK    5  A    between atoms: C_6  and  N_13 
REMARK    6  A    between atoms: C_7  and  O_16 
REMARK    7  A    between atoms: C_8  and  O_29 
REMARK    8  A    between atoms: C_9  and  O_28 
REMARK    9  A    between atoms: C_11  and  O_19 
REMARK   10  A    between atoms: C_12  and  O_28 
REMARK   11  A    between atoms: S_30  and  N_13 
REMARK   12  A    between atoms: S_31  and  O_29 
ROOT
HETATM    1  C   UNK N   1      21.215  16.479   7.192  0.00  0.00     0.179 C 
HETATM    2  C   UNK N   1      20.473  14.800   4.941  0.00  0.00     0.181 C 
HETATM    3  C   UNK N   1      21.473  15.916   4.645  0.00  0.00     0.178 C 
HETATM    4  C   UNK N   1      21.557  17.019   5.737  0.00  0.00     0.186 C 
HETATM    5  C   UNK N   1      20.861  14.300   6.336  0.00  0.00     0.283 C 
HETATM    6  O   UNK N   1      20.475  15.275   7.262  0.00  0.00    -0.349 OA
ENDROOT
BRANCH   4   7
HETATM    7  O   UNK N   1      22.909  17.475   5.603  0.00  0.00    -0.347 OA
BRANCH   7   8
HETATM    8  C   UNK N   1      23.230  18.744   5.053  0.00  0.00     0.300 C 
HETATM    9  C   UNK N   1      24.666  18.846   4.466  0.00  0.00     0.233 C 
HETATM   10  C   UNK N   1      24.806  20.214   3.758  0.00  0.00     0.179 C 
HETATM   11  C   UNK N   1      23.685  20.410   2.783  0.00  0.00     0.051 C 
HETATM   12  C   UNK N   1      22.460  19.927   3.056  0.00  0.00     0.147 C 
HETATM   13  O   UNK N   1      22.241  19.193   4.182  0.00  0.00    -0.311 OA
BRANCH   9  14
HETATM   14  O   UNK N   1      25.807  18.510   5.302  0.00  0.00    -0.244 OA
BRANCH  14  15
HETATM   15  S   UNK N   1      27.226  17.499   4.890  0.00  0.00     0.252 S 
HETATM   16  O   UNK N   1      26.095  17.224   3.643  0.00  0.00    -0.572 OA
HETATM   17  O   UNK N   1      27.847  18.870   5.143  0.00  0.00    -0.572 OA
HETATM   18  O   UNK N   1      27.816  17.913   3.534  0.00  0.00    -0.572 OA
ENDBRANCH  14  15
ENDBRANCH   9  14
BRANCH  10  19
HETATM   19  O   UNK N   1      26.026  20.299   3.087  0.00  0.00    -0.389 OA
HETATM   20  H   UNK N   1      26.804  19.882   2.685  0.00  0.00     0.210 HD
ENDBRANCH  10  19
BRANCH  12  21
HETATM   21  C   UNK N   1      21.342  20.151   2.114  0.00  0.00     0.233 C 
HETATM   22  O   UNK N   1      20.462  19.320   1.982  0.00  0.00    -0.642 OA
HETATM   23  O   UNK N   1      21.288  21.298   1.408  0.00  0.00    -0.642 OA
ENDBRANCH  12  21
ENDBRANCH   7   8
ENDBRANCH   4   7
BRANCH   1  24
HETATM   24  C   UNK N   1      20.266  17.442   7.934  0.00  0.00     0.198 C 
BRANCH  24  25
HETATM   25  O   UNK N   1      20.550  18.793   7.779  0.00  0.00    -0.398 OA
HETATM   26  H   UNK N   1      21.239  19.179   7.215  0.00  0.00     0.209 HD
ENDBRANCH  24  25
ENDBRANCH   1  24
BRANCH   3  27
HETATM   27  O   UNK N   1      21.220  16.492   3.395  0.00  0.00    -0.391 OA
HETATM   28  H   UNK N   1      21.671  16.407   2.541  0.00  0.00     0.210 HD
ENDBRANCH   3  27
BRANCH   2  29
HETATM   29  N   UNK N   1      20.627  13.747   3.927  0.00  0.00    -0.289 N 
HETATM   30  H   UNK N   1      21.530  13.428   3.575  0.00  0.00     0.175 HD
BRANCH  29  31
HETATM   31  S   UNK N   1      19.064  13.088   3.380  0.00  0.00     0.205 S 
HETATM   32  O   UNK N   1      17.796  13.137   4.539  0.00  0.00    -0.578 OA
HETATM   33  O   UNK N   1      19.294  11.623   2.983  0.00  0.00    -0.578 OA
HETATM   34  O   UNK N   1      18.625  13.767   2.073  0.00  0.00    -0.578 OA
ENDBRANCH  29  31
ENDBRANCH   2  29
BRANCH   5  35
HETATM   35  O   UNK N   1      20.179  13.131   6.657  0.00  0.00    -0.369 OA
HETATM   36  H   UNK N   1      19.215  13.137   6.770  0.00  0.00     0.212 HD
ENDBRANCH   5  35
TORSDOF 12
ENDMDL
MODEL 9
REMARK VINA RESULT:      -6.6     12.872     15.360
REMARK  12 active torsions:
REMARK  status: ('A' for Active; 'I' for Inactive)
REMARK    1  A    between atoms: C_5  and  C_2 
REMARK    2  A    between atoms: O_14  and  C_2 
REMARK    3  A    between atoms: C_3  and  O_15 
REMARK    4  A    between atoms: C_10  and  C_4 
REMARK    5  A    between atoms: C_6  and  N_13 
REMARK    6  A    between atoms: C_7  and  O_16 
REMARK    7  A    between atoms: C_8  and  O_29 
REMARK    8  A    between atoms: C_9  and  O_28 
REMARK    9  A    between atoms: C_11  and  O_19 
REMARK   10  A    between atoms: C_12  and  O_28 
REMARK   11  A    between atoms: S_30  and  N_13 
REMARK   12  A    between atoms: S_31  and  O_29 
ROOT
HETATM    1  C   UNK N   1      29.916  20.947  -6.341  0.00  0.00     0.179 C 
HETATM    2  C   UNK N   1      32.600  21.189  -5.258  0.00  0.00     0.181 C 
HETATM    3  C   UNK N   1      31.909  22.497  -5.639  0.00  0.00     0.178 C 
HETATM    4  C   UNK N   1      30.665  22.331  -6.557  0.00  0.00     0.186 C 
HETATM    5  C   UNK N   1      31.480  20.322  -4.677  0.00  0.00     0.283 C 
HETATM    6  O   UNK N   1      30.664  19.910  -5.736  0.00  0.00    -0.349 OA
ENDROOT
BRANCH   4   7
HETATM    7  O   UNK N   1      29.872  23.470  -6.200  0.00  0.00    -0.347 OA
BRANCH   7   8
HETATM    8  C   UNK N   1      28.537  23.348  -5.733  0.00  0.00     0.300 C 
HETATM    9  C   UNK N   1      28.197  24.253  -4.515  0.00  0.00     0.233 C 
HETATM   10  C   UNK N   1      26.680  24.139  -4.234  0.00  0.00     0.179 C 
HETATM   11  C   UNK N   1      25.899  24.404  -5.485  0.00  0.00     0.051 C 
HETATM   12  C   UNK N   1      26.383  24.016  -6.677  0.00  0.00     0.147 C 
HETATM   13  O   UNK N   1      27.616  23.447  -6.772  0.00  0.00    -0.311 OA
BRANCH   9  14
HETATM   14  O   UNK N   1      29.014  24.176  -3.315  0.00  0.00    -0.244 OA
BRANCH  14  15
HETATM   15  S   UNK N   1      29.627  22.716  -2.482  0.00  0.00     0.252 S 
HETATM   16  O   UNK N   1      30.951  23.790  -2.547  0.00  0.00    -0.572 OA
HETATM   17  O   UNK N   1      28.352  23.037  -1.709  0.00  0.00    -0.572 OA
HETATM   18  O   UNK N   1      30.109  23.057  -1.064  0.00  0.00    -0.572 OA
ENDBRANCH  14  15
ENDBRANCH   9  14
BRANCH  10  19
HETATM   19  O   UNK N   1      26.294  25.043  -3.243  0.00  0.00    -0.389 OA
HETATM   20  H   UNK N   1      25.793  25.822  -2.954  0.00  0.00     0.210 HD
ENDBRANCH  10  19
BRANCH  12  21
HETATM   21  C   UNK N   1      25.598  24.241  -7.910  0.00  0.00     0.233 C 
HETATM   22  O   UNK N   1      25.713  25.277  -8.542  0.00  0.00    -0.642 OA
HETATM   23  O   UNK N   1      24.760  23.281  -8.350  0.00  0.00    -0.642 OA
ENDBRANCH  12  21
ENDBRANCH   7   8
ENDBRANCH   4   7
BRANCH   1  24
HETATM   24  C   UNK N   1      29.557  20.292  -7.691  0.00  0.00     0.198 C 
BRANCH  24  25
HETATM   25  O   UNK N   1      29.339  18.921  -7.647  0.00  0.00    -0.398 OA
HETATM   26  H   UNK N   1      29.580  18.319  -6.925  0.00  0.00     0.209 HD
ENDBRANCH  24  25
ENDBRANCH   1  24
BRANCH   3  27
HETATM   27  O   UNK N   1      32.819  23.390  -6.217  0.00  0.00    -0.391 OA
HETATM   28  H   UNK N   1      33.148  23.480  -7.126  0.00  0.00     0.210 HD
ENDBRANCH   3  27
BRANCH   2  29
HETATM   29  N   UNK N   1      33.636  21.478  -4.256  0.00  0.00    -0.289 N 
HETATM   30  H   UNK N   1      33.503  22.117  -3.472  0.00  0.00     0.175 HD
BRANCH  29  31
HETATM   31  S   UNK N   1      35.150  20.588  -4.560  0.00  0.00     0.205 S 
HETATM   32  O   UNK N   1      36.547  21.223  -3.787  0.00  0.00    -0.578 OA
HETATM   33  O   UNK N   1      35.395  20.598  -6.075  0.00  0.00    -0.578 OA
HETATM   34  O   UNK N   1      34.974  19.100  -4.217  0.00  0.00    -0.578 OA
ENDBRANCH  29  31
ENDBRANCH   2  29
BRANCH   5  35
HETATM   35  O   UNK N   1      31.992  19.175  -4.079  0.00  0.00    -0.369 OA
HETATM   36  H   UNK N   1      32.813  18.774  -4.404  0.00  0.00     0.212 HD
ENDBRANCH   5  35
TORSDOF 12
ENDMDL
