MODEL 1
REMARK VINA RESULT:      -7.3      0.000      0.000
REMARK  29 active torsions:
REMARK  status: ('A' for Active; 'I' for Inactive)
REMARK    1  A    between atoms: C_10  and  C_9 
REMARK    2  A    between atoms: C_19  and  C_9 
REMARK    3  A    between atoms: C_20  and  C_10 
REMARK    4  A    between atoms: C_12  and  C_11 
REMARK    5  A    between atoms: C_21  and  C_11 
REMARK    6  A    between atoms: C_22  and  C_12 
REMARK    7  A    between atoms: C_18  and  C_13 
REMARK    8  A    between atoms: C_23  and  C_13 
REMARK    9  A    between atoms: C_26  and  C_15 
REMARK   10  A    between atoms: N_33  and  C_15 
REMARK   11  A    between atoms: C_29  and  C_16 
REMARK   12  A    between atoms: N_35  and  C_16 
REMARK   13  A    between atoms: O_44  and  C_17 
REMARK   14  A    between atoms: C_27  and  C_20 
REMARK   15  A    between atoms: C_20  and  N_39 
REMARK   16  A    between atoms: C_30  and  C_21 
REMARK   17  A    between atoms: C_21  and  N_37 
REMARK   18  A    between atoms: C_22  and  O_45 
REMARK   19  A    between atoms: C_23  and  O_46 
REMARK   20  A    between atoms: C_31  and  C_24 
REMARK   21  A    between atoms: C_28  and  C_25 
REMARK   22  A    between atoms: C_32  and  C_25 
REMARK   23  A    between atoms: C_25  and  N_41 
REMARK   24  A    between atoms: C_26  and  O_47 
REMARK   25  A    between atoms: C_27  and  O_48 
REMARK   26  A    between atoms: O_50  and  C_29 
REMARK   27  A    between atoms: O_52  and  C_30 
REMARK   28  A    between atoms: O_54  and  C_31 
REMARK   29  A    between atoms: O_56  and  C_32 
ROOT
HETATM    1  C   UNK N   1      21.313  14.098   3.775  0.00  0.00     0.158 C 
ENDROOT
BRANCH   1   2
HETATM    2  C   UNK N   1      22.789  14.063   3.424  0.00  0.00     0.038 C 
BRANCH   2   3
HETATM    3  C   UNK N   1      23.862  14.232   4.505  0.00  0.00     0.040 C 
BRANCH   3   4
HETATM    4  C   UNK N   1      24.829  15.083   3.771  0.00  0.00    -0.037 C 
HETATM    5  C   UNK N   1      26.001  14.320   3.163  0.00  0.00     0.113 C 
HETATM    6  S   UNK N   1      27.310  15.319   2.390  0.00  0.00    -0.137 SA
HETATM    7  C   UNK N   1      27.218  16.521   3.735  0.00  0.00     0.177 C 
HETATM    8  N   UNK N   1      25.960  17.200   3.559  0.00  0.00    -0.368 N 
HETATM    9  C   UNK N   1      24.789  16.451   3.873  0.00  0.00     0.106 C 
HETATM   10  H   UNK N   1      25.911  18.130   3.238  0.00  0.00     0.161 HD
BRANCH   7  11
HETATM   11  C   UNK N   1      28.452  17.440   3.873  0.00  0.00     0.214 C 
BRANCH  11  12
HETATM   12  C   UNK N   1      28.127  18.618   4.756  0.00  0.00     0.166 C 
HETATM   13  O   UNK N   1      28.383  19.753   4.383  0.00  0.00    -0.648 OA
BRANCH  12  14
HETATM   14  O   UNK N   1      27.560  18.425   5.964  0.00  0.00    -0.775 OA
HETATM   15  H   UNK N   1      26.779  18.266   6.455  0.00  0.00     0.167 HD
ENDBRANCH  12  14
ENDBRANCH  11  12
BRANCH  11  16
HETATM   16  N   UNK N   1      29.528  16.729   4.552  0.00  0.00    -0.357 N 
HETATM   17  C   UNK N   1      30.795  16.893   4.379  0.00  0.00     0.116 C 
ATOM     18  HN  UNK N   1      29.250  16.026   5.236  1.00  0.00     0.162 HD
BRANCH  17  19
HETATM   19  C   UNK N   1      31.745  16.028   5.133  0.00  0.00     0.122 C 
BRANCH  19  20
HETATM   20  C   UNK N   1      32.313  16.830   6.240  0.00  0.00    -0.051 A 
HETATM   21  C   UNK N   1      31.536  17.126   7.365  0.00  0.00     0.007 A 
HETATM   22  C   UNK N   1      32.103  17.814   8.439  0.00  0.00     0.001 A 
HETATM   23  C   UNK N   1      33.446  18.200   8.391  0.00  0.00     0.000 A 
HETATM   24  C   UNK N   1      34.222  17.904   7.266  0.00  0.00     0.001 A 
HETATM   25  C   UNK N   1      33.656  17.214   6.193  0.00  0.00     0.007 A 
ENDBRANCH  19  20
ENDBRANCH  17  19
BRANCH  17  26
HETATM   26  O   UNK N   1      31.280  17.839   3.556  0.00  0.00    -0.349 OA
HETATM   27  H   UNK N   1      31.261  18.577   2.978  0.00  0.00     0.219 HD
ENDBRANCH  17  26
ENDBRANCH  11  16
ENDBRANCH   7  11
BRANCH   9  28
HETATM   28  C   UNK N   1      23.646  17.196   4.475  0.00  0.00     0.193 C 
HETATM   29  O   UNK N   1      22.694  17.502   3.780  0.00  0.00    -0.645 OA
BRANCH  28  30
HETATM   30  O   UNK N   1      23.633  17.525   5.783  0.00  0.00    -0.772 OA
HETATM   31  H   UNK N   1      22.927  17.242   6.331  0.00  0.00     0.167 HD
ENDBRANCH  28  30
ENDBRANCH   9  28
ENDBRANCH   3   4
ENDBRANCH   2   3
ENDBRANCH   1   2
BRANCH   1  32
HETATM   32  C   UNK N   1      20.467  14.929   2.859  0.00  0.00     0.135 C 
HETATM   33  N   UNK N   1      21.069  15.726   2.049  0.00  0.00    -0.361 N 
ATOM     34  HN  UNK N   1      22.078  15.832   2.159  1.00  0.00     0.162 HD
BRANCH  33  35
HETATM   35  C   UNK N   1      20.433  16.482   1.000  0.00  0.00     0.153 C 
HETATM   36  C   UNK N   1      19.248  15.692   0.467  0.00  0.00     0.041 C 
BRANCH  35  37
HETATM   37  C   UNK N   1      20.016  17.768   1.650  0.00  0.00     0.135 C 
HETATM   38  N   UNK N   1      20.536  18.871   1.214  0.00  0.00    -0.359 N 
ATOM     39  HN  UNK N   1      21.120  18.816   0.379  1.00  0.00     0.162 HD
BRANCH  38  40
HETATM   40  C   UNK N   1      20.355  20.176   1.817  0.00  0.00     0.177 C 
HETATM   41  C   UNK N   1      20.547  21.259   0.759  0.00  0.00     0.043 C 
BRANCH  40  42
HETATM   42  C   UNK N   1      21.254  20.368   3.011  0.00  0.00     0.163 C 
HETATM   43  O   UNK N   1      22.336  20.924   2.896  0.00  0.00    -0.648 OA
BRANCH  42  44
HETATM   44  O   UNK N   1      20.859  19.926   4.219  0.00  0.00    -0.775 OA
HETATM   45  H   UNK N   1      20.325  19.390   4.772  0.00  0.00     0.167 HD
ENDBRANCH  42  44
ENDBRANCH  40  42
ENDBRANCH  38  40
BRANCH  37  46
HETATM   46  O   UNK N   1      19.183  17.765   2.714  0.00  0.00    -0.348 OA
HETATM   47  H   UNK N   1      18.804  17.073   3.219  0.00  0.00     0.219 HD
ENDBRANCH  37  46
ENDBRANCH  35  37
ENDBRANCH  33  35
BRANCH  32  48
HETATM   48  O   UNK N   1      19.121  14.799   2.846  0.00  0.00    -0.348 OA
HETATM   49  H   UNK N   1      18.277  14.629   2.478  0.00  0.00     0.219 HD
ENDBRANCH  32  48
ENDBRANCH   1  32
BRANCH   1  50
HETATM   50  N   UNK N   1      21.123  14.464   5.165  0.00  0.00    -0.362 N 
HETATM   51  C   UNK N   1      20.635  13.692   6.074  0.00  0.00     0.111 C 
ATOM     52  HN  UNK N   1      21.397  15.406   5.444  1.00  0.00     0.162 HD
BRANCH  51  53
HETATM   53  C   UNK N   1      20.372  14.255   7.415  0.00  0.00     0.086 C 
BRANCH  53  54
HETATM   54  C   UNK N   1      21.319  15.428   7.552  0.00  0.00     0.044 C 
BRANCH  54  55
HETATM   55  C   UNK N   1      20.628  16.723   7.948  0.00  0.00     0.181 C 
BRANCH  55  56
HETATM   56  C   UNK N   1      20.743  17.693   6.797  0.00  0.00     0.163 C 
HETATM   57  O   UNK N   1      21.063  18.852   7.012  0.00  0.00    -0.648 OA
BRANCH  56  58
HETATM   58  O   UNK N   1      20.498  17.297   5.533  0.00  0.00    -0.775 OA
HETATM   59  H   UNK N   1      20.626  17.645   4.673  0.00  0.00     0.167 HD
ENDBRANCH  56  58
ENDBRANCH  55  56
BRANCH  55  60
HETATM   60  N   UNK N   1      19.245  16.480   8.338  0.00  0.00    -0.360 N 
HETATM   61  C   UNK N   1      18.516  17.304   9.014  0.00  0.00     0.107 C 
HETATM   62  C   UNK N   1      17.111  16.937   9.340  0.00  0.00     0.097 C 
ATOM     63  HN  UNK N   1      18.824  15.594   8.058  1.00  0.00     0.162 HD
BRANCH  61  64
HETATM   64  O   UNK N   1      18.996  18.502   9.409  0.00  0.00    -0.350 OA
HETATM   65  H   UNK N   1      19.484  18.885  10.112  0.00  0.00     0.219 HD
ENDBRANCH  61  64
ENDBRANCH  55  60
ENDBRANCH  54  55
ENDBRANCH  53  54
ENDBRANCH  51  53
BRANCH  51  66
HETATM   66  O   UNK N   1      20.300  12.409   5.811  0.00  0.00    -0.350 OA
HETATM   67  H   UNK N   1      19.855  11.674   5.438  0.00  0.00     0.219 HD
ENDBRANCH  51  66
ENDBRANCH   1  50
TORSDOF 29
ENDMDL
MODEL 2
REMARK VINA RESULT:      -7.2      3.385     11.392
REMARK  29 active torsions:
REMARK  status: ('A' for Active; 'I' for Inactive)
REMARK    1  A    between atoms: C_10  and  C_9 
REMARK    2  A    between atoms: C_19  and  C_9 
REMARK    3  A    between atoms: C_20  and  C_10 
REMARK    4  A    between atoms: C_12  and  C_11 
REMARK    5  A    between atoms: C_21  and  C_11 
REMARK    6  A    between atoms: C_22  and  C_12 
REMARK    7  A    between atoms: C_18  and  C_13 
REMARK    8  A    between atoms: C_23  and  C_13 
REMARK    9  A    between atoms: C_26  and  C_15 
REMARK   10  A    between atoms: N_33  and  C_15 
REMARK   11  A    between atoms: C_29  and  C_16 
REMARK   12  A    between atoms: N_35  and  C_16 
REMARK   13  A    between atoms: O_44  and  C_17 
REMARK   14  A    between atoms: C_27  and  C_20 
REMARK   15  A    between atoms: C_20  and  N_39 
REMARK   16  A    between atoms: C_30  and  C_21 
REMARK   17  A    between atoms: C_21  and  N_37 
REMARK   18  A    between atoms: C_22  and  O_45 
REMARK   19  A    between atoms: C_23  and  O_46 
REMARK   20  A    between atoms: C_31  and  C_24 
REMARK   21  A    between atoms: C_28  and  C_25 
REMARK   22  A    between atoms: C_32  and  C_25 
REMARK   23  A    between atoms: C_25  and  N_41 
REMARK   24  A    between atoms: C_26  and  O_47 
REMARK   25  A    between atoms: C_27  and  O_48 
REMARK   26  A    between atoms: O_50  and  C_29 
REMARK   27  A    between atoms: O_52  and  C_30 
REMARK   28  A    between atoms: O_54  and  C_31 
REMARK   29  A    between atoms: O_56  and  C_32 
ROOT
HETATM    1  C   UNK N   1      27.562  16.693   5.795  0.00  0.00     0.158 C 
ENDROOT
BRANCH   1   2
HETATM    2  C   UNK N   1      26.221  17.294   5.417  0.00  0.00     0.038 C 
BRANCH   2   3
HETATM    3  C   UNK N   1      25.827  17.485   3.949  0.00  0.00     0.040 C 
BRANCH   3   4
HETATM    4  C   UNK N   1      24.523  18.170   4.123  0.00  0.00    -0.037 C 
HETATM    5  C   UNK N   1      23.396  17.262   4.600  0.00  0.00     0.113 C 
HETATM    6  S   UNK N   1      21.734  17.998   4.678  0.00  0.00    -0.137 SA
HETATM    7  C   UNK N   1      22.016  18.855   3.113  0.00  0.00     0.177 C 
HETATM    8  N   UNK N   1      22.985  19.880   3.405  0.00  0.00    -0.368 N 
HETATM    9  C   UNK N   1      24.319  19.438   3.640  0.00  0.00     0.106 C 
HETATM   10  H   UNK N   1      22.740  20.833   3.440  0.00  0.00     0.161 HD
BRANCH   7  11
HETATM   11  C   UNK N   1      20.737  19.339   2.395  0.00  0.00     0.214 C 
BRANCH  11  12
HETATM   12  C   UNK N   1      20.989  20.663   1.720  0.00  0.00     0.166 C 
HETATM   13  O   UNK N   1      21.061  20.726   0.502  0.00  0.00    -0.648 OA
BRANCH  12  14
HETATM   14  O   UNK N   1      21.142  21.782   2.455  0.00  0.00    -0.775 OA
HETATM   15  H   UNK N   1      21.503  22.184   3.221  0.00  0.00     0.167 HD
ENDBRANCH  12  14
ENDBRANCH  11  12
BRANCH  11  16
HETATM   16  N   UNK N   1      20.387  18.414   1.324  0.00  0.00    -0.357 N 
HETATM   17  C   UNK N   1      19.764  17.293   1.443  0.00  0.00     0.116 C 
ATOM     18  HN  UNK N   1      20.665  18.683   0.381  1.00  0.00     0.162 HD
BRANCH  17  19
HETATM   19  C   UNK N   1      19.544  16.457   0.229  0.00  0.00     0.122 C 
BRANCH  19  20
HETATM   20  C   UNK N   1      19.963  15.073   0.545  0.00  0.00    -0.051 A 
HETATM   21  C   UNK N   1      21.285  14.806   0.916  0.00  0.00     0.007 A 
HETATM   22  C   UNK N   1      21.654  13.513   1.289  0.00  0.00     0.001 A 
HETATM   23  C   UNK N   1      20.701  12.489   1.298  0.00  0.00     0.000 A 
HETATM   24  C   UNK N   1      19.379  12.757   0.927  0.00  0.00     0.001 A 
HETATM   25  C   UNK N   1      19.010  14.050   0.555  0.00  0.00     0.007 A 
ENDBRANCH  19  20
ENDBRANCH  17  19
BRANCH  17  26
HETATM   26  O   UNK N   1      19.287  16.869   2.626  0.00  0.00    -0.349 OA
HETATM   27  H   UNK N   1      18.872  16.290   3.236  0.00  0.00     0.219 HD
ENDBRANCH  17  26
ENDBRANCH  11  16
ENDBRANCH   7  11
BRANCH   9  28
HETATM   28  C   UNK N   1      25.423  20.323   3.165  0.00  0.00     0.193 C 
HETATM   29  O   UNK N   1      26.365  20.557   3.902  0.00  0.00    -0.645 OA
BRANCH  28  30
HETATM   30  O   UNK N   1      25.412  20.858   1.928  0.00  0.00    -0.772 OA
HETATM   31  H   UNK N   1      25.639  21.759   1.803  0.00  0.00     0.167 HD
ENDBRANCH  28  30
ENDBRANCH   9  28
ENDBRANCH   3   4
ENDBRANCH   2   3
ENDBRANCH   1   2
BRANCH   1  32
HETATM   32  C   UNK N   1      28.386  17.527   6.728  0.00  0.00     0.135 C 
HETATM   33  N   UNK N   1      29.187  16.915   7.527  0.00  0.00    -0.361 N 
ATOM     34  HN  UNK N   1      29.128  15.897   7.561  1.00  0.00     0.162 HD
BRANCH  33  35
HETATM   35  C   UNK N   1      30.159  17.552   8.379  0.00  0.00     0.153 C 
HETATM   36  C   UNK N   1      29.668  17.502   9.817  0.00  0.00     0.041 C 
BRANCH  35  37
HETATM   37  C   UNK N   1      31.421  16.765   8.179  0.00  0.00     0.135 C 
HETATM   38  N   UNK N   1      32.489  17.154   8.798  0.00  0.00    -0.359 N 
ATOM     39  HN  UNK N   1      32.390  17.911   9.474  1.00  0.00     0.162 HD
BRANCH  38  40
HETATM   40  C   UNK N   1      33.815  16.599   8.608  0.00  0.00     0.177 C 
HETATM   41  C   UNK N   1      34.663  16.864   9.849  0.00  0.00     0.043 C 
BRANCH  40  42
HETATM   42  C   UNK N   1      34.459  17.114   7.347  0.00  0.00     0.163 C 
HETATM   43  O   UNK N   1      34.563  18.315   7.143  0.00  0.00    -0.648 OA
BRANCH  42  44
HETATM   44  O   UNK N   1      34.927  16.243   6.435  0.00  0.00    -0.775 OA
HETATM   45  H   UNK N   1      34.931  15.406   6.013  0.00  0.00     0.167 HD
ENDBRANCH  42  44
ENDBRANCH  40  42
ENDBRANCH  38  40
BRANCH  37  46
HETATM   46  O   UNK N   1      31.457  15.728   7.314  0.00  0.00    -0.348 OA
HETATM   47  H   UNK N   1      30.972  15.535   6.536  0.00  0.00     0.219 HD
ENDBRANCH  37  46
ENDBRANCH  35  37
ENDBRANCH  33  35
BRANCH  32  48
HETATM   48  O   UNK N   1      28.331  18.877   6.687  0.00  0.00    -0.348 OA
HETATM   49  H   UNK N   1      28.066  19.718   6.370  0.00  0.00     0.219 HD
ENDBRANCH  32  48
ENDBRANCH   1  32
BRANCH   1  50
HETATM   50  N   UNK N   1      28.307  16.313   4.611  0.00  0.00    -0.362 N 
HETATM   51  C   UNK N   1      28.647  15.108   4.304  0.00  0.00     0.111 C 
ATOM     52  HN  UNK N   1      28.585  17.058   3.971  1.00  0.00     0.162 HD
BRANCH  51  53
HETATM   53  C   UNK N   1      29.528  14.896   3.136  0.00  0.00     0.086 C 
BRANCH  53  54
HETATM   54  C   UNK N   1      30.109  16.257   2.817  0.00  0.00     0.044 C 
BRANCH  54  55
HETATM   55  C   UNK N   1      31.606  16.350   3.065  0.00  0.00     0.181 C 
BRANCH  55  56
HETATM   56  C   UNK N   1      31.841  17.323   4.194  0.00  0.00     0.163 C 
HETATM   57  O   UNK N   1      30.898  17.713   4.864  0.00  0.00    -0.648 OA
BRANCH  56  58
HETATM   58  O   UNK N   1      33.081  17.767   4.476  0.00  0.00    -0.775 OA
HETATM   59  H   UNK N   1      33.960  17.510   4.277  0.00  0.00     0.167 HD
ENDBRANCH  56  58
ENDBRANCH  55  56
BRANCH  55  60
HETATM   60  N   UNK N   1      32.175  15.035   3.331  0.00  0.00    -0.360 N 
HETATM   61  C   UNK N   1      33.283  14.599   2.831  0.00  0.00     0.107 C 
HETATM   62  C   UNK N   1      33.760  13.236   3.192  0.00  0.00     0.097 C 
ATOM     63  HN  UNK N   1      31.661  14.415   3.956  1.00  0.00     0.162 HD
BRANCH  61  64
HETATM   64  O   UNK N   1      34.030  15.364   2.007  0.00  0.00    -0.350 OA
HETATM   65  H   UNK N   1      33.942  16.100   1.433  0.00  0.00     0.219 HD
ENDBRANCH  61  64
ENDBRANCH  55  60
ENDBRANCH  54  55
ENDBRANCH  53  54
ENDBRANCH  51  53
BRANCH  51  66
HETATM   66  O   UNK N   1      28.275  14.052   5.060  0.00  0.00    -0.350 OA
HETATM   67  H   UNK N   1      28.281  13.197   5.443  0.00  0.00     0.219 HD
ENDBRANCH  51  66
ENDBRANCH   1  50
TORSDOF 29
ENDMDL
MODEL 3
REMARK VINA RESULT:      -7.1      2.926      4.016
REMARK  29 active torsions:
REMARK  status: ('A' for Active; 'I' for Inactive)
REMARK    1  A    between atoms: C_10  and  C_9 
REMARK    2  A    between atoms: C_19  and  C_9 
REMARK    3  A    between atoms: C_20  and  C_10 
REMARK    4  A    between atoms: C_12  and  C_11 
REMARK    5  A    between atoms: C_21  and  C_11 
REMARK    6  A    between atoms: C_22  and  C_12 
REMARK    7  A    between atoms: C_18  and  C_13 
REMARK    8  A    between atoms: C_23  and  C_13 
REMARK    9  A    between atoms: C_26  and  C_15 
REMARK   10  A    between atoms: N_33  and  C_15 
REMARK   11  A    between atoms: C_29  and  C_16 
REMARK   12  A    between atoms: N_35  and  C_16 
REMARK   13  A    between atoms: O_44  and  C_17 
REMARK   14  A    between atoms: C_27  and  C_20 
REMARK   15  A    between atoms: C_20  and  N_39 
REMARK   16  A    between atoms: C_30  and  C_21 
REMARK   17  A    between atoms: C_21  and  N_37 
REMARK   18  A    between atoms: C_22  and  O_45 
REMARK   19  A    between atoms: C_23  and  O_46 
REMARK   20  A    between atoms: C_31  and  C_24 
REMARK   21  A    between atoms: C_28  and  C_25 
REMARK   22  A    between atoms: C_32  and  C_25 
REMARK   23  A    between atoms: C_25  and  N_41 
REMARK   24  A    between atoms: C_26  and  O_47 
REMARK   25  A    between atoms: C_27  and  O_48 
REMARK   26  A    between atoms: O_50  and  C_29 
REMARK   27  A    between atoms: O_52  and  C_30 
REMARK   28  A    between atoms: O_54  and  C_31 
REMARK   29  A    between atoms: O_56  and  C_32 
ROOT
HETATM    1  C   UNK N   1      24.938  14.154   3.936  0.00  0.00     0.158 C 
ENDROOT
BRANCH   1   2
HETATM    2  C   UNK N   1      26.167  14.952   3.542  0.00  0.00     0.038 C 
BRANCH   2   3
HETATM    3  C   UNK N   1      26.041  16.248   2.735  0.00  0.00     0.040 C 
BRANCH   3   4
HETATM    4  C   UNK N   1      26.783  17.174   3.625  0.00  0.00    -0.037 C 
HETATM    5  C   UNK N   1      28.299  17.055   3.530  0.00  0.00     0.113 C 
HETATM    6  S   UNK N   1      29.270  18.043   4.710  0.00  0.00    -0.137 SA
HETATM    7  C   UNK N   1      28.106  17.646   6.033  0.00  0.00     0.177 C 
HETATM    8  N   UNK N   1      26.900  18.367   5.715  0.00  0.00    -0.368 N 
HETATM    9  C   UNK N   1      26.139  17.870   4.617  0.00  0.00     0.106 C 
HETATM   10  H   UNK N   1      26.617  19.160   6.226  0.00  0.00     0.161 HD
BRANCH   7  11
HETATM   11  C   UNK N   1      28.647  17.863   7.464  0.00  0.00     0.214 C 
BRANCH  11  12
HETATM   12  C   UNK N   1      27.672  17.320   8.477  0.00  0.00     0.166 C 
HETATM   13  O   UNK N   1      27.040  16.302   8.236  0.00  0.00    -0.648 OA
BRANCH  12  14
HETATM   14  O   UNK N   1      27.485  17.958   9.650  0.00  0.00    -0.775 OA
HETATM   15  H   UNK N   1      27.841  18.514  10.314  0.00  0.00     0.167 HD
ENDBRANCH  12  14
ENDBRANCH  11  12
BRANCH  11  16
HETATM   16  N   UNK N   1      29.873  17.096   7.653  0.00  0.00    -0.357 N 
HETATM   17  C   UNK N   1      30.793  17.310   8.530  0.00  0.00     0.116 C 
ATOM     18  HN  UNK N   1      30.018  16.307   7.024  1.00  0.00     0.162 HD
BRANCH  17  19
HETATM   19  C   UNK N   1      32.004  16.443   8.532  0.00  0.00     0.122 C 
BRANCH  19  20
HETATM   20  C   UNK N   1      32.490  16.334   7.137  0.00  0.00    -0.051 A 
HETATM   21  C   UNK N   1      32.971  17.465   6.470  0.00  0.00     0.007 A 
HETATM   22  C   UNK N   1      33.501  17.341   5.185  0.00  0.00     0.001 A 
HETATM   23  C   UNK N   1      33.556  16.085   4.570  0.00  0.00     0.000 A 
HETATM   24  C   UNK N   1      33.075  14.955   5.238  0.00  0.00     0.001 A 
HETATM   25  C   UNK N   1      32.547  15.079   6.524  0.00  0.00     0.007 A 
ENDBRANCH  19  20
ENDBRANCH  17  19
BRANCH  17  26
HETATM   26  O   UNK N   1      30.677  18.278   9.456  0.00  0.00    -0.349 OA
HETATM   27  H   UNK N   1      30.371  19.076   9.841  0.00  0.00     0.219 HD
ENDBRANCH  17  26
ENDBRANCH  11  16
ENDBRANCH   7  11
BRANCH   9  28
HETATM   28  C   UNK N   1      24.654  17.979   4.713  0.00  0.00     0.193 C 
HETATM   29  O   UNK N   1      24.060  18.755   3.986  0.00  0.00    -0.645 OA
BRANCH  28  30
HETATM   30  O   UNK N   1      23.949  17.222   5.578  0.00  0.00    -0.772 OA
HETATM   31  H   UNK N   1      23.540  16.432   5.284  0.00  0.00     0.167 HD
ENDBRANCH  28  30
ENDBRANCH   9  28
ENDBRANCH   3   4
ENDBRANCH   2   3
ENDBRANCH   1   2
BRANCH   1  32
HETATM   32  C   UNK N   1      23.774  14.287   3.002  0.00  0.00     0.135 C 
HETATM   33  N   UNK N   1      22.796  15.038   3.369  0.00  0.00    -0.361 N 
ATOM     34  HN  UNK N   1      22.818  15.403   4.321  1.00  0.00     0.162 HD
BRANCH  33  35
HETATM   35  C   UNK N   1      21.673  15.404   2.544  0.00  0.00     0.153 C 
HETATM   36  C   UNK N   1      20.578  14.361   2.704  0.00  0.00     0.041 C 
BRANCH  35  37
HETATM   37  C   UNK N   1      21.252  16.755   3.042  0.00  0.00     0.135 C 
HETATM   38  N   UNK N   1      20.768  17.599   2.189  0.00  0.00    -0.359 N 
ATOM     39  HN  UNK N   1      20.597  17.261   1.241  1.00  0.00     0.162 HD
BRANCH  38  40
HETATM   40  C   UNK N   1      20.448  18.984   2.470  0.00  0.00     0.177 C 
HETATM   41  C   UNK N   1      18.935  19.146   2.592  0.00  0.00     0.043 C 
BRANCH  40  42
HETATM   42  C   UNK N   1      21.049  19.914   1.448  0.00  0.00     0.163 C 
HETATM   43  O   UNK N   1      21.901  20.729   1.769  0.00  0.00    -0.648 OA
BRANCH  42  44
HETATM   44  O   UNK N   1      20.647  19.843   0.166  0.00  0.00    -0.775 OA
HETATM   45  H   UNK N   1      19.984  19.768  -0.492  0.00  0.00     0.167 HD
ENDBRANCH  42  44
ENDBRANCH  40  42
ENDBRANCH  38  40
BRANCH  37  46
HETATM   46  O   UNK N   1      21.450  17.106   4.332  0.00  0.00    -0.348 OA
HETATM   47  H   UNK N   1      21.933  16.710   5.029  0.00  0.00     0.219 HD
ENDBRANCH  37  46
ENDBRANCH  35  37
ENDBRANCH  33  35
BRANCH  32  48
HETATM   48  O   UNK N   1      23.781  13.686   1.791  0.00  0.00    -0.348 OA
HETATM   49  H   UNK N   1      23.526  13.065   1.137  0.00  0.00     0.219 HD
ENDBRANCH  32  48
ENDBRANCH   1  32
BRANCH   1  50
HETATM   50  N   UNK N   1      24.563  14.432   5.308  0.00  0.00    -0.362 N 
HETATM   51  C   UNK N   1      24.967  13.767   6.336  0.00  0.00     0.111 C 
ATOM     52  HN  UNK N   1      23.929  15.215   5.473  1.00  0.00     0.162 HD
BRANCH  51  53
HETATM   53  C   UNK N   1      24.385  14.084   7.658  0.00  0.00     0.086 C 
BRANCH  53  54
HETATM   54  C   UNK N   1      24.626  12.856   8.509  0.00  0.00     0.044 C 
BRANCH  54  55
HETATM   55  C   UNK N   1      23.503  12.571   9.494  0.00  0.00     0.181 C 
BRANCH  55  56
HETATM   56  C   UNK N   1      24.117  12.241  10.832  0.00  0.00     0.163 C 
HETATM   57  O   UNK N   1      23.481  11.591  11.648  0.00  0.00    -0.648 OA
BRANCH  56  58
HETATM   58  O   UNK N   1      25.362  12.654  11.141  0.00  0.00    -0.775 OA
HETATM   59  H   UNK N   1      25.814  12.941  11.910  0.00  0.00     0.167 HD
ENDBRANCH  56  58
ENDBRANCH  55  56
BRANCH  55  60
HETATM   60  N   UNK N   1      22.573  13.690   9.565  0.00  0.00    -0.360 N 
HETATM   61  C   UNK N   1      21.375  13.683   9.081  0.00  0.00     0.107 C 
HETATM   62  C   UNK N   1      20.521  14.892   9.230  0.00  0.00     0.097 C 
ATOM     63  HN  UNK N   1      22.891  14.540  10.030  1.00  0.00     0.162 HD
BRANCH  61  64
HETATM   64  O   UNK N   1      20.876  12.591   8.464  0.00  0.00    -0.350 OA
HETATM   65  H   UNK N   1      20.457  11.778   8.669  0.00  0.00     0.219 HD
ENDBRANCH  61  64
ENDBRANCH  55  60
ENDBRANCH  54  55
ENDBRANCH  53  54
ENDBRANCH  51  53
BRANCH  51  66
HETATM   66  O   UNK N   1      25.851  12.752   6.221  0.00  0.00    -0.350 OA
HETATM   67  H   UNK N   1      26.502  12.120   6.456  0.00  0.00     0.219 HD
ENDBRANCH  51  66
ENDBRANCH   1  50
TORSDOF 29
ENDMDL
MODEL 4
REMARK VINA RESULT:      -7.0      3.072     10.685
REMARK  29 active torsions:
REMARK  status: ('A' for Active; 'I' for Inactive)
REMARK    1  A    between atoms: C_10  and  C_9 
REMARK    2  A    between atoms: C_19  and  C_9 
REMARK    3  A    between atoms: C_20  and  C_10 
REMARK    4  A    between atoms: C_12  and  C_11 
REMARK    5  A    between atoms: C_21  and  C_11 
REMARK    6  A    between atoms: C_22  and  C_12 
REMARK    7  A    between atoms: C_18  and  C_13 
REMARK    8  A    between atoms: C_23  and  C_13 
REMARK    9  A    between atoms: C_26  and  C_15 
REMARK   10  A    between atoms: N_33  and  C_15 
REMARK   11  A    between atoms: C_29  and  C_16 
REMARK   12  A    between atoms: N_35  and  C_16 
REMARK   13  A    between atoms: O_44  and  C_17 
REMARK   14  A    between atoms: C_27  and  C_20 
REMARK   15  A    between atoms: C_20  and  N_39 
REMARK   16  A    between atoms: C_30  and  C_21 
REMARK   17  A    between atoms: C_21  and  N_37 
REMARK   18  A    between atoms: C_22  and  O_45 
REMARK   19  A    between atoms: C_23  and  O_46 
REMARK   20  A    between atoms: C_31  and  C_24 
REMARK   21  A    between atoms: C_28  and  C_25 
REMARK   22  A    between atoms: C_32  and  C_25 
REMARK   23  A    between atoms: C_25  and  N_41 
REMARK   24  A    between atoms: C_26  and  O_47 
REMARK   25  A    between atoms: C_27  and  O_48 
REMARK   26  A    between atoms: O_50  and  C_29 
REMARK   27  A    between atoms: O_52  and  C_30 
REMARK   28  A    between atoms: O_54  and  C_31 
REMARK   29  A    between atoms: O_56  and  C_32 
ROOT
HETATM    1  C   UNK N   1      27.097  16.676   5.933  0.00  0.00     0.158 C 
ENDROOT
BRANCH   1   2
HETATM    2  C   UNK N   1      25.775  17.263   5.472  0.00  0.00     0.038 C 
BRANCH   2   3
HETATM    3  C   UNK N   1      25.454  17.411   3.982  0.00  0.00     0.040 C 
BRANCH   3   4
HETATM    4  C   UNK N   1      23.989  17.183   4.013  0.00  0.00    -0.037 C 
HETATM    5  C   UNK N   1      23.180  18.371   4.522  0.00  0.00     0.113 C 
HETATM    6  S   UNK N   1      21.394  18.106   4.743  0.00  0.00    -0.137 SA
HETATM    7  C   UNK N   1      21.701  16.465   5.435  0.00  0.00     0.177 C 
HETATM    8  N   UNK N   1      22.150  15.659   4.330  0.00  0.00    -0.368 N 
HETATM    9  C   UNK N   1      23.464  15.926   3.847  0.00  0.00     0.106 C 
HETATM   10  H   UNK N   1      21.582  14.962   3.929  0.00  0.00     0.161 HD
BRANCH   7  11
HETATM   11  C   UNK N   1      20.530  15.874   6.253  0.00  0.00     0.214 C 
BRANCH  11  12
HETATM   12  C   UNK N   1      19.294  15.778   5.396  0.00  0.00     0.166 C 
HETATM   13  O   UNK N   1      18.195  16.007   5.878  0.00  0.00    -0.648 OA
BRANCH  12  14
HETATM   14  O   UNK N   1      19.393  15.431   4.097  0.00  0.00    -0.775 OA
HETATM   15  H   UNK N   1      19.412  14.745   3.460  0.00  0.00     0.167 HD
ENDBRANCH  12  14
ENDBRANCH  11  12
BRANCH  11  16
HETATM   16  N   UNK N   1      20.841  14.505   6.647  0.00  0.00    -0.357 N 
HETATM   17  C   UNK N   1      21.053  14.073   7.842  0.00  0.00     0.116 C 
ATOM     18  HN  UNK N   1      20.897  13.817   5.897  1.00  0.00     0.162 HD
BRANCH  17  19
HETATM   19  C   UNK N   1      21.410  12.640   8.039  0.00  0.00     0.122 C 
BRANCH  19  20
HETATM   20  C   UNK N   1      22.465  12.570   9.075  0.00  0.00    -0.051 A 
HETATM   21  C   UNK N   1      22.178  12.034  10.335  0.00  0.00     0.007 A 
HETATM   22  C   UNK N   1      23.197  11.898  11.280  0.00  0.00     0.001 A 
HETATM   23  C   UNK N   1      24.501  12.291  10.963  0.00  0.00     0.000 A 
HETATM   24  C   UNK N   1      24.786  12.827   9.703  0.00  0.00     0.001 A 
HETATM   25  C   UNK N   1      23.768  12.961   8.758  0.00  0.00     0.007 A 
ENDBRANCH  19  20
ENDBRANCH  17  19
BRANCH  17  26
HETATM   26  O   UNK N   1      20.937  14.874   8.916  0.00  0.00    -0.349 OA
HETATM   27  H   UNK N   1      21.220  15.432   9.615  0.00  0.00     0.219 HD
ENDBRANCH  17  26
ENDBRANCH  11  16
ENDBRANCH   7  11
BRANCH   9  28
HETATM   28  C   UNK N   1      24.259  14.763   3.357  0.00  0.00     0.193 C 
HETATM   29  O   UNK N   1      24.718  13.967   4.157  0.00  0.00    -0.645 OA
BRANCH  28  30
HETATM   30  O   UNK N   1      24.467  14.559   2.040  0.00  0.00    -0.772 OA
HETATM   31  H   UNK N   1      23.942  13.940   1.572  0.00  0.00     0.167 HD
ENDBRANCH  28  30
ENDBRANCH   9  28
ENDBRANCH   3   4
ENDBRANCH   2   3
ENDBRANCH   1   2
BRANCH   1  32
HETATM   32  C   UNK N   1      27.857  17.524   6.907  0.00  0.00     0.135 C 
HETATM   33  N   UNK N   1      28.861  16.990   7.508  0.00  0.00    -0.361 N 
ATOM     34  HN  UNK N   1      29.008  15.989   7.375  1.00  0.00     0.162 HD
BRANCH  33  35
HETATM   35  C   UNK N   1      29.792  17.691   8.355  0.00  0.00     0.153 C 
HETATM   36  C   UNK N   1      29.334  17.575   9.800  0.00  0.00     0.041 C 
BRANCH  35  37
HETATM   37  C   UNK N   1      31.111  17.015   8.118  0.00  0.00     0.135 C 
HETATM   38  N   UNK N   1      32.154  17.476   8.731  0.00  0.00    -0.359 N 
ATOM     39  HN  UNK N   1      32.003  18.206   9.428  1.00  0.00     0.162 HD
BRANCH  38  40
HETATM   40  C   UNK N   1      33.517  17.038   8.509  0.00  0.00     0.177 C 
HETATM   41  C   UNK N   1      34.161  16.671   9.843  0.00  0.00     0.043 C 
BRANCH  40  42
HETATM   42  C   UNK N   1      34.314  18.063   7.745  0.00  0.00     0.163 C 
HETATM   43  O   UNK N   1      34.904  18.959   8.329  0.00  0.00    -0.648 OA
BRANCH  42  44
HETATM   44  O   UNK N   1      34.381  17.989   6.403  0.00  0.00    -0.775 OA
HETATM   45  H   UNK N   1      34.381  17.509   5.598  0.00  0.00     0.167 HD
ENDBRANCH  42  44
ENDBRANCH  40  42
ENDBRANCH  38  40
BRANCH  37  46
HETATM   46  O   UNK N   1      31.219  16.006   7.226  0.00  0.00    -0.348 OA
HETATM   47  H   UNK N   1      31.957  15.555   6.866  0.00  0.00     0.219 HD
ENDBRANCH  37  46
ENDBRANCH  35  37
ENDBRANCH  33  35
BRANCH  32  48
HETATM   48  O   UNK N   1      27.532  18.822   7.101  0.00  0.00    -0.348 OA
HETATM   49  H   UNK N   1      27.453  19.731   6.886  0.00  0.00     0.219 HD
ENDBRANCH  32  48
ENDBRANCH   1  32
BRANCH   1  50
HETATM   50  N   UNK N   1      27.914  16.296   4.798  0.00  0.00    -0.362 N 
HETATM   51  C   UNK N   1      28.111  15.086   4.400  0.00  0.00     0.111 C 
ATOM     52  HN  UNK N   1      28.370  17.044   4.274  1.00  0.00     0.162 HD
BRANCH  51  53
HETATM   53  C   UNK N   1      29.083  14.847   3.312  0.00  0.00     0.086 C 
BRANCH  53  54
HETATM   54  C   UNK N   1      29.598  16.217   2.925  0.00  0.00     0.044 C 
BRANCH  54  55
HETATM   55  C   UNK N   1      31.111  16.344   3.018  0.00  0.00     0.181 C 
BRANCH  55  56
HETATM   56  C   UNK N   1      31.437  17.366   4.080  0.00  0.00     0.163 C 
HETATM   57  O   UNK N   1      30.558  17.765   4.828  0.00  0.00    -0.648 OA
BRANCH  56  58
HETATM   58  O   UNK N   1      32.689  17.845   4.215  0.00  0.00    -0.775 OA
HETATM   59  H   UNK N   1      33.101  18.558   4.661  0.00  0.00     0.167 HD
ENDBRANCH  56  58
ENDBRANCH  55  56
BRANCH  55  60
HETATM   60  N   UNK N   1      31.730  15.051   3.277  0.00  0.00    -0.360 N 
HETATM   61  C   UNK N   1      32.927  14.723   2.919  0.00  0.00     0.107 C 
HETATM   62  C   UNK N   1      33.445  13.369   3.255  0.00  0.00     0.097 C 
ATOM     63  HN  UNK N   1      31.177  14.354   3.776  1.00  0.00     0.162 HD
BRANCH  61  64
HETATM   64  O   UNK N   1      33.726  15.595   2.268  0.00  0.00    -0.350 OA
HETATM   65  H   UNK N   1      34.636  15.786   2.151  0.00  0.00     0.219 HD
ENDBRANCH  61  64
ENDBRANCH  55  60
ENDBRANCH  54  55
ENDBRANCH  53  54
ENDBRANCH  51  53
BRANCH  51  66
HETATM   66  O   UNK N   1      27.503  14.035   4.994  0.00  0.00    -0.350 OA
HETATM   67  H   UNK N   1      26.822  13.478   5.315  0.00  0.00     0.219 HD
ENDBRANCH  51  66
ENDBRANCH   1  50
TORSDOF 29
ENDMDL
MODEL 5
REMARK VINA RESULT:      -7.0      2.765      7.925
REMARK  29 active torsions:
REMARK  status: ('A' for Active; 'I' for Inactive)
REMARK    1  A    between atoms: C_10  and  C_9 
REMARK    2  A    between atoms: C_19  and  C_9 
REMARK    3  A    between atoms: C_20  and  C_10 
REMARK    4  A    between atoms: C_12  and  C_11 
REMARK    5  A    between atoms: C_21  and  C_11 
REMARK    6  A    between atoms: C_22  and  C_12 
REMARK    7  A    between atoms: C_18  and  C_13 
REMARK    8  A    between atoms: C_23  and  C_13 
REMARK    9  A    between atoms: C_26  and  C_15 
REMARK   10  A    between atoms: N_33  and  C_15 
REMARK   11  A    between atoms: C_29  and  C_16 
REMARK   12  A    between atoms: N_35  and  C_16 
REMARK   13  A    between atoms: O_44  and  C_17 
REMARK   14  A    between atoms: C_27  and  C_20 
REMARK   15  A    between atoms: C_20  and  N_39 
REMARK   16  A    between atoms: C_30  and  C_21 
REMARK   17  A    between atoms: C_21  and  N_37 
REMARK   18  A    between atoms: C_22  and  O_45 
REMARK   19  A    between atoms: C_23  and  O_46 
REMARK   20  A    between atoms: C_31  and  C_24 
REMARK   21  A    between atoms: C_28  and  C_25 
REMARK   22  A    between atoms: C_32  and  C_25 
REMARK   23  A    between atoms: C_25  and  N_41 
REMARK   24  A    between atoms: C_26  and  O_47 
REMARK   25  A    between atoms: C_27  and  O_48 
REMARK   26  A    between atoms: O_50  and  C_29 
REMARK   27  A    between atoms: O_52  and  C_30 
REMARK   28  A    between atoms: O_54  and  C_31 
REMARK   29  A    between atoms: O_56  and  C_32 
ROOT
HETATM    1  C   UNK N   1      22.709  18.128   5.003  0.00  0.00     0.158 C 
ENDROOT
BRANCH   1   2
HETATM    2  C   UNK N   1      22.294  16.824   5.658  0.00  0.00     0.038 C 
BRANCH   2   3
HETATM    3  C   UNK N   1      21.199  16.792   6.728  0.00  0.00     0.040 C 
BRANCH   3   4
HETATM    4  C   UNK N   1      20.835  15.356   6.676  0.00  0.00    -0.037 C 
HETATM    5  C   UNK N   1      21.881  14.421   7.272  0.00  0.00     0.113 C 
HETATM    6  S   UNK N   1      21.575  12.636   7.095  0.00  0.00    -0.137 SA
HETATM    7  C   UNK N   1      20.997  12.881   5.401  0.00  0.00     0.177 C 
HETATM    8  N   UNK N   1      19.729  13.553   5.521  0.00  0.00    -0.368 N 
HETATM    9  C   UNK N   1      19.774  14.920   5.921  0.00  0.00     0.106 C 
HETATM   10  H   UNK N   1      18.877  13.095   5.337  0.00  0.00     0.161 HD
BRANCH   7  11
HETATM   11  C   UNK N   1      20.991  11.609   4.524  0.00  0.00     0.214 C 
BRANCH  11  12
HETATM   12  C   UNK N   1      19.575  11.210   4.196  0.00  0.00     0.166 C 
HETATM   13  O   UNK N   1      18.914  10.575   5.004  0.00  0.00    -0.648 OA
BRANCH  12  14
HETATM   14  O   UNK N   1      19.032  11.545   3.008  0.00  0.00    -0.775 OA
HETATM   15  H   UNK N   1      18.578  11.265   2.239  0.00  0.00     0.167 HD
ENDBRANCH  12  14
ENDBRANCH  11  12
BRANCH  11  16
HETATM   16  N   UNK N   1      21.626  11.887   3.241  0.00  0.00    -0.357 N 
HETATM   17  C   UNK N   1      22.616  11.253   2.714  0.00  0.00     0.116 C 
ATOM     18  HN  UNK N   1      21.245  12.666   2.703  1.00  0.00     0.162 HD
BRANCH  17  19
HETATM   19  C   UNK N   1      23.162  11.723   1.409  0.00  0.00     0.122 C 
BRANCH  19  20
HETATM   20  C   UNK N   1      24.225  12.715   1.690  0.00  0.00    -0.051 A 
HETATM   21  C   UNK N   1      25.534  12.290   1.939  0.00  0.00     0.007 A 
HETATM   22  C   UNK N   1      26.547  13.233   2.123  0.00  0.00     0.001 A 
HETATM   23  C   UNK N   1      26.251  14.599   2.053  0.00  0.00     0.000 A 
HETATM   24  C   UNK N   1      24.942  15.022   1.804  0.00  0.00     0.001 A 
HETATM   25  C   UNK N   1      23.930  14.079   1.617  0.00  0.00     0.007 A 
ENDBRANCH  19  20
ENDBRANCH  17  19
BRANCH  17  26
HETATM   26  O   UNK N   1      23.153  10.167   3.297  0.00  0.00    -0.349 OA
HETATM   27  H   UNK N   1      23.781   9.664   3.778  0.00  0.00     0.219 HD
ENDBRANCH  17  26
ENDBRANCH  11  16
ENDBRANCH   7  11
BRANCH   9  28
HETATM   28  C   UNK N   1      18.755  15.837   5.332  0.00  0.00     0.193 C 
HETATM   29  O   UNK N   1      17.681  15.980   5.889  0.00  0.00    -0.645 OA
BRANCH  28  30
HETATM   30  O   UNK N   1      19.003  16.528   4.201  0.00  0.00    -0.772 OA
HETATM   31  H   UNK N   1      19.856  16.506   3.814  0.00  0.00     0.167 HD
ENDBRANCH  28  30
ENDBRANCH   9  28
ENDBRANCH   3   4
ENDBRANCH   2   3
ENDBRANCH   1   2
BRANCH   1  32
HETATM   32  C   UNK N   1      21.613  18.844   4.274  0.00  0.00     0.135 C 
HETATM   33  N   UNK N   1      21.421  18.545   3.038  0.00  0.00    -0.361 N 
ATOM     34  HN  UNK N   1      22.101  17.927   2.596  1.00  0.00     0.162 HD
BRANCH  33  35
HETATM   35  C   UNK N   1      20.326  19.014   2.229  0.00  0.00     0.153 C 
HETATM   36  C   UNK N   1      20.667  20.390   1.680  0.00  0.00     0.041 C 
BRANCH  35  37
HETATM   37  C   UNK N   1      20.181  17.987   1.144  0.00  0.00     0.135 C 
HETATM   38  N   UNK N   1      19.844  16.784   1.481  0.00  0.00    -0.359 N 
ATOM     39  HN  UNK N   1      19.589  16.624   2.456  1.00  0.00     0.162 HD
BRANCH  38  40
HETATM   40  C   UNK N   1      19.799  15.645   0.586  0.00  0.00     0.177 C 
HETATM   41  C   UNK N   1      18.478  15.646  -0.178  0.00  0.00     0.043 C 
BRANCH  40  42
HETATM   42  C   UNK N   1      20.044  14.351   1.318  0.00  0.00     0.163 C 
HETATM   43  O   UNK N   1      20.231  14.341   2.526  0.00  0.00    -0.648 OA
BRANCH  42  44
HETATM   44  O   UNK N   1      20.054  13.191   0.635  0.00  0.00    -0.775 OA
HETATM   45  H   UNK N   1      20.031  12.256   0.589  0.00  0.00     0.167 HD
ENDBRANCH  42  44
ENDBRANCH  40  42
ENDBRANCH  38  40
BRANCH  37  46
HETATM   46  O   UNK N   1      20.474  18.293  -0.139  0.00  0.00    -0.348 OA
HETATM   47  H   UNK N   1      20.599  19.109  -0.583  0.00  0.00     0.219 HD
ENDBRANCH  37  46
ENDBRANCH  35  37
ENDBRANCH  33  35
BRANCH  32  48
HETATM   48  O   UNK N   1      20.815  19.730   4.914  0.00  0.00    -0.348 OA
HETATM   49  H   UNK N   1      20.419  20.157   5.647  0.00  0.00     0.219 HD
ENDBRANCH  32  48
ENDBRANCH   1  32
BRANCH   1  50
HETATM   50  N   UNK N   1      23.876  17.935   4.165  0.00  0.00    -0.362 N 
HETATM   51  C   UNK N   1      25.071  18.319   4.458  0.00  0.00     0.111 C 
ATOM     52  HN  UNK N   1      23.741  17.458   3.273  1.00  0.00     0.162 HD
BRANCH  51  53
HETATM   53  C   UNK N   1      26.131  18.175   3.439  0.00  0.00     0.086 C 
BRANCH  53  54
HETATM   54  C   UNK N   1      27.416  18.565   4.137  0.00  0.00     0.044 C 
BRANCH  54  55
HETATM   55  C   UNK N   1      28.148  17.388   4.763  0.00  0.00     0.181 C 
BRANCH  55  56
HETATM   56  C   UNK N   1      29.363  17.082   3.920  0.00  0.00     0.163 C 
HETATM   57  O   UNK N   1      29.291  16.243   3.036  0.00  0.00    -0.648 OA
BRANCH  56  58
HETATM   58  O   UNK N   1      30.528  17.724   4.130  0.00  0.00    -0.775 OA
HETATM   59  H   UNK N   1      31.149  17.800   4.828  0.00  0.00     0.167 HD
ENDBRANCH  56  58
ENDBRANCH  55  56
BRANCH  55  60
HETATM   60  N   UNK N   1      28.486  17.661   6.153  0.00  0.00    -0.360 N 
HETATM   61  C   UNK N   1      27.807  17.246   7.170  0.00  0.00     0.107 C 
HETATM   62  C   UNK N   1      28.267  17.588   8.544  0.00  0.00     0.097 C 
ATOM     63  HN  UNK N   1      29.319  18.222   6.336  1.00  0.00     0.162 HD
BRANCH  61  64
HETATM   64  O   UNK N   1      26.702  16.488   7.012  0.00  0.00    -0.350 OA
HETATM   65  H   UNK N   1      26.230  15.805   7.448  0.00  0.00     0.219 HD
ENDBRANCH  61  64
ENDBRANCH  55  60
ENDBRANCH  54  55
ENDBRANCH  53  54
ENDBRANCH  51  53
BRANCH  51  66
HETATM   66  O   UNK N   1      25.356  18.906   5.642  0.00  0.00    -0.350 OA
HETATM   67  H   UNK N   1      25.387  19.056   6.566  0.00  0.00     0.219 HD
ENDBRANCH  51  66
ENDBRANCH   1  50
TORSDOF 29
ENDMDL
MODEL 6
REMARK VINA RESULT:      -6.9      2.378      5.382
REMARK  29 active torsions:
REMARK  status: ('A' for Active; 'I' for Inactive)
REMARK    1  A    between atoms: C_10  and  C_9 
REMARK    2  A    between atoms: C_19  and  C_9 
REMARK    3  A    between atoms: C_20  and  C_10 
REMARK    4  A    between atoms: C_12  and  C_11 
REMARK    5  A    between atoms: C_21  and  C_11 
REMARK    6  A    between atoms: C_22  and  C_12 
REMARK    7  A    between atoms: C_18  and  C_13 
REMARK    8  A    between atoms: C_23  and  C_13 
REMARK    9  A    between atoms: C_26  and  C_15 
REMARK   10  A    between atoms: N_33  and  C_15 
REMARK   11  A    between atoms: C_29  and  C_16 
REMARK   12  A    between atoms: N_35  and  C_16 
REMARK   13  A    between atoms: O_44  and  C_17 
REMARK   14  A    between atoms: C_27  and  C_20 
REMARK   15  A    between atoms: C_20  and  N_39 
REMARK   16  A    between atoms: C_30  and  C_21 
REMARK   17  A    between atoms: C_21  and  N_37 
REMARK   18  A    between atoms: C_22  and  O_45 
REMARK   19  A    between atoms: C_23  and  O_46 
REMARK   20  A    between atoms: C_31  and  C_24 
REMARK   21  A    between atoms: C_28  and  C_25 
REMARK   22  A    between atoms: C_32  and  C_25 
REMARK   23  A    between atoms: C_25  and  N_41 
REMARK   24  A    between atoms: C_26  and  O_47 
REMARK   25  A    between atoms: C_27  and  O_48 
REMARK   26  A    between atoms: O_50  and  C_29 
REMARK   27  A    between atoms: O_52  and  C_30 
REMARK   28  A    between atoms: O_54  and  C_31 
REMARK   29  A    between atoms: O_56  and  C_32 
ROOT
HETATM    1  C   UNK N   1      23.279  16.622   5.689  0.00  0.00     0.158 C 
ENDROOT
BRANCH   1   2
HETATM    2  C   UNK N   1      24.741  16.498   5.301  0.00  0.00     0.038 C 
BRANCH   2   3
HETATM    3  C   UNK N   1      25.322  17.317   4.145  0.00  0.00     0.040 C 
BRANCH   3   4
HETATM    4  C   UNK N   1      26.718  17.471   4.619  0.00  0.00    -0.037 C 
HETATM    5  C   UNK N   1      27.436  16.155   4.895  0.00  0.00     0.113 C 
HETATM    6  S   UNK N   1      29.094  16.270   5.635  0.00  0.00    -0.137 SA
HETATM    7  C   UNK N   1      28.538  17.597   6.728  0.00  0.00     0.177 C 
HETATM    8  N   UNK N   1      28.337  18.740   5.875  0.00  0.00    -0.368 N 
HETATM    9  C   UNK N   1      27.202  18.693   5.015  0.00  0.00     0.106 C 
HETATM   10  H   UNK N   1      28.950  19.510   5.884  0.00  0.00     0.161 HD
BRANCH   7  11
HETATM   11  C   UNK N   1      29.434  17.842   7.963  0.00  0.00     0.214 C 
BRANCH  11  12
HETATM   12  C   UNK N   1      28.623  17.716   9.227  0.00  0.00     0.166 C 
HETATM   13  O   UNK N   1      29.019  17.008  10.141  0.00  0.00    -0.648 OA
BRANCH  12  14
HETATM   14  O   UNK N   1      27.455  18.377   9.354  0.00  0.00    -0.775 OA
HETATM   15  H   UNK N   1      26.866  18.844   9.912  0.00  0.00     0.167 HD
ENDBRANCH  12  14
ENDBRANCH  11  12
BRANCH  11  16
HETATM   16  N   UNK N   1      30.457  16.807   8.049  0.00  0.00    -0.357 N 
HETATM   17  C   UNK N   1      31.677  16.954   8.435  0.00  0.00     0.116 C 
ATOM     18  HN  UNK N   1      30.176  15.866   7.774  1.00  0.00     0.162 HD
BRANCH  17  19
HETATM   19  C   UNK N   1      32.591  15.778   8.405  0.00  0.00     0.122 C 
BRANCH  19  20
HETATM   20  C   UNK N   1      32.818  15.412   6.988  0.00  0.00    -0.051 A 
HETATM   21  C   UNK N   1      32.267  14.235   6.469  0.00  0.00     0.007 A 
HETATM   22  C   UNK N   1      32.417  13.937   5.114  0.00  0.00     0.001 A 
HETATM   23  C   UNK N   1      33.112  14.817   4.278  0.00  0.00     0.000 A 
HETATM   24  C   UNK N   1      33.663  15.992   4.797  0.00  0.00     0.001 A 
HETATM   25  C   UNK N   1      33.510  16.291   6.152  0.00  0.00     0.007 A 
ENDBRANCH  19  20
ENDBRANCH  17  19
BRANCH  17  26
HETATM   26  O   UNK N   1      32.140  18.133   8.887  0.00  0.00    -0.349 OA
HETATM   27  H   UNK N   1      32.102  18.996   9.251  0.00  0.00     0.219 HD
ENDBRANCH  17  26
ENDBRANCH  11  16
ENDBRANCH   7  11
BRANCH   9  28
HETATM   28  C   UNK N   1      26.494  19.980   4.752  0.00  0.00     0.193 C 
HETATM   29  O   UNK N   1      26.297  20.334   3.603  0.00  0.00    -0.645 OA
BRANCH  28  30
HETATM   30  O   UNK N   1      26.049  20.756   5.760  0.00  0.00    -0.772 OA
HETATM   31  H   UNK N   1      25.752  20.365   6.559  0.00  0.00     0.167 HD
ENDBRANCH  28  30
ENDBRANCH   9  28
ENDBRANCH   3   4
ENDBRANCH   2   3
ENDBRANCH   1   2
BRANCH   1  32
HETATM   32  C   UNK N   1      22.656  15.362   6.210  0.00  0.00     0.135 C 
HETATM   33  N   UNK N   1      21.925  15.447   7.264  0.00  0.00    -0.361 N 
ATOM     34  HN  UNK N   1      21.908  16.344   7.750  1.00  0.00     0.162 HD
BRANCH  33  35
HETATM   35  C   UNK N   1      21.130  14.379   7.814  0.00  0.00     0.153 C 
HETATM   36  C   UNK N   1      22.027  13.460   8.628  0.00  0.00     0.041 C 
BRANCH  35  37
HETATM   37  C   UNK N   1      20.097  15.064   8.659  0.00  0.00     0.135 C 
HETATM   38  N   UNK N   1      19.859  16.317   8.441  0.00  0.00    -0.359 N 
ATOM     39  HN  UNK N   1      20.311  16.746   7.632  1.00  0.00     0.162 HD
BRANCH  38  40
HETATM   40  C   UNK N   1      19.005  17.161   9.252  0.00  0.00     0.177 C 
HETATM   41  C   UNK N   1      17.591  17.162   8.676  0.00  0.00     0.043 C 
BRANCH  40  42
HETATM   42  C   UNK N   1      19.570  18.550   9.398  0.00  0.00     0.163 C 
HETATM   43  O   UNK N   1      19.334  19.220  10.393  0.00  0.00    -0.648 OA
BRANCH  42  44
HETATM   44  O   UNK N   1      20.348  19.058   8.425  0.00  0.00    -0.775 OA
HETATM   45  H   UNK N   1      20.807  19.764   8.014  0.00  0.00     0.167 HD
ENDBRANCH  42  44
ENDBRANCH  40  42
ENDBRANCH  38  40
BRANCH  37  46
HETATM   46  O   UNK N   1      19.491  14.408   9.674  0.00  0.00    -0.348 OA
HETATM   47  H   UNK N   1      19.572  13.534  10.001  0.00  0.00     0.219 HD
ENDBRANCH  37  46
ENDBRANCH  35  37
ENDBRANCH  33  35
BRANCH  32  48
HETATM   48  O   UNK N   1      22.812  14.188   5.556  0.00  0.00    -0.348 OA
HETATM   49  H   UNK N   1      22.727  13.579   4.849  0.00  0.00     0.219 HD
ENDBRANCH  32  48
ENDBRANCH   1  32
BRANCH   1  50
HETATM   50  N   UNK N   1      22.506  17.198   4.607  0.00  0.00    -0.362 N 
HETATM   51  C   UNK N   1      21.394  17.834   4.748  0.00  0.00     0.111 C 
ATOM     52  HN  UNK N   1      22.870  17.090   3.660  1.00  0.00     0.162 HD
BRANCH  51  53
HETATM   53  C   UNK N   1      20.652  18.240   3.536  0.00  0.00     0.086 C 
BRANCH  53  54
HETATM   54  C   UNK N   1      19.496  17.270   3.427  0.00  0.00     0.044 C 
BRANCH  54  55
HETATM   55  C   UNK N   1      19.863  15.844   3.807  0.00  0.00     0.181 C 
BRANCH  55  56
HETATM   56  C   UNK N   1      18.836  15.335   4.789  0.00  0.00     0.163 C 
HETATM   57  O   UNK N   1      18.434  16.066   5.680  0.00  0.00    -0.648 OA
BRANCH  56  58
HETATM   58  O   UNK N   1      18.354  14.080   4.694  0.00  0.00    -0.775 OA
HETATM   59  H   UNK N   1      18.427  13.283   5.181  0.00  0.00     0.167 HD
ENDBRANCH  56  58
ENDBRANCH  55  56
BRANCH  55  60
HETATM   60  N   UNK N   1      19.975  14.999   2.625  0.00  0.00    -0.360 N 
HETATM   61  C   UNK N   1      21.090  14.600   2.109  0.00  0.00     0.107 C 
HETATM   62  C   UNK N   1      21.065  13.730   0.903  0.00  0.00     0.097 C 
ATOM     63  HN  UNK N   1      19.110  14.703   2.173  1.00  0.00     0.162 HD
BRANCH  61  64
HETATM   64  O   UNK N   1      22.276  14.937   2.658  0.00  0.00    -0.350 OA
HETATM   65  H   UNK N   1      22.622  15.339   3.431  0.00  0.00     0.219 HD
ENDBRANCH  61  64
ENDBRANCH  55  60
ENDBRANCH  54  55
ENDBRANCH  53  54
ENDBRANCH  51  53
BRANCH  51  66
HETATM   66  O   UNK N   1      20.865  18.077   5.967  0.00  0.00    -0.350 OA
HETATM   67  H   UNK N   1      20.237  18.295   6.628  0.00  0.00     0.219 HD
ENDBRANCH  51  66
ENDBRANCH   1  50
TORSDOF 29
ENDMDL
MODEL 7
REMARK VINA RESULT:      -6.9      2.870      4.696
REMARK  29 active torsions:
REMARK  status: ('A' for Active; 'I' for Inactive)
REMARK    1  A    between atoms: C_10  and  C_9 
REMARK    2  A    between atoms: C_19  and  C_9 
REMARK    3  A    between atoms: C_20  and  C_10 
REMARK    4  A    between atoms: C_12  and  C_11 
REMARK    5  A    between atoms: C_21  and  C_11 
REMARK    6  A    between atoms: C_22  and  C_12 
REMARK    7  A    between atoms: C_18  and  C_13 
REMARK    8  A    between atoms: C_23  and  C_13 
REMARK    9  A    between atoms: C_26  and  C_15 
REMARK   10  A    between atoms: N_33  and  C_15 
REMARK   11  A    between atoms: C_29  and  C_16 
REMARK   12  A    between atoms: N_35  and  C_16 
REMARK   13  A    between atoms: O_44  and  C_17 
REMARK   14  A    between atoms: C_27  and  C_20 
REMARK   15  A    between atoms: C_20  and  N_39 
REMARK   16  A    between atoms: C_30  and  C_21 
REMARK   17  A    between atoms: C_21  and  N_37 
REMARK   18  A    between atoms: C_22  and  O_45 
REMARK   19  A    between atoms: C_23  and  O_46 
REMARK   20  A    between atoms: C_31  and  C_24 
REMARK   21  A    between atoms: C_28  and  C_25 
REMARK   22  A    between atoms: C_32  and  C_25 
REMARK   23  A    between atoms: C_25  and  N_41 
REMARK   24  A    between atoms: C_26  and  O_47 
REMARK   25  A    between atoms: C_27  and  O_48 
REMARK   26  A    between atoms: O_50  and  C_29 
REMARK   27  A    between atoms: O_52  and  C_30 
REMARK   28  A    between atoms: O_54  and  C_31 
REMARK   29  A    between atoms: O_56  and  C_32 
ROOT
HETATM    1  C   UNK N   1      23.805  17.294   4.657  0.00  0.00     0.158 C 
ENDROOT
BRANCH   1   2
HETATM    2  C   UNK N   1      25.031  18.125   4.324  0.00  0.00     0.038 C 
BRANCH   2   3
HETATM    3  C   UNK N   1      25.226  19.521   4.923  0.00  0.00     0.040 C 
BRANCH   3   4
HETATM    4  C   UNK N   1      26.635  19.411   5.370  0.00  0.00    -0.037 C 
HETATM    5  C   UNK N   1      27.366  18.180   4.848  0.00  0.00     0.113 C 
HETATM    6  S   UNK N   1      29.045  17.895   5.487  0.00  0.00    -0.137 SA
HETATM    7  C   UNK N   1      28.518  18.374   7.147  0.00  0.00     0.177 C 
HETATM    8  N   UNK N   1      28.286  19.794   7.083  0.00  0.00    -0.368 N 
HETATM    9  C   UNK N   1      27.126  20.213   6.371  0.00  0.00     0.106 C 
HETATM   10  H   UNK N   1      28.896  20.441   7.507  0.00  0.00     0.161 HD
BRANCH   7  11
HETATM   11  C   UNK N   1      29.450  17.907   8.287  0.00  0.00     0.214 C 
BRANCH  11  12
HETATM   12  C   UNK N   1      28.647  17.237   9.373  0.00  0.00     0.166 C 
HETATM   13  O   UNK N   1      29.193  16.873  10.404  0.00  0.00    -0.648 OA
BRANCH  12  14
HETATM   14  O   UNK N   1      27.325  17.029   9.211  0.00  0.00    -0.775 OA
HETATM   15  H   UNK N   1      26.493  17.380   8.961  0.00  0.00     0.167 HD
ENDBRANCH  12  14
ENDBRANCH  11  12
BRANCH  11  16
HETATM   16  N   UNK N   1      30.366  16.887   7.793  0.00  0.00    -0.357 N 
HETATM   17  C   UNK N   1      31.590  16.705   8.154  0.00  0.00     0.116 C 
ATOM     18  HN  UNK N   1      30.001  16.249   7.086  1.00  0.00     0.162 HD
BRANCH  17  19
HETATM   19  C   UNK N   1      32.387  15.634   7.492  0.00  0.00     0.122 C 
BRANCH  19  20
HETATM   20  C   UNK N   1      32.500  15.972   6.055  0.00  0.00    -0.051 A 
HETATM   21  C   UNK N   1      32.008  15.092   5.085  0.00  0.00     0.007 A 
HETATM   22  C   UNK N   1      32.046  15.452   3.737  0.00  0.00     0.001 A 
HETATM   23  C   UNK N   1      32.570  16.693   3.360  0.00  0.00     0.000 A 
HETATM   24  C   UNK N   1      33.061  17.572   4.330  0.00  0.00     0.001 A 
HETATM   25  C   UNK N   1      33.021  17.212   5.678  0.00  0.00     0.007 A 
ENDBRANCH  19  20
ENDBRANCH  17  19
BRANCH  17  26
HETATM   26  O   UNK N   1      32.157  17.438   9.128  0.00  0.00    -0.349 OA
HETATM   27  H   UNK N   1      32.342  18.200   9.642  0.00  0.00     0.219 HD
ENDBRANCH  17  26
ENDBRANCH  11  16
ENDBRANCH   7  11
BRANCH   9  28
HETATM   28  C   UNK N   1      26.406  21.414   6.888  0.00  0.00     0.193 C 
HETATM   29  O   UNK N   1      25.852  21.363   7.972  0.00  0.00    -0.645 OA
BRANCH  28  30
HETATM   30  O   UNK N   1      26.368  22.565   6.188  0.00  0.00    -0.772 OA
HETATM   31  H   UNK N   1      26.016  22.576   5.319  0.00  0.00     0.167 HD
ENDBRANCH  28  30
ENDBRANCH   9  28
ENDBRANCH   3   4
ENDBRANCH   2   3
ENDBRANCH   1   2
BRANCH   1  32
HETATM   32  C   UNK N   1      22.531  18.074   4.779  0.00  0.00     0.135 C 
HETATM   33  N   UNK N   1      22.017  18.552   3.702  0.00  0.00    -0.361 N 
ATOM     34  HN  UNK N   1      22.567  18.475   2.847  1.00  0.00     0.162 HD
BRANCH  33  35
HETATM   35  C   UNK N   1      20.729  19.190   3.607  0.00  0.00     0.153 C 
HETATM   36  C   UNK N   1      20.876  20.496   2.842  0.00  0.00     0.041 C 
BRANCH  35  37
HETATM   37  C   UNK N   1      19.861  18.201   2.886  0.00  0.00     0.135 C 
HETATM   38  N   UNK N   1      20.404  17.104   2.465  0.00  0.00    -0.359 N 
ATOM     39  HN  UNK N   1      21.369  16.922   2.740  1.00  0.00     0.162 HD
BRANCH  38  40
HETATM   40  C   UNK N   1      19.750  16.113   1.632  0.00  0.00     0.177 C 
HETATM   41  C   UNK N   1      20.522  14.799   1.700  0.00  0.00     0.043 C 
BRANCH  40  42
HETATM   42  C   UNK N   1      19.568  16.605   0.220  0.00  0.00     0.163 C 
HETATM   43  O   UNK N   1      18.739  16.094  -0.518  0.00  0.00    -0.648 OA
BRANCH  42  44
HETATM   44  O   UNK N   1      20.324  17.622  -0.234  0.00  0.00    -0.775 OA
HETATM   45  H   UNK N   1      20.683  18.144  -0.924  0.00  0.00     0.167 HD
ENDBRANCH  42  44
ENDBRANCH  40  42
ENDBRANCH  38  40
BRANCH  37  46
HETATM   46  O   UNK N   1      18.568  18.486   2.616  0.00  0.00    -0.348 OA
HETATM   47  H   UNK N   1      17.909  18.035   2.127  0.00  0.00     0.219 HD
ENDBRANCH  37  46
ENDBRANCH  35  37
ENDBRANCH  33  35
BRANCH  32  48
HETATM   48  O   UNK N   1      21.915  18.216   5.975  0.00  0.00    -0.348 OA
HETATM   49  H   UNK N   1      21.288  18.033   6.647  0.00  0.00     0.219 HD
ENDBRANCH  32  48
ENDBRANCH   1  32
BRANCH   1  50
HETATM   50  N   UNK N   1      24.045  16.467   5.823  0.00  0.00    -0.362 N 
HETATM   51  C   UNK N   1      24.654  15.331   5.812  0.00  0.00     0.111 C 
ATOM     52  HN  UNK N   1      23.705  16.810   6.721  1.00  0.00     0.162 HD
BRANCH  51  53
HETATM   53  C   UNK N   1      24.697  14.539   7.059  0.00  0.00     0.086 C 
BRANCH  53  54
HETATM   54  C   UNK N   1      23.402  13.757   7.085  0.00  0.00     0.044 C 
BRANCH  54  55
HETATM   55  C   UNK N   1      22.502  14.111   8.259  0.00  0.00     0.181 C 
BRANCH  55  56
HETATM   56  C   UNK N   1      21.191  14.623   7.715  0.00  0.00     0.163 C 
HETATM   57  O   UNK N   1      20.141  14.144   8.115  0.00  0.00    -0.648 OA
BRANCH  56  58
HETATM   58  O   UNK N   1      21.162  15.605   6.794  0.00  0.00    -0.775 OA
HETATM   59  H   UNK N   1      20.968  15.677   5.880  0.00  0.00     0.167 HD
ENDBRANCH  56  58
ENDBRANCH  55  56
BRANCH  55  60
HETATM   60  N   UNK N   1      22.332  12.971   9.151  0.00  0.00    -0.360 N 
HETATM   61  C   UNK N   1      23.162  12.635  10.081  0.00  0.00     0.107 C 
HETATM   62  C   UNK N   1      22.864  11.451  10.931  0.00  0.00     0.097 C 
ATOM     63  HN  UNK N   1      21.497  12.398   9.030  1.00  0.00     0.162 HD
BRANCH  61  64
HETATM   64  O   UNK N   1      24.282  13.351  10.313  0.00  0.00    -0.350 OA
HETATM   65  H   UNK N   1      25.214  13.249  10.310  0.00  0.00     0.219 HD
ENDBRANCH  61  64
ENDBRANCH  55  60
ENDBRANCH  54  55
ENDBRANCH  53  54
ENDBRANCH  51  53
BRANCH  51  66
HETATM   66  O   UNK N   1      25.189  14.823   4.679  0.00  0.00    -0.350 OA
HETATM   67  H   UNK N   1      25.820  14.619   4.018  0.00  0.00     0.219 HD
ENDBRANCH  51  66
ENDBRANCH   1  50
TORSDOF 29
ENDMDL
MODEL 8
REMARK VINA RESULT:      -6.9      1.423      2.356
REMARK  29 active torsions:
REMARK  status: ('A' for Active; 'I' for Inactive)
REMARK    1  A    between atoms: C_10  and  C_9 
REMARK    2  A    between atoms: C_19  and  C_9 
REMARK    3  A    between atoms: C_20  and  C_10 
REMARK    4  A    between atoms: C_12  and  C_11 
REMARK    5  A    between atoms: C_21  and  C_11 
REMARK    6  A    between atoms: C_22  and  C_12 
REMARK    7  A    between atoms: C_18  and  C_13 
REMARK    8  A    between atoms: C_23  and  C_13 
REMARK    9  A    between atoms: C_26  and  C_15 
REMARK   10  A    between atoms: N_33  and  C_15 
REMARK   11  A    between atoms: C_29  and  C_16 
REMARK   12  A    between atoms: N_35  and  C_16 
REMARK   13  A    between atoms: O_44  and  C_17 
REMARK   14  A    between atoms: C_27  and  C_20 
REMARK   15  A    between atoms: C_20  and  N_39 
REMARK   16  A    between atoms: C_30  and  C_21 
REMARK   17  A    between atoms: C_21  and  N_37 
REMARK   18  A    between atoms: C_22  and  O_45 
REMARK   19  A    between atoms: C_23  and  O_46 
REMARK   20  A    between atoms: C_31  and  C_24 
REMARK   21  A    between atoms: C_28  and  C_25 
REMARK   22  A    between atoms: C_32  and  C_25 
REMARK   23  A    between atoms: C_25  and  N_41 
REMARK   24  A    between atoms: C_26  and  O_47 
REMARK   25  A    between atoms: C_27  and  O_48 
REMARK   26  A    between atoms: O_50  and  C_29 
REMARK   27  A    between atoms: O_52  and  C_30 
REMARK   28  A    between atoms: O_54  and  C_31 
REMARK   29  A    between atoms: O_56  and  C_32 
ROOT
HETATM    1  C   UNK N   1      21.328  14.012   3.751  0.00  0.00     0.158 C 
ENDROOT
BRANCH   1   2
HETATM    2  C   UNK N   1      22.799  13.960   3.383  0.00  0.00     0.038 C 
BRANCH   2   3
HETATM    3  C   UNK N   1      23.886  14.162   4.442  0.00  0.00     0.040 C 
BRANCH   3   4
HETATM    4  C   UNK N   1      24.865  14.949   3.655  0.00  0.00    -0.037 C 
HETATM    5  C   UNK N   1      25.961  14.116   3.002  0.00  0.00     0.113 C 
HETATM    6  S   UNK N   1      27.288  15.030   2.157  0.00  0.00    -0.137 SA
HETATM    7  C   UNK N   1      27.328  16.247   3.491  0.00  0.00     0.177 C 
HETATM    8  N   UNK N   1      26.104  16.996   3.366  0.00  0.00    -0.368 N 
HETATM    9  C   UNK N   1      24.908  16.319   3.743  0.00  0.00     0.106 C 
HETATM   10  H   UNK N   1      26.093  17.924   3.037  0.00  0.00     0.161 HD
BRANCH   7  11
HETATM   11  C   UNK N   1      28.618  17.095   3.561  0.00  0.00     0.214 C 
BRANCH  11  12
HETATM   12  C   UNK N   1      28.440  18.232   4.535  0.00  0.00     0.166 C 
HETATM   13  O   UNK N   1      28.056  18.010   5.673  0.00  0.00    -0.648 OA
BRANCH  12  14
HETATM   14  O   UNK N   1      28.698  19.499   4.153  0.00  0.00    -0.775 OA
HETATM   15  H   UNK N   1      28.786  20.112   3.451  0.00  0.00     0.167 HD
ENDBRANCH  12  14
ENDBRANCH  11  12
BRANCH  11  16
HETATM   16  N   UNK N   1      29.712  16.292   4.093  0.00  0.00    -0.357 N 
HETATM   17  C   UNK N   1      30.956  16.364   3.765  0.00  0.00     0.116 C 
ATOM     18  HN  UNK N   1      29.467  15.600   4.801  1.00  0.00     0.162 HD
BRANCH  17  19
HETATM   19  C   UNK N   1      31.923  15.416   4.387  0.00  0.00     0.122 C 
BRANCH  19  20
HETATM   20  C   UNK N   1      32.503  14.582   3.309  0.00  0.00    -0.051 A 
HETATM   21  C   UNK N   1      33.831  14.772   2.912  0.00  0.00     0.007 A 
HETATM   22  C   UNK N   1      34.394  13.930   1.951  0.00  0.00     0.001 A 
HETATM   23  C   UNK N   1      33.634  12.897   1.394  0.00  0.00     0.000 A 
HETATM   24  C   UNK N   1      32.307  12.709   1.792  0.00  0.00     0.001 A 
HETATM   25  C   UNK N   1      31.744  13.549   2.754  0.00  0.00     0.007 A 
ENDBRANCH  19  20
ENDBRANCH  17  19
BRANCH  17  26
HETATM   26  O   UNK N   1      31.407  17.285   2.895  0.00  0.00    -0.349 OA
HETATM   27  H   UNK N   1      31.361  17.938   2.224  0.00  0.00     0.219 HD
ENDBRANCH  17  26
ENDBRANCH  11  16
ENDBRANCH   7  11
BRANCH   9  28
HETATM   28  C   UNK N   1      23.839  17.134   4.389  0.00  0.00     0.193 C 
HETATM   29  O   UNK N   1      22.813  17.374   3.778  0.00  0.00    -0.645 OA
BRANCH  28  30
HETATM   30  O   UNK N   1      23.974  17.598   5.648  0.00  0.00    -0.772 OA
HETATM   31  H   UNK N   1      23.541  17.164   6.357  0.00  0.00     0.167 HD
ENDBRANCH  28  30
ENDBRANCH   9  28
ENDBRANCH   3   4
ENDBRANCH   2   3
ENDBRANCH   1   2
BRANCH   1  32
HETATM   32  C   UNK N   1      20.482  14.858   2.849  0.00  0.00     0.135 C 
HETATM   33  N   UNK N   1      21.084  15.650   2.034  0.00  0.00    -0.361 N 
ATOM     34  HN  UNK N   1      22.095  15.742   2.132  1.00  0.00     0.162 HD
BRANCH  33  35
HETATM   35  C   UNK N   1      20.445  16.417   0.995  0.00  0.00     0.153 C 
HETATM   36  C   UNK N   1      19.246  15.644   0.472  0.00  0.00     0.041 C 
BRANCH  35  37
HETATM   37  C   UNK N   1      20.050  17.705   1.655  0.00  0.00     0.135 C 
HETATM   38  N   UNK N   1      20.579  18.804   1.220  0.00  0.00    -0.359 N 
ATOM     39  HN  UNK N   1      21.155  18.746   0.380  1.00  0.00     0.162 HD
BRANCH  38  40
HETATM   40  C   UNK N   1      20.420  20.109   1.831  0.00  0.00     0.177 C 
HETATM   41  C   UNK N   1      20.552  21.192   0.765  0.00  0.00     0.043 C 
BRANCH  40  42
HETATM   42  C   UNK N   1      21.375  20.307   2.980  0.00  0.00     0.163 C 
HETATM   43  O   UNK N   1      22.405  20.948   2.833  0.00  0.00    -0.648 OA
BRANCH  42  44
HETATM   44  O   UNK N   1      21.089  19.775   4.182  0.00  0.00    -0.775 OA
HETATM   45  H   UNK N   1      20.667  19.144   4.730  0.00  0.00     0.167 HD
ENDBRANCH  42  44
ENDBRANCH  40  42
ENDBRANCH  38  40
BRANCH  37  46
HETATM   46  O   UNK N   1      19.227  17.707   2.726  0.00  0.00    -0.348 OA
HETATM   47  H   UNK N   1      18.783  18.394   3.183  0.00  0.00     0.219 HD
ENDBRANCH  37  46
ENDBRANCH  35  37
ENDBRANCH  33  35
BRANCH  32  48
HETATM   48  O   UNK N   1      19.134  14.745   2.851  0.00  0.00    -0.348 OA
HETATM   49  H   UNK N   1      18.306  14.319   2.747  0.00  0.00     0.219 HD
ENDBRANCH  32  48
ENDBRANCH   1  32
BRANCH   1  50
HETATM   50  N   UNK N   1      21.160  14.376   5.144  0.00  0.00    -0.362 N 
HETATM   51  C   UNK N   1      20.644  13.619   6.051  0.00  0.00     0.111 C 
ATOM     52  HN  UNK N   1      21.473  15.305   5.429  1.00  0.00     0.162 HD
BRANCH  51  53
HETATM   53  C   UNK N   1      20.410  14.183   7.397  0.00  0.00     0.086 C 
BRANCH  53  54
HETATM   54  C   UNK N   1      21.389  15.330   7.528  0.00  0.00     0.044 C 
BRANCH  54  55
HETATM   55  C   UNK N   1      20.730  16.650   7.897  0.00  0.00     0.181 C 
BRANCH  55  56
HETATM   56  C   UNK N   1      20.862  17.591   6.724  0.00  0.00     0.163 C 
HETATM   57  O   UNK N   1      21.298  18.719   6.898  0.00  0.00    -0.648 OA
BRANCH  56  58
HETATM   58  O   UNK N   1      20.506  17.202   5.485  0.00  0.00    -0.775 OA
HETATM   59  H   UNK N   1      19.727  17.212   4.964  0.00  0.00     0.167 HD
ENDBRANCH  56  58
ENDBRANCH  55  56
BRANCH  55  60
HETATM   60  N   UNK N   1      19.345  16.449   8.300  0.00  0.00    -0.360 N 
HETATM   61  C   UNK N   1      18.637  17.308   8.954  0.00  0.00     0.107 C 
HETATM   62  C   UNK N   1      17.226  16.983   9.296  0.00  0.00     0.097 C 
ATOM     63  HN  UNK N   1      18.903  15.564   8.048  1.00  0.00     0.162 HD
BRANCH  61  64
HETATM   64  O   UNK N   1      19.144  18.507   9.311  0.00  0.00    -0.350 OA
HETATM   65  H   UNK N   1      19.644  18.900  10.000  0.00  0.00     0.219 HD
ENDBRANCH  61  64
ENDBRANCH  55  60
ENDBRANCH  54  55
ENDBRANCH  53  54
ENDBRANCH  51  53
BRANCH  51  66
HETATM   66  O   UNK N   1      20.254  12.353   5.780  0.00  0.00    -0.350 OA
HETATM   67  H   UNK N   1      19.763  11.640   5.421  0.00  0.00     0.219 HD
ENDBRANCH  51  66
ENDBRANCH   1  50
TORSDOF 29
ENDMDL
MODEL 9
REMARK VINA RESULT:      -6.8      3.235      8.990
REMARK  29 active torsions:
REMARK  status: ('A' for Active; 'I' for Inactive)
REMARK    1  A    between atoms: C_10  and  C_9 
REMARK    2  A    between atoms: C_19  and  C_9 
REMARK    3  A    between atoms: C_20  and  C_10 
REMARK    4  A    between atoms: C_12  and  C_11 
REMARK    5  A    between atoms: C_21  and  C_11 
REMARK    6  A    between atoms: C_22  and  C_12 
REMARK    7  A    between atoms: C_18  and  C_13 
REMARK    8  A    between atoms: C_23  and  C_13 
REMARK    9  A    between atoms: C_26  and  C_15 
REMARK   10  A    between atoms: N_33  and  C_15 
REMARK   11  A    between atoms: C_29  and  C_16 
REMARK   12  A    between atoms: N_35  and  C_16 
REMARK   13  A    between atoms: O_44  and  C_17 
REMARK   14  A    between atoms: C_27  and  C_20 
REMARK   15  A    between atoms: C_20  and  N_39 
REMARK   16  A    between atoms: C_30  and  C_21 
REMARK   17  A    between atoms: C_21  and  N_37 
REMARK   18  A    between atoms: C_22  and  O_45 
REMARK   19  A    between atoms: C_23  and  O_46 
REMARK   20  A    between atoms: C_31  and  C_24 
REMARK   21  A    between atoms: C_28  and  C_25 
REMARK   22  A    between atoms: C_32  and  C_25 
REMARK   23  A    between atoms: C_25  and  N_41 
REMARK   24  A    between atoms: C_26  and  O_47 
REMARK   25  A    between atoms: C_27  and  O_48 
REMARK   26  A    between atoms: O_50  and  C_29 
REMARK   27  A    between atoms: O_52  and  C_30 
REMARK   28  A    between atoms: O_54  and  C_31 
REMARK   29  A    between atoms: O_56  and  C_32 
ROOT
HETATM    1  C   UNK N   1      25.604  15.071   6.593  0.00  0.00     0.158 C 
ENDROOT
BRANCH   1   2
HETATM    2  C   UNK N   1      25.404  13.585   6.832  0.00  0.00     0.038 C 
BRANCH   2   3
HETATM    3  C   UNK N   1      24.658  13.078   8.069  0.00  0.00     0.040 C 
BRANCH   3   4
HETATM    4  C   UNK N   1      23.392  12.633   7.437  0.00  0.00    -0.037 C 
HETATM    5  C   UNK N   1      23.571  11.954   6.085  0.00  0.00     0.113 C 
HETATM    6  S   UNK N   1      22.052  11.529   5.178  0.00  0.00    -0.137 SA
HETATM    7  C   UNK N   1      21.304  13.105   5.651  0.00  0.00     0.177 C 
HETATM    8  N   UNK N   1      21.040  12.997   7.062  0.00  0.00    -0.368 N 
HETATM    9  C   UNK N   1      22.175  13.043   7.922  0.00  0.00     0.106 C 
HETATM   10  H   UNK N   1      20.126  12.896   7.415  0.00  0.00     0.161 HD
BRANCH   7  11
HETATM   11  C   UNK N   1      20.101  13.541   4.784  0.00  0.00     0.214 C 
BRANCH  11  12
HETATM   12  C   UNK N   1      19.423  14.737   5.402  0.00  0.00     0.166 C 
HETATM   13  O   UNK N   1      20.061  15.513   6.098  0.00  0.00    -0.648 OA
BRANCH  12  14
HETATM   14  O   UNK N   1      18.108  14.954   5.195  0.00  0.00    -0.775 OA
HETATM   15  H   UNK N   1      17.274  14.598   4.963  0.00  0.00     0.167 HD
ENDBRANCH  12  14
ENDBRANCH  11  12
BRANCH  11  16
HETATM   16  N   UNK N   1      20.567  13.988   3.477  0.00  0.00    -0.357 N 
HETATM   17  C   UNK N   1      19.876  14.059   2.392  0.00  0.00     0.116 C 
ATOM     18  HN  UNK N   1      21.543  14.274   3.414  1.00  0.00     0.162 HD
BRANCH  17  19
HETATM   19  C   UNK N   1      20.547  14.494   1.135  0.00  0.00     0.122 C 
BRANCH  19  20
HETATM   20  C   UNK N   1      21.478  13.420   0.719  0.00  0.00    -0.051 A 
HETATM   21  C   UNK N   1      22.816  13.718   0.441  0.00  0.00     0.007 A 
HETATM   22  C   UNK N   1      23.705  12.689   0.126  0.00  0.00     0.001 A 
HETATM   23  C   UNK N   1      23.259  11.364   0.096  0.00  0.00     0.000 A 
HETATM   24  C   UNK N   1      21.921  11.067   0.374  0.00  0.00     0.001 A 
HETATM   25  C   UNK N   1      21.032  12.096   0.691  0.00  0.00     0.007 A 
ENDBRANCH  19  20
ENDBRANCH  17  19
BRANCH  17  26
HETATM   26  O   UNK N   1      18.562  13.775   2.369  0.00  0.00    -0.349 OA
HETATM   27  H   UNK N   1      17.640  13.941   2.311  0.00  0.00     0.219 HD
ENDBRANCH  17  26
ENDBRANCH  11  16
ENDBRANCH   7  11
BRANCH   9  28
HETATM   28  C   UNK N   1      22.002  13.716   9.243  0.00  0.00     0.193 C 
HETATM   29  O   UNK N   1      22.462  13.198  10.246  0.00  0.00    -0.645 OA
BRANCH  28  30
HETATM   30  O   UNK N   1      21.362  14.897   9.351  0.00  0.00    -0.772 OA
HETATM   31  H   UNK N   1      21.555  15.592   8.753  0.00  0.00     0.167 HD
ENDBRANCH  28  30
ENDBRANCH   9  28
ENDBRANCH   3   4
ENDBRANCH   2   3
ENDBRANCH   1   2
BRANCH   1  32
HETATM   32  C   UNK N   1      24.641  15.688   5.626  0.00  0.00     0.135 C 
HETATM   33  N   UNK N   1      24.328  16.923   5.800  0.00  0.00    -0.361 N 
ATOM     34  HN  UNK N   1      24.660  17.375   6.652  1.00  0.00     0.162 HD
BRANCH  33  35
HETATM   35  C   UNK N   1      23.545  17.719   4.889  0.00  0.00     0.153 C 
HETATM   36  C   UNK N   1      22.237  18.103   5.564  0.00  0.00     0.041 C 
BRANCH  35  37
HETATM   37  C   UNK N   1      24.402  18.913   4.585  0.00  0.00     0.135 C 
HETATM   38  N   UNK N   1      25.489  19.075   5.268  0.00  0.00    -0.359 N 
ATOM     39  HN  UNK N   1      25.761  18.324   5.903  1.00  0.00     0.162 HD
BRANCH  38  40
HETATM   40  C   UNK N   1      26.352  20.238   5.204  0.00  0.00     0.177 C 
HETATM   41  C   UNK N   1      27.675  19.857   4.547  0.00  0.00     0.043 C 
BRANCH  40  42
HETATM   42  C   UNK N   1      26.540  20.868   6.560  0.00  0.00     0.163 C 
HETATM   43  O   UNK N   1      26.265  22.044   6.746  0.00  0.00    -0.648 OA
BRANCH  42  44
HETATM   44  O   UNK N   1      27.012  20.127   7.579  0.00  0.00    -0.775 OA
HETATM   45  H   UNK N   1      27.230  19.307   7.976  0.00  0.00     0.167 HD
ENDBRANCH  42  44
ENDBRANCH  40  42
ENDBRANCH  38  40
BRANCH  37  46
HETATM   46  O   UNK N   1      24.006  19.834   3.679  0.00  0.00    -0.348 OA
HETATM   47  H   UNK N   1      23.807  19.779   2.766  0.00  0.00     0.219 HD
ENDBRANCH  37  46
ENDBRANCH  35  37
ENDBRANCH  33  35
BRANCH  32  48
HETATM   48  O   UNK N   1      24.166  14.985   4.572  0.00  0.00    -0.348 OA
HETATM   49  H   UNK N   1      23.925  14.222   4.086  0.00  0.00     0.219 HD
ENDBRANCH  32  48
ENDBRANCH   1  32
BRANCH   1  50
HETATM   50  N   UNK N   1      26.981  15.354   6.239  0.00  0.00    -0.362 N 
HETATM   51  C   UNK N   1      27.636  16.404   6.598  0.00  0.00     0.111 C 
ATOM     52  HN  UNK N   1      27.468  14.670   5.659  1.00  0.00     0.162 HD
BRANCH  51  53
HETATM   53  C   UNK N   1      28.988  16.620   6.041  0.00  0.00     0.086 C 
BRANCH  53  54
HETATM   54  C   UNK N   1      29.154  15.567   4.966  0.00  0.00     0.044 C 
BRANCH  54  55
HETATM   55  C   UNK N   1      29.211  16.140   3.559  0.00  0.00     0.181 C 
BRANCH  55  56
HETATM   56  C   UNK N   1      30.630  16.027   3.057  0.00  0.00     0.163 C 
HETATM   57  O   UNK N   1      31.176  14.934   3.026  0.00  0.00    -0.648 OA
BRANCH  56  58
HETATM   58  O   UNK N   1      31.305  17.116   2.641  0.00  0.00    -0.775 OA
HETATM   59  H   UNK N   1      31.173  17.803   2.019  0.00  0.00     0.167 HD
ENDBRANCH  56  58
ENDBRANCH  55  56
BRANCH  55  60
HETATM   60  N   UNK N   1      28.253  15.477   2.684  0.00  0.00    -0.360 N 
HETATM   61  C   UNK N   1      27.003  15.790   2.591  0.00  0.00     0.107 C 
HETATM   62  C   UNK N   1      26.131  15.037   1.649  0.00  0.00     0.097 C 
ATOM     63  HN  UNK N   1      28.595  14.711   2.105  1.00  0.00     0.162 HD
BRANCH  61  64
HETATM   64  O   UNK N   1      26.479  16.801   3.314  0.00  0.00    -0.350 OA
HETATM   65  H   UNK N   1      26.318  17.040   4.206  0.00  0.00     0.219 HD
ENDBRANCH  61  64
ENDBRANCH  55  60
ENDBRANCH  54  55
ENDBRANCH  53  54
ENDBRANCH  51  53
BRANCH  51  66
HETATM   66  O   UNK N   1      27.093  17.336   7.413  0.00  0.00    -0.350 OA
HETATM   67  H   UNK N   1      26.601  17.712   8.115  0.00  0.00     0.219 HD
ENDBRANCH  51  66
ENDBRANCH   1  50
TORSDOF 29
ENDMDL
