MODEL 1
REMARK VINA RESULT:      -7.4      0.000      0.000
REMARK  6 active torsions:
REMARK  status: ('A' for Active; 'I' for Inactive)
REMARK    1  A    between atoms: C_2  and  O_1 
REMARK    2  A    between atoms: C_3  and  C_15 
REMARK    3  A    between atoms: C_7  and  O_8 
REMARK    4  A    between atoms: C_10  and  O_11 
REMARK    5  A    between atoms: C_18  and  O_19 
REMARK    6  A    between atoms: C_20  and  O_21 
ROOT
HETATM    1  C   UNK N   1      36.914  11.897  14.099  0.00  0.00     0.227 C 
HETATM    2  C   UNK N   1      35.682  12.695  14.563  0.00  0.00     0.198 C 
HETATM    3  O   UNK N   1      35.680  13.987  14.051  0.00  0.00    -0.337 OA
HETATM    4  C   UNK N   1      36.032  14.287  12.779  0.00  0.00     0.089 A 
HETATM    5  C   UNK N   1      35.711  15.543  12.258  0.00  0.00     0.074 A 
HETATM    6  C   UNK N   1      36.056  15.869  10.946  0.00  0.00     0.071 A 
HETATM    7  C   UNK N   1      36.723  14.938  10.146  0.00  0.00     0.074 A 
HETATM    8  C   UNK N   1      37.059  13.680  10.656  0.00  0.00     0.085 A 
HETATM    9  C   UNK N   1      36.724  13.349  11.987  0.00  0.00     0.079 A 
HETATM   10  C   UNK N   1      37.098  12.059  12.617  0.00  0.00     0.196 C 
HETATM   11  O   UNK N   1      37.652  11.177  11.977  0.00  0.00    -0.289 OA
ENDROOT
BRANCH   2  12
HETATM   12  C   UNK N   1      35.526  12.724  16.065  0.00  0.00    -0.023 A 
HETATM   13  C   UNK N   1      35.439  11.529  16.793  0.00  0.00     0.013 A 
HETATM   14  C   UNK N   1      35.323  11.561  18.187  0.00  0.00     0.040 A 
HETATM   15  C   UNK N   1      35.272  12.785  18.861  0.00  0.00     0.098 A 
HETATM   16  C   UNK N   1      35.335  13.983  18.138  0.00  0.00     0.099 A 
HETATM   17  C   UNK N   1      35.470  13.949  16.749  0.00  0.00     0.049 A 
BRANCH  15  18
HETATM   18  O   UNK N   1      35.159  12.807  20.200  0.00  0.00    -0.358 OA
HETATM   19  H   UNK N   1      35.246  12.021  20.702  0.00  0.00     0.217 HD
ENDBRANCH  15  18
BRANCH  16  20
HETATM   20  O   UNK N   1      35.269  15.166  18.773  0.00  0.00    -0.358 OA
HETATM   21  H   UNK N   1      35.374  15.246  19.701  0.00  0.00     0.217 HD
ENDBRANCH  16  20
ENDBRANCH   2  12
BRANCH   1  22
HETATM   22  O   UNK N   1      38.068  12.334  14.753  0.00  0.00    -0.385 OA
HETATM   23  H   UNK N   1      38.986  12.490  15.023  0.00  0.00     0.210 HD
ENDBRANCH   1  22
BRANCH   8  24
HETATM   24  O   UNK N   1      37.720  12.812   9.870  0.00  0.00    -0.360 OA
HETATM   25  H   UNK N   1      37.602  12.836   8.941  0.00  0.00     0.217 HD
ENDBRANCH   8  24
BRANCH   6  26
HETATM   26  O   UNK N   1      35.749  17.079  10.454  0.00  0.00    -0.361 OA
HETATM   27  H   UNK N   1      35.038  17.176   9.851  0.00  0.00     0.217 HD
ENDBRANCH   6  26
TORSDOF 6
ENDMDL
MODEL 2
REMARK VINA RESULT:      -7.0      5.860     10.454
REMARK  6 active torsions:
REMARK  status: ('A' for Active; 'I' for Inactive)
REMARK    1  A    between atoms: C_2  and  O_1 
REMARK    2  A    between atoms: C_3  and  C_15 
REMARK    3  A    between atoms: C_7  and  O_8 
REMARK    4  A    between atoms: C_10  and  O_11 
REMARK    5  A    between atoms: C_18  and  O_19 
REMARK    6  A    between atoms: C_20  and  O_21 
ROOT
HETATM    1  C   UNK N   1      33.452  17.648   6.868  0.00  0.00     0.227 C 
HETATM    2  C   UNK N   1      32.222  16.787   7.210  0.00  0.00     0.198 C 
HETATM    3  O   UNK N   1      32.556  15.702   8.011  0.00  0.00    -0.337 OA
HETATM    4  C   UNK N   1      33.429  15.777   9.043  0.00  0.00     0.089 A 
HETATM    5  C   UNK N   1      33.475  14.739   9.978  0.00  0.00     0.074 A 
HETATM    6  C   UNK N   1      34.360  14.800  11.054  0.00  0.00     0.071 A 
HETATM    7  C   UNK N   1      35.204  15.903  11.203  0.00  0.00     0.074 A 
HETATM    8  C   UNK N   1      35.177  16.945  10.271  0.00  0.00     0.085 A 
HETATM    9  C   UNK N   1      34.292  16.884   9.173  0.00  0.00     0.079 A 
HETATM   10  C   UNK N   1      34.247  17.920   8.113  0.00  0.00     0.196 C 
HETATM   11  O   UNK N   1      34.927  18.933   8.186  0.00  0.00    -0.289 OA
ENDROOT
BRANCH   2  12
HETATM   12  C   UNK N   1      31.464  16.325   5.988  0.00  0.00    -0.023 A 
HETATM   13  C   UNK N   1      31.543  14.991   5.564  0.00  0.00     0.013 A 
HETATM   14  C   UNK N   1      30.816  14.563   4.448  0.00  0.00     0.040 A 
HETATM   15  C   UNK N   1      30.021  15.466   3.737  0.00  0.00     0.098 A 
HETATM   16  C   UNK N   1      29.954  16.806   4.142  0.00  0.00     0.099 A 
HETATM   17  C   UNK N   1      30.666  17.227   5.266  0.00  0.00     0.049 A 
BRANCH  15  18
HETATM   18  O   UNK N   1      29.326  15.047   2.666  0.00  0.00    -0.358 OA
HETATM   19  H   UNK N   1      29.744  14.562   1.983  0.00  0.00     0.217 HD
ENDBRANCH  15  18
BRANCH  16  20
HETATM   20  O   UNK N   1      29.207  17.689   3.456  0.00  0.00    -0.358 OA
HETATM   21  H   UNK N   1      28.393  17.455   3.055  0.00  0.00     0.217 HD
ENDBRANCH  16  20
ENDBRANCH   2  12
BRANCH   1  22
HETATM   22  O   UNK N   1      34.270  17.002   5.938  0.00  0.00    -0.385 OA
HETATM   23  H   UNK N   1      34.654  16.640   5.124  0.00  0.00     0.210 HD
ENDBRANCH   1  22
BRANCH   8  24
HETATM   24  O   UNK N   1      36.016  17.985  10.429  0.00  0.00    -0.360 OA
HETATM   25  H   UNK N   1      35.677  18.854  10.515  0.00  0.00     0.217 HD
ENDBRANCH   8  24
BRANCH   6  26
HETATM   26  O   UNK N   1      34.402  13.797  11.944  0.00  0.00    -0.361 OA
HETATM   27  H   UNK N   1      34.142  13.945  12.833  0.00  0.00     0.217 HD
ENDBRANCH   6  26
TORSDOF 6
ENDMDL
MODEL 3
REMARK VINA RESULT:      -6.7      5.507      9.995
REMARK  6 active torsions:
REMARK  status: ('A' for Active; 'I' for Inactive)
REMARK    1  A    between atoms: C_2  and  O_1 
REMARK    2  A    between atoms: C_3  and  C_15 
REMARK    3  A    between atoms: C_7  and  O_8 
REMARK    4  A    between atoms: C_10  and  O_11 
REMARK    5  A    between atoms: C_18  and  O_19 
REMARK    6  A    between atoms: C_20  and  O_21 
ROOT
HETATM    1  C   UNK N   1      33.822  17.688   8.149  0.00  0.00     0.227 C 
HETATM    2  C   UNK N   1      32.682  16.664   7.995  0.00  0.00     0.198 C 
HETATM    3  O   UNK N   1      33.166  15.370   7.842  0.00  0.00    -0.337 OA
HETATM    4  C   UNK N   1      34.206  14.874   8.552  0.00  0.00     0.089 A 
HETATM    5  C   UNK N   1      34.429  13.494   8.565  0.00  0.00     0.074 A 
HETATM    6  C   UNK N   1      35.490  12.960   9.297  0.00  0.00     0.071 A 
HETATM    7  C   UNK N   1      36.332  13.805  10.025  0.00  0.00     0.074 A 
HETATM    8  C   UNK N   1      36.128  15.188  10.014  0.00  0.00     0.085 A 
HETATM    9  C   UNK N   1      35.064  15.735   9.265  0.00  0.00     0.079 A 
HETATM   10  C   UNK N   1      34.820  17.194   9.157  0.00  0.00     0.196 C 
HETATM   11  O   UNK N   1      35.489  17.999   9.788  0.00  0.00    -0.289 OA
ENDROOT
BRANCH   2  12
HETATM   12  C   UNK N   1      31.726  17.004   6.877  0.00  0.00    -0.023 A 
HETATM   13  C   UNK N   1      30.365  17.205   7.142  0.00  0.00     0.013 A 
HETATM   14  C   UNK N   1      29.488  17.547   6.107  0.00  0.00     0.040 A 
HETATM   15  C   UNK N   1      29.961  17.672   4.797  0.00  0.00     0.098 A 
HETATM   16  C   UNK N   1      31.317  17.451   4.520  0.00  0.00     0.099 A 
HETATM   17  C   UNK N   1      32.193  17.128   5.558  0.00  0.00     0.049 A 
BRANCH  15  18
HETATM   18  O   UNK N   1      29.113  18.001   3.807  0.00  0.00    -0.358 OA
HETATM   19  H   UNK N   1      29.365  17.907   2.910  0.00  0.00     0.217 HD
ENDBRANCH  15  18
BRANCH  16  20
HETATM   20  O   UNK N   1      31.781  17.551   3.262  0.00  0.00    -0.358 OA
HETATM   21  H   UNK N   1      31.923  18.376   2.842  0.00  0.00     0.217 HD
ENDBRANCH  16  20
ENDBRANCH   2  12
BRANCH   1  22
HETATM   22  O   UNK N   1      34.471  17.899   6.930  0.00  0.00    -0.385 OA
HETATM   23  H   UNK N   1      34.755  17.857   6.004  0.00  0.00     0.210 HD
ENDBRANCH   1  22
BRANCH   8  24
HETATM   24  O   UNK N   1      36.968  15.977  10.706  0.00  0.00    -0.360 OA
HETATM   25  H   UNK N   1      37.885  15.785  10.726  0.00  0.00     0.217 HD
ENDBRANCH   8  24
BRANCH   6  26
HETATM   26  O   UNK N   1      35.701  11.635   9.301  0.00  0.00    -0.361 OA
HETATM   27  H   UNK N   1      36.059  11.218  10.060  0.00  0.00     0.217 HD
ENDBRANCH   6  26
TORSDOF 6
ENDMDL
MODEL 4
REMARK VINA RESULT:      -6.7      6.188      9.518
REMARK  6 active torsions:
REMARK  status: ('A' for Active; 'I' for Inactive)
REMARK    1  A    between atoms: C_2  and  O_1 
REMARK    2  A    between atoms: C_3  and  C_15 
REMARK    3  A    between atoms: C_7  and  O_8 
REMARK    4  A    between atoms: C_10  and  O_11 
REMARK    5  A    between atoms: C_18  and  O_19 
REMARK    6  A    between atoms: C_20  and  O_21 
ROOT
HETATM    1  C   UNK N   1      32.777  16.552   5.929  0.00  0.00     0.227 C 
HETATM    2  C   UNK N   1      32.464  16.020   7.339  0.00  0.00     0.198 C 
HETATM    3  O   UNK N   1      31.561  16.835   8.012  0.00  0.00    -0.337 OA
HETATM    4  C   UNK N   1      30.476  17.391   7.424  0.00  0.00     0.089 A 
HETATM    5  C   UNK N   1      29.466  17.932   8.224  0.00  0.00     0.074 A 
HETATM    6  C   UNK N   1      28.335  18.502   7.639  0.00  0.00     0.071 A 
HETATM    7  C   UNK N   1      28.206  18.530   6.248  0.00  0.00     0.074 A 
HETATM    8  C   UNK N   1      29.212  18.001   5.434  0.00  0.00     0.085 A 
HETATM    9  C   UNK N   1      30.365  17.435   6.019  0.00  0.00     0.079 A 
HETATM   10  C   UNK N   1      31.500  16.908   5.222  0.00  0.00     0.196 C 
HETATM   11  O   UNK N   1      31.453  16.865   4.002  0.00  0.00    -0.289 OA
ENDROOT
BRANCH   2  12
HETATM   12  C   UNK N   1      33.700  15.800   8.178  0.00  0.00    -0.023 A 
HETATM   13  C   UNK N   1      34.647  14.834   7.809  0.00  0.00     0.013 A 
HETATM   14  C   UNK N   1      35.804  14.654   8.574  0.00  0.00     0.040 A 
HETATM   15  C   UNK N   1      36.016  15.422   9.722  0.00  0.00     0.098 A 
HETATM   16  C   UNK N   1      35.064  16.375  10.110  0.00  0.00     0.099 A 
HETATM   17  C   UNK N   1      33.918  16.566   9.335  0.00  0.00     0.049 A 
BRANCH  15  18
HETATM   18  O   UNK N   1      37.129  15.243  10.452  0.00  0.00    -0.358 OA
HETATM   19  H   UNK N   1      37.867  14.787  10.098  0.00  0.00     0.217 HD
ENDBRANCH  15  18
BRANCH  16  20
HETATM   20  O   UNK N   1      35.246  17.108  11.222  0.00  0.00    -0.358 OA
HETATM   21  H   UNK N   1      34.671  17.054  11.960  0.00  0.00     0.217 HD
ENDBRANCH  16  20
ENDBRANCH   2  12
BRANCH   1  22
HETATM   22  O   UNK N   1      33.593  17.684   5.992  0.00  0.00    -0.385 OA
HETATM   23  H   UNK N   1      34.341  18.291   6.105  0.00  0.00     0.210 HD
ENDBRANCH   1  22
BRANCH   8  24
HETATM   24  O   UNK N   1      29.071  18.062   4.098  0.00  0.00    -0.360 OA
HETATM   25  H   UNK N   1      29.609  17.531   3.543  0.00  0.00     0.217 HD
ENDBRANCH   8  24
BRANCH   6  26
HETATM   26  O   UNK N   1      27.372  19.024   8.414  0.00  0.00    -0.361 OA
HETATM   27  H   UNK N   1      27.198  18.658   9.259  0.00  0.00     0.217 HD
ENDBRANCH   6  26
TORSDOF 6
ENDMDL
MODEL 5
REMARK VINA RESULT:      -6.6     14.975     17.131
REMARK  6 active torsions:
REMARK  status: ('A' for Active; 'I' for Inactive)
REMARK    1  A    between atoms: C_2  and  O_1 
REMARK    2  A    between atoms: C_3  and  C_15 
REMARK    3  A    between atoms: C_7  and  O_8 
REMARK    4  A    between atoms: C_10  and  O_11 
REMARK    5  A    between atoms: C_18  and  O_19 
REMARK    6  A    between atoms: C_20  and  O_21 
ROOT
HETATM    1  C   UNK N   1      23.401  14.465   6.954  0.00  0.00     0.227 C 
HETATM    2  C   UNK N   1      22.156  15.241   7.422  0.00  0.00     0.198 C 
HETATM    3  O   UNK N   1      21.335  14.463   8.230  0.00  0.00    -0.337 OA
HETATM    4  C   UNK N   1      21.805  13.626   9.185  0.00  0.00     0.089 A 
HETATM    5  C   UNK N   1      20.925  13.123  10.147  0.00  0.00     0.074 A 
HETATM    6  C   UNK N   1      21.389  12.266  11.145  0.00  0.00     0.071 A 
HETATM    7  C   UNK N   1      22.739  11.910  11.189  0.00  0.00     0.074 A 
HETATM    8  C   UNK N   1      23.630  12.397  10.228  0.00  0.00     0.085 A 
HETATM    9  C   UNK N   1      23.164  13.254   9.208  0.00  0.00     0.079 A 
HETATM   10  C   UNK N   1      24.035  13.764   8.121  0.00  0.00     0.196 C 
HETATM   11  O   UNK N   1      25.234  13.528   8.104  0.00  0.00    -0.289 OA
ENDROOT
BRANCH   2  12
HETATM   12  C   UNK N   1      21.363  15.834   6.283  0.00  0.00    -0.023 A 
HETATM   13  C   UNK N   1      21.977  16.697   5.363  0.00  0.00     0.013 A 
HETATM   14  C   UNK N   1      21.244  17.221   4.293  0.00  0.00     0.040 A 
HETATM   15  C   UNK N   1      19.890  16.904   4.144  0.00  0.00     0.098 A 
HETATM   16  C   UNK N   1      19.265  16.061   5.071  0.00  0.00     0.099 A 
HETATM   17  C   UNK N   1      20.002  15.524   6.128  0.00  0.00     0.049 A 
BRANCH  15  18
HETATM   18  O   UNK N   1      19.193  17.412   3.114  0.00  0.00    -0.358 OA
HETATM   19  H   UNK N   1      18.948  16.873   2.388  0.00  0.00     0.217 HD
ENDBRANCH  15  18
BRANCH  16  20
HETATM   20  O   UNK N   1      17.960  15.763   4.950  0.00  0.00    -0.358 OA
HETATM   21  H   UNK N   1      17.451  16.023   4.207  0.00  0.00     0.217 HD
ENDBRANCH  16  20
ENDBRANCH   2  12
BRANCH   1  22
HETATM   22  O   UNK N   1      23.063  13.520   5.982  0.00  0.00    -0.385 OA
HETATM   23  H   UNK N   1      22.963  12.703   5.469  0.00  0.00     0.210 HD
ENDBRANCH   1  22
BRANCH   8  24
HETATM   24  O   UNK N   1      24.920  12.020  10.283  0.00  0.00    -0.360 OA
HETATM   25  H   UNK N   1      25.580  12.637  10.533  0.00  0.00     0.217 HD
ENDBRANCH   8  24
BRANCH   6  26
HETATM   26  O   UNK N   1      20.537  11.783  12.063  0.00  0.00    -0.361 OA
HETATM   27  H   UNK N   1      19.614  11.919  11.966  0.00  0.00     0.217 HD
ENDBRANCH   6  26
TORSDOF 6
ENDMDL
MODEL 6
REMARK VINA RESULT:      -6.5     15.780     18.503
REMARK  6 active torsions:
REMARK  status: ('A' for Active; 'I' for Inactive)
REMARK    1  A    between atoms: C_2  and  O_1 
REMARK    2  A    between atoms: C_3  and  C_15 
REMARK    3  A    between atoms: C_7  and  O_8 
REMARK    4  A    between atoms: C_10  and  O_11 
REMARK    5  A    between atoms: C_18  and  O_19 
REMARK    6  A    between atoms: C_20  and  O_21 
ROOT
HETATM    1  C   UNK N   1      23.118  16.375   5.068  0.00  0.00     0.227 C 
HETATM    2  C   UNK N   1      22.083  17.425   5.512  0.00  0.00     0.198 C 
HETATM    3  O   UNK N   1      21.033  16.851   6.219  0.00  0.00    -0.337 OA
HETATM    4  C   UNK N   1      21.200  15.877   7.143  0.00  0.00     0.089 A 
HETATM    5  C   UNK N   1      20.153  15.576   8.018  0.00  0.00     0.074 A 
HETATM    6  C   UNK N   1      20.306  14.582   8.984  0.00  0.00     0.071 A 
HETATM    7  C   UNK N   1      21.513  13.884   9.084  0.00  0.00     0.074 A 
HETATM    8  C   UNK N   1      22.567  14.167   8.210  0.00  0.00     0.085 A 
HETATM    9  C   UNK N   1      22.413  15.163   7.222  0.00  0.00     0.079 A 
HETATM   10  C   UNK N   1      23.464  15.479   6.222  0.00  0.00     0.196 C 
HETATM   11  O   UNK N   1      24.559  14.939   6.261  0.00  0.00    -0.289 OA
ENDROOT
BRANCH   2  12
HETATM   12  C   UNK N   1      21.555  18.258   4.368  0.00  0.00    -0.023 A 
HETATM   13  C   UNK N   1      22.365  19.229   3.763  0.00  0.00     0.013 A 
HETATM   14  C   UNK N   1      21.880  19.978   2.684  0.00  0.00     0.040 A 
HETATM   15  C   UNK N   1      20.577  19.777   2.217  0.00  0.00     0.098 A 
HETATM   16  C   UNK N   1      19.754  18.824   2.832  0.00  0.00     0.099 A 
HETATM   17  C   UNK N   1      20.247  18.065   3.895  0.00  0.00     0.049 A 
BRANCH  15  18
HETATM   18  O   UNK N   1      20.118  20.500   1.182  0.00  0.00    -0.358 OA
HETATM   19  H   UNK N   1      20.488  20.402   0.327  0.00  0.00     0.217 HD
ENDBRANCH  15  18
BRANCH  16  20
HETATM   20  O   UNK N   1      18.494  18.634   2.404  0.00  0.00    -0.358 OA
HETATM   21  H   UNK N   1      17.805  19.242   2.584  0.00  0.00     0.217 HD
ENDBRANCH  16  20
ENDBRANCH   2  12
BRANCH   1  22
HETATM   22  O   UNK N   1      22.621  15.597   4.020  0.00  0.00    -0.385 OA
HETATM   23  H   UNK N   1      22.079  15.017   3.463  0.00  0.00     0.210 HD
ENDBRANCH   1  22
BRANCH   8  24
HETATM   24  O   UNK N   1      23.709  13.465   8.316  0.00  0.00    -0.360 OA
HETATM   25  H   UNK N   1      23.689  12.575   8.610  0.00  0.00     0.217 HD
ENDBRANCH   8  24
BRANCH   6  26
HETATM   26  O   UNK N   1      19.294  14.295   9.817  0.00  0.00    -0.361 OA
HETATM   27  H   UNK N   1      19.231  14.726  10.647  0.00  0.00     0.217 HD
ENDBRANCH   6  26
TORSDOF 6
ENDMDL
MODEL 7
REMARK VINA RESULT:      -6.5     14.962     16.911
REMARK  6 active torsions:
REMARK  status: ('A' for Active; 'I' for Inactive)
REMARK    1  A    between atoms: C_2  and  O_1 
REMARK    2  A    between atoms: C_3  and  C_15 
REMARK    3  A    between atoms: C_7  and  O_8 
REMARK    4  A    between atoms: C_10  and  O_11 
REMARK    5  A    between atoms: C_18  and  O_19 
REMARK    6  A    between atoms: C_20  and  O_21 
ROOT
HETATM    1  C   UNK N   1      21.829  18.262   4.329  0.00  0.00     0.227 C 
HETATM    2  C   UNK N   1      22.509  17.968   5.679  0.00  0.00     0.198 C 
HETATM    3  O   UNK N   1      23.883  17.807   5.543  0.00  0.00    -0.337 OA
HETATM    4  C   UNK N   1      24.650  18.585   4.744  0.00  0.00     0.089 A 
HETATM    5  C   UNK N   1      26.039  18.563   4.896  0.00  0.00     0.074 A 
HETATM    6  C   UNK N   1      26.848  19.364   4.089  0.00  0.00     0.071 A 
HETATM    7  C   UNK N   1      26.270  20.195   3.127  0.00  0.00     0.074 A 
HETATM    8  C   UNK N   1      24.883  20.222   2.956  0.00  0.00     0.085 A 
HETATM    9  C   UNK N   1      24.060  19.404   3.760  0.00  0.00     0.079 A 
HETATM   10  C   UNK N   1      22.587  19.334   3.599  0.00  0.00     0.196 C 
HETATM   11  O   UNK N   1      22.000  20.053   2.804  0.00  0.00    -0.289 OA
ENDROOT
BRANCH   2  12
HETATM   12  C   UNK N   1      21.910  16.784   6.399  0.00  0.00    -0.023 A 
HETATM   13  C   UNK N   1      22.599  15.565   6.459  0.00  0.00     0.013 A 
HETATM   14  C   UNK N   1      22.051  14.480   7.152  0.00  0.00     0.040 A 
HETATM   15  C   UNK N   1      20.804  14.598   7.773  0.00  0.00     0.098 A 
HETATM   16  C   UNK N   1      20.099  15.807   7.699  0.00  0.00     0.099 A 
HETATM   17  C   UNK N   1      20.656  16.894   7.022  0.00  0.00     0.049 A 
BRANCH  15  18
HETATM   18  O   UNK N   1      20.283  13.552   8.436  0.00  0.00    -0.358 OA
HETATM   19  H   UNK N   1      19.831  12.871   7.978  0.00  0.00     0.217 HD
ENDBRANCH  15  18
BRANCH  16  20
HETATM   20  O   UNK N   1      18.891  15.928   8.276  0.00  0.00    -0.358 OA
HETATM   21  H   UNK N   1      18.403  15.189   8.582  0.00  0.00     0.217 HD
ENDBRANCH  16  20
ENDBRANCH   2  12
BRANCH   1  22
HETATM   22  O   UNK N   1      21.782  17.115   3.534  0.00  0.00    -0.385 OA
HETATM   23  H   UNK N   1      21.973  16.418   2.887  0.00  0.00     0.210 HD
ENDBRANCH   1  22
BRANCH   8  24
HETATM   24  O   UNK N   1      24.357  21.016   2.007  0.00  0.00    -0.360 OA
HETATM   25  H   UNK N   1      23.428  21.051   1.884  0.00  0.00     0.217 HD
ENDBRANCH   8  24
BRANCH   6  26
HETATM   26  O   UNK N   1      28.181  19.333   4.238  0.00  0.00    -0.361 OA
HETATM   27  H   UNK N   1      28.606  19.951   4.800  0.00  0.00     0.217 HD
ENDBRANCH   6  26
TORSDOF 6
ENDMDL
MODEL 8
REMARK VINA RESULT:      -6.3     12.221     15.470
REMARK  6 active torsions:
REMARK  status: ('A' for Active; 'I' for Inactive)
REMARK    1  A    between atoms: C_2  and  O_1 
REMARK    2  A    between atoms: C_3  and  C_15 
REMARK    3  A    between atoms: C_7  and  O_8 
REMARK    4  A    between atoms: C_10  and  O_11 
REMARK    5  A    between atoms: C_18  and  O_19 
REMARK    6  A    between atoms: C_20  and  O_21 
ROOT
HETATM    1  C   UNK N   1      26.900  19.766   3.836  0.00  0.00     0.227 C 
HETATM    2  C   UNK N   1      26.832  18.318   4.354  0.00  0.00     0.198 C 
HETATM    3  O   UNK N   1      25.635  18.059   5.012  0.00  0.00    -0.337 OA
HETATM    4  C   UNK N   1      24.433  18.502   4.577  0.00  0.00     0.089 A 
HETATM    5  C   UNK N   1      23.266  17.950   5.110  0.00  0.00     0.074 A 
HETATM    6  C   UNK N   1      22.016  18.385   4.669  0.00  0.00     0.071 A 
HETATM    7  C   UNK N   1      21.927  19.375   3.688  0.00  0.00     0.074 A 
HETATM    8  C   UNK N   1      23.086  19.945   3.151  0.00  0.00     0.085 A 
HETATM    9  C   UNK N   1      24.353  19.517   3.602  0.00  0.00     0.079 A 
HETATM   10  C   UNK N   1      25.624  20.114   3.124  0.00  0.00     0.196 C 
HETATM   11  O   UNK N   1      25.636  20.961   2.242  0.00  0.00    -0.289 OA
ENDROOT
BRANCH   2  12
HETATM   12  C   UNK N   1      28.005  17.945   5.228  0.00  0.00    -0.023 A 
HETATM   13  C   UNK N   1      27.826  17.722   6.601  0.00  0.00     0.013 A 
HETATM   14  C   UNK N   1      28.912  17.349   7.402  0.00  0.00     0.040 A 
HETATM   15  C   UNK N   1      30.186  17.216   6.842  0.00  0.00     0.098 A 
HETATM   16  C   UNK N   1      30.377  17.460   5.475  0.00  0.00     0.099 A 
HETATM   17  C   UNK N   1      29.289  17.813   4.675  0.00  0.00     0.049 A 
BRANCH  15  18
HETATM   18  O   UNK N   1      31.224  16.859   7.617  0.00  0.00    -0.358 OA
HETATM   19  H   UNK N   1      31.988  17.398   7.674  0.00  0.00     0.217 HD
ENDBRANCH  15  18
BRANCH  16  20
HETATM   20  O   UNK N   1      31.600  17.353   4.928  0.00  0.00    -0.358 OA
HETATM   21  H   UNK N   1      32.108  18.100   4.681  0.00  0.00     0.217 HD
ENDBRANCH  16  20
ENDBRANCH   2  12
BRANCH   1  22
HETATM   22  O   UNK N   1      27.095  20.664   4.888  0.00  0.00    -0.385 OA
HETATM   23  H   UNK N   1      26.981  21.219   5.675  0.00  0.00     0.210 HD
ENDBRANCH   1  22
BRANCH   8  24
HETATM   24  O   UNK N   1      22.969  20.911   2.223  0.00  0.00    -0.360 OA
HETATM   25  H   UNK N   1      22.636  21.754   2.461  0.00  0.00     0.217 HD
ENDBRANCH   8  24
BRANCH   6  26
HETATM   26  O   UNK N   1      20.899  17.854   5.190  0.00  0.00    -0.361 OA
HETATM   27  H   UNK N   1      20.698  17.977   6.097  0.00  0.00     0.217 HD
ENDBRANCH   6  26
TORSDOF 6
ENDMDL
MODEL 9
REMARK VINA RESULT:      -6.2     13.976     17.075
REMARK  6 active torsions:
REMARK  status: ('A' for Active; 'I' for Inactive)
REMARK    1  A    between atoms: C_2  and  O_1 
REMARK    2  A    between atoms: C_3  and  C_15 
REMARK    3  A    between atoms: C_7  and  O_8 
REMARK    4  A    between atoms: C_10  and  O_11 
REMARK    5  A    between atoms: C_18  and  O_19 
REMARK    6  A    between atoms: C_20  and  O_21 
ROOT
HETATM    1  C   UNK N   1      25.035  19.643   3.790  0.00  0.00     0.227 C 
HETATM    2  C   UNK N   1      25.037  18.126   3.525  0.00  0.00     0.198 C 
HETATM    3  O   UNK N   1      23.847  17.529   3.923  0.00  0.00    -0.337 OA
HETATM    4  C   UNK N   1      22.629  18.082   3.715  0.00  0.00     0.089 A 
HETATM    5  C   UNK N   1      21.485  17.293   3.861  0.00  0.00     0.074 A 
HETATM    6  C   UNK N   1      20.220  17.839   3.644  0.00  0.00     0.071 A 
HETATM    7  C   UNK N   1      20.093  19.181   3.274  0.00  0.00     0.074 A 
HETATM    8  C   UNK N   1      21.227  19.987   3.134  0.00  0.00     0.085 A 
HETATM    9  C   UNK N   1      22.509  19.442   3.365  0.00  0.00     0.079 A 
HETATM   10  C   UNK N   1      23.753  20.247   3.293  0.00  0.00     0.196 C 
HETATM   11  O   UNK N   1      23.732  21.418   2.944  0.00  0.00    -0.289 OA
ENDROOT
BRANCH   2  12
HETATM   12  C   UNK N   1      26.216  17.417   4.147  0.00  0.00    -0.023 A 
HETATM   13  C   UNK N   1      26.017  16.431   5.124  0.00  0.00     0.013 A 
HETATM   14  C   UNK N   1      27.111  15.757   5.677  0.00  0.00     0.040 A 
HETATM   15  C   UNK N   1      28.412  16.076   5.274  0.00  0.00     0.098 A 
HETATM   16  C   UNK N   1      28.619  17.076   4.315  0.00  0.00     0.099 A 
HETATM   17  C   UNK N   1      27.525  17.735   3.751  0.00  0.00     0.049 A 
BRANCH  15  18
HETATM   18  O   UNK N   1      29.458  15.425   5.810  0.00  0.00    -0.358 OA
HETATM   19  H   UNK N   1      29.377  14.534   6.088  0.00  0.00     0.217 HD
ENDBRANCH  15  18
BRANCH  16  20
HETATM   20  O   UNK N   1      29.865  17.405   3.932  0.00  0.00    -0.358 OA
HETATM   21  H   UNK N   1      30.035  17.988   3.218  0.00  0.00     0.217 HD
ENDBRANCH  16  20
ENDBRANCH   2  12
BRANCH   1  22
HETATM   22  O   UNK N   1      25.166  19.911   5.155  0.00  0.00    -0.385 OA
HETATM   23  H   UNK N   1      25.507  20.139   6.033  0.00  0.00     0.210 HD
ENDBRANCH   1  22
BRANCH   8  24
HETATM   24  O   UNK N   1      21.072  21.280   2.798  0.00  0.00    -0.360 OA
HETATM   25  H   UNK N   1      20.319  21.552   2.312  0.00  0.00     0.217 HD
ENDBRANCH   8  24
BRANCH   6  26
HETATM   26  O   UNK N   1      19.127  17.076   3.791  0.00  0.00    -0.361 OA
HETATM   27  H   UNK N   1      19.089  16.226   3.397  0.00  0.00     0.217 HD
ENDBRANCH   6  26
TORSDOF 6
ENDMDL
