MODEL 1
REMARK VINA RESULT:      -2.8      0.000      0.000
REMARK  2 active torsions:
REMARK  status: ('A' for Active; 'I' for Inactive)
REMARK    1  A    between atoms: C_2  and  C_1 
REMARK    2  A    between atoms: N_5  and  C_2 
ROOT
HETATM    1  C   UNK N   1      18.426  26.491   9.346  0.00  0.00     0.072 C 
HETATM    2  N   UNK N   1      18.443  25.932  10.499  0.00  0.00    -0.410 N 
ATOM      3  HN  UNK N   1      17.579  25.853  11.034  1.00  0.00     0.155 HD
HETATM    4  H   UNK N   1      19.321  25.562  10.893  0.00  0.00     0.155 HD
ENDROOT
BRANCH   1   5
HETATM    5  C   UNK N   1      17.134  27.017   8.807  0.00  0.00     0.155 C 
BRANCH   5   6
HETATM    6  N   UNK N   1      17.044  26.789   7.375  0.00  0.00    -0.426 N 
HETATM    7  H   UNK N   1      16.274  26.237   6.995  0.00  0.00     0.150 HD
HETATM    8  H   UNK N   1      17.749  27.179   6.751  0.00  0.00     0.150 HD
ENDBRANCH   5   6
ENDBRANCH   1   5
TORSDOF 2
ENDMDL
MODEL 2
REMARK VINA RESULT:      -2.7     26.795     27.368
REMARK  2 active torsions:
REMARK  status: ('A' for Active; 'I' for Inactive)
REMARK    1  A    between atoms: C_2  and  C_1 
REMARK    2  A    between atoms: N_5  and  C_2 
ROOT
HETATM    1  C   UNK N   1      43.429  22.756   3.596  0.00  0.00     0.072 C 
HETATM    2  N   UNK N   1      43.569  23.961   4.010  0.00  0.00    -0.410 N 
ATOM      3  HN  UNK N   1      44.324  24.188   4.656  1.00  0.00     0.155 HD
HETATM    4  H   UNK N   1      42.925  24.704   3.698  0.00  0.00     0.155 HD
ENDROOT
BRANCH   1   5
HETATM    5  C   UNK N   1      44.381  21.705   4.070  0.00  0.00     0.155 C 
BRANCH   5   6
HETATM    6  N   UNK N   1      45.727  22.240   4.176  0.00  0.00    -0.426 N 
HETATM    7  H   UNK N   1      46.327  21.959   4.952  0.00  0.00     0.150 HD
HETATM    8  H   UNK N   1      46.072  22.896   3.475  0.00  0.00     0.150 HD
ENDBRANCH   5   6
ENDBRANCH   1   5
TORSDOF 2
ENDMDL
MODEL 3
REMARK VINA RESULT:      -2.7     26.828     27.339
REMARK  2 active torsions:
REMARK  status: ('A' for Active; 'I' for Inactive)
REMARK    1  A    between atoms: C_2  and  C_1 
REMARK    2  A    between atoms: N_5  and  C_2 
ROOT
HETATM    1  C   UNK N   1      44.529  21.773   4.111  0.00  0.00     0.072 C 
HETATM    2  N   UNK N   1      45.725  22.233   4.147  0.00  0.00    -0.410 N 
ATOM      3  HN  UNK N   1      45.908  23.184   3.827  1.00  0.00     0.155 HD
HETATM    4  H   UNK N   1      46.503  21.654   4.494  0.00  0.00     0.155 HD
ENDROOT
BRANCH   1   5
HETATM    5  C   UNK N   1      43.425  22.642   3.601  0.00  0.00     0.155 C 
BRANCH   5   6
HETATM    6  N   UNK N   1      43.581  24.005   4.079  0.00  0.00    -0.426 N 
HETATM    7  H   UNK N   1      43.929  24.729   3.449  0.00  0.00     0.150 HD
HETATM    8  H   UNK N   1      43.343  24.238   5.042  0.00  0.00     0.150 HD
ENDBRANCH   5   6
ENDBRANCH   1   5
TORSDOF 2
ENDMDL
MODEL 4
REMARK VINA RESULT:      -2.5     10.233     10.559
REMARK  2 active torsions:
REMARK  status: ('A' for Active; 'I' for Inactive)
REMARK    1  A    between atoms: C_2  and  C_1 
REMARK    2  A    between atoms: N_5  and  C_2 
ROOT
HETATM    1  C   UNK N   1      20.653  20.368   1.683  0.00  0.00     0.072 C 
HETATM    2  N   UNK N   1      20.460  20.740   0.473  0.00  0.00    -0.410 N 
ATOM      3  HN  UNK N   1      20.096  20.074  -0.207  1.00  0.00     0.155 HD
HETATM    4  H   UNK N   1      20.668  21.706   0.178  0.00  0.00     0.155 HD
ENDROOT
BRANCH   1   5
HETATM    5  C   UNK N   1      20.340  18.959   2.075  0.00  0.00     0.155 C 
BRANCH   5   6
HETATM    6  N   UNK N   1      18.920  18.802   2.337  0.00  0.00    -0.426 N 
HETATM    7  H   UNK N   1      18.604  18.153   3.058  0.00  0.00     0.150 HD
HETATM    8  H   UNK N   1      18.240  19.340   1.801  0.00  0.00     0.150 HD
ENDBRANCH   5   6
ENDBRANCH   1   5
TORSDOF 2
ENDMDL
MODEL 5
REMARK VINA RESULT:      -2.4     10.023     10.232
REMARK  2 active torsions:
REMARK  status: ('A' for Active; 'I' for Inactive)
REMARK    1  A    between atoms: C_2  and  C_1 
REMARK    2  A    between atoms: N_5  and  C_2 
ROOT
HETATM    1  C   UNK N   1      20.349  19.303   2.190  0.00  0.00     0.072 C 
HETATM    2  N   UNK N   1      19.099  19.122   2.403  0.00  0.00    -0.410 N 
ATOM      3  HN  UNK N   1      18.448  19.895   2.267  1.00  0.00     0.155 HD
HETATM    4  H   UNK N   1      18.743  18.205   2.709  0.00  0.00     0.155 HD
ENDROOT
BRANCH   1   5
HETATM    5  C   UNK N   1      20.829  20.648   1.746  0.00  0.00     0.155 C 
BRANCH   5   6
HETATM    6  N   UNK N   1      20.473  20.889   0.359  0.00  0.00    -0.426 N 
HETATM    7  H   UNK N   1      19.627  20.471  -0.029  0.00  0.00     0.150 HD
HETATM    8  H   UNK N   1      21.067  21.476  -0.226  0.00  0.00     0.150 HD
ENDBRANCH   5   6
ENDBRANCH   1   5
TORSDOF 2
ENDMDL
MODEL 6
REMARK VINA RESULT:      -2.4     15.684     15.795
REMARK  2 active torsions:
REMARK  status: ('A' for Active; 'I' for Inactive)
REMARK    1  A    between atoms: C_2  and  C_1 
REMARK    2  A    between atoms: N_5  and  C_2 
ROOT
HETATM    1  C   UNK N   1      23.467  11.868  11.294  0.00  0.00     0.072 C 
HETATM    2  N   UNK N   1      23.612  12.245  12.510  0.00  0.00    -0.410 N 
ATOM      3  HN  UNK N   1      24.352  12.904  12.748  1.00  0.00     0.155 HD
HETATM    4  H   UNK N   1      22.989  11.889  13.250  0.00  0.00     0.155 HD
ENDROOT
BRANCH   1   5
HETATM    5  C   UNK N   1      24.389  12.405  10.246  0.00  0.00     0.155 C 
BRANCH   5   6
HETATM    6  N   UNK N   1      25.467  13.167  10.852  0.00  0.00    -0.426 N 
HETATM    7  H   UNK N   1      26.066  13.753  10.270  0.00  0.00     0.150 HD
HETATM    8  H   UNK N   1      25.625  13.115  11.858  0.00  0.00     0.150 HD
ENDBRANCH   5   6
ENDBRANCH   1   5
TORSDOF 2
ENDMDL
MODEL 7
REMARK VINA RESULT:      -2.4     15.710     15.784
REMARK  2 active torsions:
REMARK  status: ('A' for Active; 'I' for Inactive)
REMARK    1  A    between atoms: C_2  and  C_1 
REMARK    2  A    between atoms: N_5  and  C_2 
ROOT
HETATM    1  C   UNK N   1      24.044  12.198  10.757  0.00  0.00     0.072 C 
HETATM    2  N   UNK N   1      25.193  12.740  10.925  0.00  0.00    -0.410 N 
ATOM      3  HN  UNK N   1      25.498  12.991  11.864  1.00  0.00     0.155 HD
HETATM    4  H   UNK N   1      25.811  12.925  10.121  0.00  0.00     0.155 HD
ENDROOT
BRANCH   1   5
HETATM    5  C   UNK N   1      23.173  11.944  11.946  0.00  0.00     0.155 C 
BRANCH   5   6
HETATM    6  N   UNK N   1      21.789  11.771  11.542  0.00  0.00    -0.426 N 
HETATM    7  H   UNK N   1      21.383  12.389  10.839  0.00  0.00     0.150 HD
HETATM    8  H   UNK N   1      21.224  11.033  11.961  0.00  0.00     0.150 HD
ENDBRANCH   5   6
ENDBRANCH   1   5
TORSDOF 2
ENDMDL
MODEL 8
REMARK VINA RESULT:      -2.3     20.021     20.121
REMARK  2 active torsions:
REMARK  status: ('A' for Active; 'I' for Inactive)
REMARK    1  A    between atoms: C_2  and  C_1 
REMARK    2  A    between atoms: N_5  and  C_2 
ROOT
HETATM    1  C   UNK N   1      34.492  14.869  11.175  0.00  0.00     0.072 C 
HETATM    2  N   UNK N   1      33.297  15.050  10.750  0.00  0.00    -0.410 N 
ATOM      3  HN  UNK N   1      32.995  15.986  10.480  1.00  0.00     0.155 HD
HETATM    4  H   UNK N   1      32.637  14.262  10.678  0.00  0.00     0.155 HD
ENDROOT
BRANCH   1   5
HETATM    5  C   UNK N   1      35.421  16.037  11.267  0.00  0.00     0.155 C 
BRANCH   5   6
HETATM    6  N   UNK N   1      34.938  17.143  10.460  0.00  0.00    -0.426 N 
HETATM    7  H   UNK N   1      35.553  17.579   9.772  0.00  0.00     0.150 HD
HETATM    8  H   UNK N   1      33.984  17.483  10.580  0.00  0.00     0.150 HD
ENDBRANCH   5   6
ENDBRANCH   1   5
TORSDOF 2
ENDMDL
MODEL 9
REMARK VINA RESULT:      -2.3     13.545     14.378
REMARK  2 active torsions:
REMARK  status: ('A' for Active; 'I' for Inactive)
REMARK    1  A    between atoms: C_2  and  C_1 
REMARK    2  A    between atoms: N_5  and  C_2 
ROOT
HETATM    1  C   UNK N   1      28.601  17.882   9.307  0.00  0.00     0.072 C 
HETATM    2  N   UNK N   1      27.530  18.518   9.004  0.00  0.00    -0.410 N 
ATOM      3  HN  UNK N   1      27.545  19.536   8.957  1.00  0.00     0.155 HD
HETATM    4  H   UNK N   1      26.654  18.011   8.806  0.00  0.00     0.155 HD
ENDROOT
BRANCH   1   5
HETATM    5  C   UNK N   1      29.853  18.650   9.588  0.00  0.00     0.155 C 
BRANCH   5   6
HETATM    6  N   UNK N   1      31.020  17.915   9.132  0.00  0.00    -0.426 N 
HETATM    7  H   UNK N   1      31.811  17.775   9.761  0.00  0.00     0.150 HD
HETATM    8  H   UNK N   1      31.048  17.540   8.184  0.00  0.00     0.150 HD
ENDBRANCH   5   6
ENDBRANCH   1   5
TORSDOF 2
ENDMDL
