MODEL 1
REMARK VINA RESULT:      -8.2      0.000      0.000
REMARK  7 active torsions:
REMARK  status: ('A' for Active; 'I' for Inactive)
REMARK    1  A    between atoms: C_21  and  C_7 
REMARK    2  A    between atoms: C_22  and  C_8 
REMARK    3  A    between atoms: C_12  and  C_10 
REMARK    4  A    between atoms: C_24  and  C_10 
REMARK    5  A    between atoms: C_34  and  C_12 
REMARK    6  A    between atoms: O_40  and  C_33 
REMARK    7  A    between atoms: O_42  and  C_34 
ROOT
HETATM    1  C   UNK N   1      23.285  10.255   7.061  0.00  0.00     0.051 C 
HETATM    2  C   UNK N   1      19.127  11.131   0.994  0.00  0.00     0.052 C 
HETATM    3  C   UNK N   1      24.085  13.806   5.558  0.00  0.00     0.046 C 
HETATM    4  C   UNK N   1      18.589  18.752   2.310  0.00  0.00     0.017 C 
HETATM    5  C   UNK N   1      23.082  16.092   4.109  0.00  0.00     0.051 C 
HETATM    6  C   UNK N   1      21.805  15.336   3.490  0.00  0.00     0.114 A 
HETATM    7  C   UNK N   1      22.368  13.480   7.774  0.00  0.00     0.031 C 
HETATM    8  C   UNK N   1      20.761  11.712   3.348  0.00  0.00     0.064 A 
HETATM    9  C   UNK N   1      19.834  16.040   1.771  0.00  0.00     0.060 C 
HETATM   10  C   UNK N   1      21.768  18.081   5.969  0.00  0.00     0.053 C 
HETATM   11  C   UNK N   1      22.168  11.083   6.514  0.00  0.00    -0.025 C 
HETATM   12  C   UNK N   1      19.709  12.437   1.325  0.00  0.00    -0.021 C 
HETATM   13  C   UNK N   1      23.328  14.877   6.227  0.00  0.00    -0.053 C 
HETATM   14  C   UNK N   1      20.028  18.490   2.592  0.00  0.00     0.043 C 
HETATM   15  C   UNK N   1      21.488  10.714   5.362  0.00  0.00    -0.021 C 
HETATM   16  C   UNK N   1      19.343  13.743   0.862  0.00  0.00     0.000 C 
HETATM   17  C   UNK N   1      23.024  16.048   5.578  0.00  0.00    -0.031 C 
HETATM   18  C   UNK N   1      20.750  19.172   3.558  0.00  0.00     0.048 C 
HETATM   19  C   UNK N   1      21.883  12.459   6.757  0.00  0.00     0.062 C 
HETATM   20  C   UNK N   1      22.588  14.792   7.369  0.00  0.00     0.135 C 
HETATM   21  C   UNK N   1      20.422  12.595   2.482  0.00  0.00     0.066 A 
HETATM   22  C   UNK N   1      20.289  17.241   2.798  0.00  0.00     0.041 C 
HETATM   23  C   UNK N   1      21.113  11.853   4.797  0.00  0.00     0.066 A 
HETATM   24  C   UNK N   1      19.946  14.595   1.753  0.00  0.00     0.070 C 
HETATM   25  C   UNK N   1      22.282  16.820   6.406  0.00  0.00     0.035 C 
HETATM   26  C   UNK N   1      21.100  18.263   4.610  0.00  0.00     0.041 C 
HETATM   27  C   UNK N   1      19.538  15.277   4.232  0.00  0.00     0.139 A 
HETATM   28 Fe   UNK N   1      21.126  14.827   5.121  0.00  0.00     0.000 Fe
HETATM   29  N   UNK N   1      21.300  12.915   5.652  0.00  0.00    -0.248 N 
HETATM   30  N   UNK N   1      20.460  13.800   2.781  0.00  0.00    -0.248 N 
HETATM   31  N   UNK N   1      21.671  15.761   7.052  0.00  0.00    -0.197 NA
HETATM   32  N   UNK N   1      20.796  17.154   4.132  0.00  0.00    -0.257 N 
HETATM   33  O   UNK N   1      18.836  14.259   4.237  0.00  0.00    -0.650 OA
ENDROOT
BRANCH  18  34
HETATM   34  C   UNK N   1      21.898  19.696   2.759  0.00  0.00     0.022 C 
BRANCH  34  35
HETATM   35  C   UNK N   1      23.181  19.573   3.423  0.00  0.00     0.110 C 
BRANCH  35  36
HETATM   36  C   UNK N   1      23.935  20.750   2.979  0.00  0.00     0.139 C 
HETATM   37  O   UNK N   1      25.033  20.626   2.446  0.00  0.00    -0.650 OA
BRANCH  36  38
HETATM   38  O   UNK N   1      23.304  21.926   2.973  0.00  0.00    -0.776 OA
HETATM   39  H   UNK N   1      22.419  22.235   2.952  0.00  0.00     0.167 HD
ENDBRANCH  36  38
ENDBRANCH  35  36
ENDBRANCH  34  35
ENDBRANCH  18  34
BRANCH  27  40
HETATM   40  O   UNK N   1      18.756  16.357   4.571  0.00  0.00    -0.776 OA
HETATM   41  H   UNK N   1      18.913  17.258   4.773  0.00  0.00     0.167 HD
ENDBRANCH  27  40
BRANCH  16  42
HETATM   42  C   UNK N   1      18.313  14.315  -0.086  0.00  0.00     0.004 C 
HETATM   43  C   UNK N   1      17.024  14.004  -0.309  0.00  0.00     0.012 C 
ENDBRANCH  16  42
BRANCH  15  44
HETATM   44  C   UNK N   1      21.380   9.439   4.562  0.00  0.00     0.037 C 
HETATM   45  C   UNK N   1      20.526   8.428   5.223  0.00  0.00     0.010 C 
ENDBRANCH  15  44
TORSDOF 7
ENDMDL
MODEL 2
REMARK VINA RESULT:      -8.2      6.620      8.997
REMARK  7 active torsions:
REMARK  status: ('A' for Active; 'I' for Inactive)
REMARK    1  A    between atoms: C_21  and  C_7 
REMARK    2  A    between atoms: C_22  and  C_8 
REMARK    3  A    between atoms: C_12  and  C_10 
REMARK    4  A    between atoms: C_24  and  C_10 
REMARK    5  A    between atoms: C_34  and  C_12 
REMARK    6  A    between atoms: O_40  and  C_33 
REMARK    7  A    between atoms: O_42  and  C_34 
ROOT
HETATM    1  C   UNK N   1      22.438  14.350   2.993  0.00  0.00     0.051 C 
HETATM    2  C   UNK N   1      28.596  10.961   0.658  0.00  0.00     0.052 C 
HETATM    3  C   UNK N   1      25.267  15.038   5.644  0.00  0.00     0.046 C 
HETATM    4  C   UNK N   1      32.997  16.504   3.822  0.00  0.00     0.017 C 
HETATM    5  C   UNK N   1      28.088  15.426   6.113  0.00  0.00     0.051 C 
HETATM    6  C   UNK N   1      28.568  14.777   4.723  0.00  0.00     0.114 A 
HETATM    7  C   UNK N   1      24.529  16.967   3.721  0.00  0.00     0.031 C 
HETATM    8  C   UNK N   1      26.794  12.802   2.041  0.00  0.00     0.064 A 
HETATM    9  C   UNK N   1      30.979  14.249   3.609  0.00  0.00     0.060 C 
HETATM   10  C   UNK N   1      28.876  18.321   5.735  0.00  0.00     0.053 C 
HETATM   11  C   UNK N   1      23.825  14.635   2.520  0.00  0.00    -0.025 C 
HETATM   12  C   UNK N   1      28.971  11.850   1.764  0.00  0.00    -0.021 C 
HETATM   13  C   UNK N   1      25.914  16.345   5.441  0.00  0.00    -0.053 C 
HETATM   14  C   UNK N   1      31.984  16.266   4.888  0.00  0.00     0.043 C 
HETATM   15  C   UNK N   1      24.596  13.660   1.903  0.00  0.00    -0.021 C 
HETATM   16  C   UNK N   1      30.267  12.315   2.162  0.00  0.00     0.000 C 
HETATM   17  C   UNK N   1      27.205  16.572   5.849  0.00  0.00    -0.031 C 
HETATM   18  C   UNK N   1      31.508  17.266   5.721  0.00  0.00     0.048 C 
HETATM   19  C   UNK N   1      24.705  15.681   2.929  0.00  0.00     0.062 C 
HETATM   20  C   UNK N   1      25.519  17.356   4.616  0.00  0.00     0.135 C 
HETATM   21  C   UNK N   1      28.044  12.700   2.303  0.00  0.00     0.066 A 
HETATM   22  C   UNK N   1      30.928  15.653   4.463  0.00  0.00     0.041 C 
HETATM   23  C   UNK N   1      25.850  13.950   2.223  0.00  0.00     0.066 A 
HETATM   24  C   UNK N   1      30.002  13.379   2.987  0.00  0.00     0.070 C 
HETATM   25  C   UNK N   1      27.556  17.829   5.490  0.00  0.00     0.035 C 
HETATM   26  C   UNK N   1      30.123  17.497   5.431  0.00  0.00     0.041 C 
HETATM   27  C   UNK N   1      29.146  15.815   2.654  0.00  0.00     0.139 A 
HETATM   28 Fe   UNK N   1      27.577  15.916   3.674  0.00  0.00     0.000 Fe
HETATM   29  N   UNK N   1      25.937  15.196   2.802  0.00  0.00    -0.248 N 
HETATM   30  N   UNK N   1      28.628  13.622   2.897  0.00  0.00    -0.248 N 
HETATM   31  N   UNK N   1      26.767  17.860   4.355  0.00  0.00    -0.197 NA
HETATM   32  N   UNK N   1      29.834  16.547   4.680  0.00  0.00    -0.257 N 
HETATM   33  O   UNK N   1      28.812  15.383   1.543  0.00  0.00    -0.650 OA
ENDROOT
BRANCH  18  34
HETATM   34  C   UNK N   1      31.789  16.691   7.071  0.00  0.00     0.022 C 
BRANCH  34  35
HETATM   35  C   UNK N   1      31.962  17.686   8.110  0.00  0.00     0.110 C 
BRANCH  35  36
HETATM   36  C   UNK N   1      33.412  17.740   8.325  0.00  0.00     0.139 C 
HETATM   37  O   UNK N   1      34.140  18.339   7.541  0.00  0.00    -0.650 OA
BRANCH  36  38
HETATM   38  O   UNK N   1      33.882  17.311   9.499  0.00  0.00    -0.776 OA
HETATM   39  H   UNK N   1      34.511  16.687   9.804  0.00  0.00     0.167 HD
ENDBRANCH  36  38
ENDBRANCH  35  36
ENDBRANCH  34  35
ENDBRANCH  18  34
BRANCH  27  40
HETATM   40  O   UNK N   1      30.008  16.872   2.476  0.00  0.00    -0.776 OA
HETATM   41  H   UNK N   1      30.399  17.298   1.739  0.00  0.00     0.167 HD
ENDBRANCH  27  40
BRANCH  16  42
HETATM   42  C   UNK N   1      31.689  12.117   1.688  0.00  0.00     0.004 C 
HETATM   43  C   UNK N   1      32.221  12.003   0.458  0.00  0.00     0.012 C 
ENDBRANCH  16  42
BRANCH  15  44
HETATM   44  C   UNK N   1      24.301  12.318   1.280  0.00  0.00     0.037 C 
HETATM   45  C   UNK N   1      23.658  12.441  -0.046  0.00  0.00     0.010 C 
ENDBRANCH  15  44
TORSDOF 7
ENDMDL
MODEL 3
REMARK VINA RESULT:      -8.1     14.438     15.932
REMARK  7 active torsions:
REMARK  status: ('A' for Active; 'I' for Inactive)
REMARK    1  A    between atoms: C_21  and  C_7 
REMARK    2  A    between atoms: C_22  and  C_8 
REMARK    3  A    between atoms: C_12  and  C_10 
REMARK    4  A    between atoms: C_24  and  C_10 
REMARK    5  A    between atoms: C_34  and  C_12 
REMARK    6  A    between atoms: O_40  and  C_33 
REMARK    7  A    between atoms: O_42  and  C_34 
ROOT
HETATM    1  C   UNK N   1      31.810  19.830  -7.178  0.00  0.00     0.051 C 
HETATM    2  C   UNK N   1      26.537  22.637 -11.557  0.00  0.00     0.052 C 
HETATM    3  C   UNK N   1      31.303  23.605  -6.180  0.00  0.00     0.046 C 
HETATM    4  C   UNK N   1      24.152  27.347  -5.879  0.00  0.00     0.017 C 
HETATM    5  C   UNK N   1      29.458  25.814  -5.960  0.00  0.00     0.051 C 
HETATM    6  C   UNK N   1      28.351  25.190  -6.944  0.00  0.00     0.114 A 
HETATM    7  C   UNK N   1      30.179  21.504  -4.670  0.00  0.00     0.031 C 
HETATM    8  C   UNK N   1      28.346  22.238  -9.295  0.00  0.00     0.064 A 
HETATM    9  C   UNK N   1      25.982  26.061  -7.928  0.00  0.00     0.060 C 
HETATM   10  C   UNK N   1      28.006  25.770  -3.308  0.00  0.00     0.053 C 
HETATM   11  C   UNK N   1      30.427  20.393  -7.135  0.00  0.00    -0.025 C 
HETATM   12  C   UNK N   1      26.783  23.606 -10.482  0.00  0.00    -0.021 C 
HETATM   13  C   UNK N   1      30.414  23.759  -5.017  0.00  0.00    -0.053 C 
HETATM   14  C   UNK N   1      25.634  27.464  -5.778  0.00  0.00     0.043 C 
HETATM   15  C   UNK N   1      29.677  20.564  -8.290  0.00  0.00    -0.021 C 
HETATM   16  C   UNK N   1      25.991  24.724 -10.062  0.00  0.00     0.000 C 
HETATM   17  C   UNK N   1      29.684  24.906  -4.825  0.00  0.00    -0.031 C 
HETATM   18  C   UNK N   1      26.302  27.647  -4.578  0.00  0.00     0.048 C 
HETATM   19  C   UNK N   1      29.820  21.178  -6.111  0.00  0.00     0.062 C 
HETATM   20  C   UNK N   1      29.949  22.786  -4.184  0.00  0.00     0.135 C 
HETATM   21  C   UNK N   1      27.623  23.285  -9.451  0.00  0.00     0.066 A 
HETATM   22  C   UNK N   1      26.265  26.504  -6.370  0.00  0.00     0.041 C 
HETATM   23  C   UNK N   1      28.904  21.615  -8.053  0.00  0.00     0.066 A 
HETATM   24  C   UNK N   1      26.485  25.037  -8.821  0.00  0.00     0.070 C 
HETATM   25  C   UNK N   1      28.921  24.751  -3.718  0.00  0.00     0.035 C 
HETATM   26  C   UNK N   1      27.077  26.476  -4.290  0.00  0.00     0.041 C 
HETATM   27  C   UNK N   1      26.364  23.963  -6.452  0.00  0.00     0.139 A 
HETATM   28 Fe   UNK N   1      28.149  23.638  -5.981  0.00  0.00     0.000 Fe
HETATM   29  N   UNK N   1      28.942  21.967  -6.723  0.00  0.00    -0.248 N 
HETATM   30  N   UNK N   1      27.379  24.018  -8.478  0.00  0.00    -0.248 N 
HETATM   31  N   UNK N   1      28.757  23.386  -3.868  0.00  0.00    -0.197 NA
HETATM   32  N   UNK N   1      27.011  25.831  -5.353  0.00  0.00    -0.257 N 
HETATM   33  O   UNK N   1      25.985  22.972  -7.088  0.00  0.00    -0.650 OA
ENDROOT
BRANCH  18  34
HETATM   34  C   UNK N   1      27.094  28.882  -4.861  0.00  0.00     0.022 C 
BRANCH  34  35
HETATM   35  C   UNK N   1      26.920  29.931  -3.876  0.00  0.00     0.110 C 
BRANCH  35  36
HETATM   36  C   UNK N   1      27.919  29.631  -2.844  0.00  0.00     0.139 C 
HETATM   37  O   UNK N   1      27.575  29.366  -1.697  0.00  0.00    -0.650 OA
BRANCH  36  38
HETATM   38  O   UNK N   1      29.180  29.441  -3.238  0.00  0.00    -0.776 OA
HETATM   39  H   UNK N   1      29.958  29.955  -3.335  0.00  0.00     0.167 HD
ENDBRANCH  36  38
ENDBRANCH  35  36
ENDBRANCH  34  35
ENDBRANCH  18  34
BRANCH  27  40
HETATM   40  O   UNK N   1      25.388  24.307  -5.545  0.00  0.00    -0.776 OA
HETATM   41  H   UNK N   1      25.357  24.817  -4.760  0.00  0.00     0.167 HD
ENDBRANCH  27  40
BRANCH  16  42
HETATM   42  C   UNK N   1      24.687  25.359 -10.491  0.00  0.00     0.004 C 
HETATM   43  C   UNK N   1      24.411  26.352 -11.355  0.00  0.00     0.012 C 
ENDBRANCH  16  42
BRANCH  15  44
HETATM   44  C   UNK N   1      29.784  20.049  -9.705  0.00  0.00     0.037 C 
HETATM   45  C   UNK N   1      29.937  18.579  -9.759  0.00  0.00     0.010 C 
ENDBRANCH  15  44
TORSDOF 7
ENDMDL
MODEL 4
REMARK VINA RESULT:      -8.1      2.053      3.020
REMARK  7 active torsions:
REMARK  status: ('A' for Active; 'I' for Inactive)
REMARK    1  A    between atoms: C_21  and  C_7 
REMARK    2  A    between atoms: C_22  and  C_8 
REMARK    3  A    between atoms: C_12  and  C_10 
REMARK    4  A    between atoms: C_24  and  C_10 
REMARK    5  A    between atoms: C_34  and  C_12 
REMARK    6  A    between atoms: O_40  and  C_33 
REMARK    7  A    between atoms: O_42  and  C_34 
ROOT
HETATM    1  C   UNK N   1      23.600  11.453   9.572  0.00  0.00     0.051 C 
HETATM    2  C   UNK N   1      24.466   9.910   2.379  0.00  0.00     0.052 C 
HETATM    3  C   UNK N   1      23.304  14.834   7.573  0.00  0.00     0.046 C 
HETATM    4  C   UNK N   1      19.606  15.630   0.437  0.00  0.00     0.017 C 
HETATM    5  C   UNK N   1      22.495  16.120   5.119  0.00  0.00     0.051 C 
HETATM    6  C   UNK N   1      22.477  14.776   4.238  0.00  0.00     0.114 A 
HETATM    7  C   UNK N   1      21.027  13.455   8.511  0.00  0.00     0.031 C 
HETATM    8  C   UNK N   1      23.694  11.258   4.856  0.00  0.00     0.064 A 
HETATM    9  C   UNK N   1      22.020  14.228   1.625  0.00  0.00     0.060 C 
HETATM   10  C   UNK N   1      19.561  16.848   5.176  0.00  0.00     0.053 C 
HETATM   11  C   UNK N   1      22.864  11.469   8.272  0.00  0.00    -0.025 C 
HETATM   12  C   UNK N   1      23.976  11.290   2.481  0.00  0.00    -0.021 C 
HETATM   13  C   UNK N   1      21.903  15.209   7.320  0.00  0.00    -0.053 C 
HETATM   14  C   UNK N   1      20.430  16.270   1.501  0.00  0.00     0.043 C 
HETATM   15  C   UNK N   1      23.355  10.813   7.152  0.00  0.00    -0.021 C 
HETATM   16  C   UNK N   1      23.410  12.134   1.471  0.00  0.00     0.000 C 
HETATM   17  C   UNK N   1      21.558  15.990   6.245  0.00  0.00    -0.031 C 
HETATM   18  C   UNK N   1      19.929  17.209   2.388  0.00  0.00     0.048 C 
HETATM   19  C   UNK N   1      21.869  12.389   7.827  0.00  0.00     0.062 C 
HETATM   20  C   UNK N   1      20.777  14.652   7.850  0.00  0.00     0.135 C 
HETATM   21  C   UNK N   1      23.604  11.796   3.697  0.00  0.00     0.066 A 
HETATM   22  C   UNK N   1      21.066  15.419   2.237  0.00  0.00     0.041 C 
HETATM   23  C   UNK N   1      22.929  11.523   6.116  0.00  0.00     0.066 A 
HETATM   24  C   UNK N   1      22.801  13.140   2.177  0.00  0.00     0.070 C 
HETATM   25  C   UNK N   1      20.211  16.130   6.228  0.00  0.00     0.035 C 
HETATM   26  C   UNK N   1      19.922  16.649   3.708  0.00  0.00     0.041 C 
HETATM   27  C   UNK N   1      20.664  13.341   3.649  0.00  0.00     0.139 A 
HETATM   28 Fe   UNK N   1      21.287  13.896   5.328  0.00  0.00     0.000 Fe
HETATM   29  N   UNK N   1      21.988  12.450   6.504  0.00  0.00    -0.248 N 
HETATM   30  N   UNK N   1      22.854  12.771   3.525  0.00  0.00    -0.248 N 
HETATM   31  N   UNK N   1      19.949  14.891   6.783  0.00  0.00    -0.197 NA
HETATM   32  N   UNK N   1      20.577  15.600   3.568  0.00  0.00    -0.257 N 
HETATM   33  O   UNK N   1      20.729  12.106   3.644  0.00  0.00    -0.650 OA
ENDROOT
BRANCH  18  34
HETATM   34  C   UNK N   1      20.873  18.348   2.184  0.00  0.00     0.022 C 
BRANCH  34  35
HETATM   35  C   UNK N   1      20.358  19.627   2.630  0.00  0.00     0.110 C 
BRANCH  35  36
HETATM   36  C   UNK N   1      21.222  20.616   1.978  0.00  0.00     0.139 C 
HETATM   37  O   UNK N   1      21.438  20.562   0.772  0.00  0.00    -0.650 OA
BRANCH  36  38
HETATM   38  O   UNK N   1      21.585  21.687   2.687  0.00  0.00    -0.776 OA
HETATM   39  H   UNK N   1      22.272  21.923   3.281  0.00  0.00     0.167 HD
ENDBRANCH  36  38
ENDBRANCH  35  36
ENDBRANCH  34  35
ENDBRANCH  18  34
BRANCH  27  40
HETATM   40  O   UNK N   1      19.450  13.722   3.124  0.00  0.00    -0.776 OA
HETATM   41  H   UNK N   1      19.054  14.536   2.881  0.00  0.00     0.167 HD
ENDBRANCH  27  40
BRANCH  16  42
HETATM   42  C   UNK N   1      23.104  12.013  -0.005  0.00  0.00     0.004 C 
HETATM   43  C   UNK N   1      23.313  11.022  -0.890  0.00  0.00     0.012 C 
ENDBRANCH  16  42
BRANCH  15  44
HETATM   44  C   UNK N   1      24.412   9.761   6.923  0.00  0.00     0.037 C 
HETATM   45  C   UNK N   1      23.915   8.394   7.188  0.00  0.00     0.010 C 
ENDBRANCH  15  44
TORSDOF 7
ENDMDL
MODEL 5
REMARK VINA RESULT:      -8.1     15.772     18.862
REMARK  7 active torsions:
REMARK  status: ('A' for Active; 'I' for Inactive)
REMARK    1  A    between atoms: C_21  and  C_7 
REMARK    2  A    between atoms: C_22  and  C_8 
REMARK    3  A    between atoms: C_12  and  C_10 
REMARK    4  A    between atoms: C_24  and  C_10 
REMARK    5  A    between atoms: C_34  and  C_12 
REMARK    6  A    between atoms: O_40  and  C_33 
REMARK    7  A    between atoms: O_42  and  C_34 
ROOT
HETATM    1  C   UNK N   1      35.846   4.585  12.819  0.00  0.00     0.051 C 
HETATM    2  C   UNK N   1      35.069   8.902  18.788  0.00  0.00     0.052 C 
HETATM    3  C   UNK N   1      34.625   8.123  11.593  0.00  0.00     0.046 C 
HETATM    4  C   UNK N   1      37.113  15.156  14.687  0.00  0.00     0.017 C 
HETATM    5  C   UNK N   1      34.658  10.974  12.043  0.00  0.00     0.051 C 
HETATM    6  C   UNK N   1      35.131  10.884  13.576  0.00  0.00     0.114 A 
HETATM    7  C   UNK N   1      37.329   7.337  11.410  0.00  0.00     0.031 C 
HETATM    8  C   UNK N   1      35.449   8.028  16.023  0.00  0.00     0.064 A 
HETATM    9  C   UNK N   1      35.550  12.700  15.541  0.00  0.00     0.060 C 
HETATM   10  C   UNK N   1      37.064  12.263  10.741  0.00  0.00     0.053 C 
HETATM   11  C   UNK N   1      36.408   5.812  13.459  0.00  0.00    -0.025 C 
HETATM   12  C   UNK N   1      34.984   9.764  17.603  0.00  0.00    -0.021 C 
HETATM   13  C   UNK N   1      35.739   8.967  11.132  0.00  0.00    -0.053 C 
HETATM   14  C   UNK N   1      36.194  14.455  13.747  0.00  0.00     0.043 C 
HETATM   15  C   UNK N   1      36.124   6.136  14.779  0.00  0.00    -0.021 C 
HETATM   16  C   UNK N   1      35.087  11.190  17.502  0.00  0.00     0.000 C 
HETATM   17  C   UNK N   1      35.660  10.337  11.174  0.00  0.00    -0.031 C 
HETATM   18  C   UNK N   1      36.357  14.472  12.371  0.00  0.00     0.048 C 
HETATM   19  C   UNK N   1      36.921   6.986  12.832  0.00  0.00     0.062 C 
HETATM   20  C   UNK N   1      37.033   8.599  10.908  0.00  0.00     0.135 C 
HETATM   21  C   UNK N   1      35.225   9.245  16.360  0.00  0.00     0.066 A 
HETATM   22  C   UNK N   1      36.006  13.212  14.046  0.00  0.00     0.041 C 
HETATM   23  C   UNK N   1      36.150   7.461  14.827  0.00  0.00     0.066 A 
HETATM   24  C   UNK N   1      35.308  11.416  16.167  0.00  0.00     0.070 C 
HETATM   25  C   UNK N   1      36.837  10.851  10.745  0.00  0.00     0.035 C 
HETATM   26  C   UNK N   1      36.691  13.152  11.922  0.00  0.00     0.041 C 
HETATM   27  C   UNK N   1      37.307  11.081  14.534  0.00  0.00     0.139 A 
HETATM   28 Fe   UNK N   1      36.656   9.926  13.209  0.00  0.00     0.000 Fe
HETATM   29  N   UNK N   1      36.679   7.989  13.671  0.00  0.00    -0.248 N 
HETATM   30  N   UNK N   1      35.516  10.165  15.578  0.00  0.00    -0.248 N 
HETATM   31  N   UNK N   1      37.609   9.805  11.215  0.00  0.00    -0.197 NA
HETATM   32  N   UNK N   1      36.492  12.456  12.935  0.00  0.00    -0.257 N 
HETATM   33  O   UNK N   1      37.733  10.360  15.446  0.00  0.00    -0.650 OA
ENDROOT
BRANCH  18  34
HETATM   34  C   UNK N   1      35.027  14.981  11.918  0.00  0.00     0.022 C 
BRANCH  34  35
HETATM   35  C   UNK N   1      34.928  15.175  10.485  0.00  0.00     0.110 C 
BRANCH  35  36
HETATM   36  C   UNK N   1      34.921  16.631  10.314  0.00  0.00     0.139 C 
HETATM   37  O   UNK N   1      35.925  17.295  10.548  0.00  0.00    -0.650 OA
BRANCH  36  38
HETATM   38  O   UNK N   1      33.872  17.179   9.696  0.00  0.00    -0.776 OA
HETATM   39  H   UNK N   1      32.980  16.952   9.516  0.00  0.00     0.167 HD
ENDBRANCH  36  38
ENDBRANCH  35  36
ENDBRANCH  34  35
ENDBRANCH  18  34
BRANCH  27  40
HETATM   40  O   UNK N   1      38.226  12.076  14.292  0.00  0.00    -0.776 OA
HETATM   41  H   UNK N   1      38.242  13.008  14.393  0.00  0.00     0.167 HD
ENDBRANCH  27  40
BRANCH  16  42
HETATM   42  C   UNK N   1      35.295  12.338  18.464  0.00  0.00     0.004 C 
HETATM   43  C   UNK N   1      35.069  12.459  19.784  0.00  0.00     0.012 C 
ENDBRANCH  16  42
BRANCH  15  44
HETATM   44  C   UNK N   1      35.550   5.380  15.952  0.00  0.00     0.037 C 
HETATM   45  C   UNK N   1      36.549   4.504  16.601  0.00  0.00     0.010 C 
ENDBRANCH  15  44
TORSDOF 7
ENDMDL
MODEL 6
REMARK VINA RESULT:      -8.0     13.969     16.622
REMARK  7 active torsions:
REMARK  status: ('A' for Active; 'I' for Inactive)
REMARK    1  A    between atoms: C_21  and  C_7 
REMARK    2  A    between atoms: C_22  and  C_8 
REMARK    3  A    between atoms: C_12  and  C_10 
REMARK    4  A    between atoms: C_24  and  C_10 
REMARK    5  A    between atoms: C_34  and  C_12 
REMARK    6  A    between atoms: O_40  and  C_33 
REMARK    7  A    between atoms: O_42  and  C_34 
ROOT
HETATM    1  C   UNK N   1      27.172  24.410  -3.313  0.00  0.00     0.051 C 
HETATM    2  C   UNK N   1      27.099  21.095  -9.936  0.00  0.00     0.052 C 
HETATM    3  C   UNK N   1      29.741  21.429  -3.193  0.00  0.00     0.046 C 
HETATM    4  C   UNK N   1      34.620  19.334  -9.279  0.00  0.00     0.017 C 
HETATM    5  C   UNK N   1      31.625  19.809  -4.662  0.00  0.00     0.051 C 
HETATM    6  C   UNK N   1      31.060  20.194  -6.117  0.00  0.00     0.114 A 
HETATM    7  C   UNK N   1      30.578  24.101  -3.545  0.00  0.00     0.031 C 
HETATM    8  C   UNK N   1      27.964  22.003  -7.295  0.00  0.00     0.064 A 
HETATM    9  C   UNK N   1      31.655  19.429  -8.646  0.00  0.00     0.060 C 
HETATM   10  C   UNK N   1      34.364  21.088  -4.718  0.00  0.00     0.053 C 
HETATM   11  C   UNK N   1      28.037  24.146  -4.502  0.00  0.00    -0.025 C 
HETATM   12  C   UNK N   1      28.251  20.573  -9.192  0.00  0.00    -0.021 C 
HETATM   13  C   UNK N   1      31.123  21.874  -3.436  0.00  0.00    -0.053 C 
HETATM   14  C   UNK N   1      34.107  19.016  -7.917  0.00  0.00     0.043 C 
HETATM   15  C   UNK N   1      27.506  23.682  -5.697  0.00  0.00    -0.021 C 
HETATM   16  C   UNK N   1      29.391  19.846  -9.667  0.00  0.00     0.000 C 
HETATM   17  C   UNK N   1      32.065  21.024  -3.961  0.00  0.00    -0.031 C 
HETATM   18  C   UNK N   1      34.855  19.187  -6.763  0.00  0.00     0.048 C 
HETATM   19  C   UNK N   1      29.444  23.917  -4.542  0.00  0.00     0.062 C 
HETATM   20  C   UNK N   1      31.594  23.153  -3.488  0.00  0.00     0.135 C 
HETATM   21  C   UNK N   1      28.582  21.112  -7.978  0.00  0.00     0.066 A 
HETATM   22  C   UNK N   1      32.964  19.563  -7.660  0.00  0.00     0.041 C 
HETATM   23  C   UNK N   1      28.463  22.944  -6.242  0.00  0.00     0.066 A 
HETATM   24  C   UNK N   1      30.301  19.943  -8.644  0.00  0.00     0.070 C 
HETATM   25  C   UNK N   1      33.220  21.710  -4.126  0.00  0.00     0.035 C 
HETATM   26  C   UNK N   1      34.268  20.233  -5.976  0.00  0.00     0.041 C 
HETATM   27  C   UNK N   1      31.812  21.831  -7.681  0.00  0.00     0.139 A 
HETATM   28 Fe   UNK N   1      31.282  22.005  -5.892  0.00  0.00     0.000 Fe
HETATM   29  N   UNK N   1      29.658  23.116  -5.581  0.00  0.00    -0.248 N 
HETATM   30  N   UNK N   1      29.769  20.850  -7.722  0.00  0.00    -0.248 N 
HETATM   31  N   UNK N   1      32.610  22.925  -4.379  0.00  0.00    -0.197 NA
HETATM   32  N   UNK N   1      33.180  20.433  -6.547  0.00  0.00    -0.257 N 
HETATM   33  O   UNK N   1      31.060  22.560  -8.339  0.00  0.00    -0.650 OA
ENDROOT
BRANCH  18  34
HETATM   34  C   UNK N   1      34.791  17.822  -6.159  0.00  0.00     0.022 C 
BRANCH  34  35
HETATM   35  C   UNK N   1      35.568  17.680  -4.944  0.00  0.00     0.110 C 
BRANCH  35  36
HETATM   36  C   UNK N   1      34.707  16.898  -4.051  0.00  0.00     0.139 C 
HETATM   37  O   UNK N   1      34.935  15.712  -3.840  0.00  0.00    -0.650 OA
BRANCH  36  38
HETATM   38  O   UNK N   1      33.813  17.561  -3.314  0.00  0.00    -0.776 OA
HETATM   39  H   UNK N   1      33.105  18.159  -3.459  0.00  0.00     0.167 HD
ENDBRANCH  36  38
ENDBRANCH  35  36
ENDBRANCH  34  35
ENDBRANCH  18  34
BRANCH  27  40
HETATM   40  O   UNK N   1      33.104  22.022  -8.114  0.00  0.00    -0.776 OA
HETATM   41  H   UNK N   1      33.752  22.691  -8.007  0.00  0.00     0.167 HD
ENDBRANCH  27  40
BRANCH  16  42
HETATM   42  C   UNK N   1      29.873  19.325 -11.002  0.00  0.00     0.004 C 
HETATM   43  C   UNK N   1      29.688  18.150 -11.631  0.00  0.00     0.012 C 
ENDBRANCH  16  42
BRANCH  15  44
HETATM   44  C   UNK N   1      26.114  23.603  -6.274  0.00  0.00     0.037 C 
HETATM   45  C   UNK N   1      25.658  24.897  -6.827  0.00  0.00     0.010 C 
ENDBRANCH  15  44
TORSDOF 7
ENDMDL
MODEL 7
REMARK VINA RESULT:      -8.0      6.684      9.858
REMARK  7 active torsions:
REMARK  status: ('A' for Active; 'I' for Inactive)
REMARK    1  A    between atoms: C_21  and  C_7 
REMARK    2  A    between atoms: C_22  and  C_8 
REMARK    3  A    between atoms: C_12  and  C_10 
REMARK    4  A    between atoms: C_24  and  C_10 
REMARK    5  A    between atoms: C_34  and  C_12 
REMARK    6  A    between atoms: O_40  and  C_33 
REMARK    7  A    between atoms: O_42  and  C_34 
ROOT
HETATM    1  C   UNK N   1      32.589  10.845   3.141  0.00  0.00     0.051 C 
HETATM    2  C   UNK N   1      32.864  16.111   8.343  0.00  0.00     0.052 C 
HETATM    3  C   UNK N   1      28.896  11.991   3.887  0.00  0.00     0.046 C 
HETATM    4  C   UNK N   1      26.660  19.622   5.295  0.00  0.00     0.017 C 
HETATM    5  C   UNK N   1      27.154  14.158   4.662  0.00  0.00     0.051 C 
HETATM    6  C   UNK N   1      28.317  15.076   5.286  0.00  0.00     0.114 A 
HETATM    7  C   UNK N   1      30.308  12.905   1.621  0.00  0.00     0.031 C 
HETATM    8  C   UNK N   1      31.944  14.450   6.119  0.00  0.00     0.064 A 
HETATM    9  C   UNK N   1      28.367  17.462   6.568  0.00  0.00     0.060 C 
HETATM   10  C   UNK N   1      26.307  15.795   2.266  0.00  0.00     0.053 C 
HETATM   11  C   UNK N   1      32.306  12.296   3.357  0.00  0.00    -0.025 C 
HETATM   12  C   UNK N   1      31.502  16.099   7.795  0.00  0.00    -0.021 C 
HETATM   13  C   UNK N   1      28.414  12.983   2.913  0.00  0.00    -0.053 C 
HETATM   14  C   UNK N   1      26.261  18.188   5.244  0.00  0.00     0.043 C 
HETATM   15  C   UNK N   1      32.775  12.968   4.477  0.00  0.00    -0.021 C 
HETATM   16  C   UNK N   1      30.465  17.081   7.908  0.00  0.00     0.000 C 
HETATM   17  C   UNK N   1      27.437  13.890   3.244  0.00  0.00    -0.031 C 
HETATM   18  C   UNK N   1      25.472  17.654   4.238  0.00  0.00     0.048 C 
HETATM   19  C   UNK N   1      31.274  13.094   2.780  0.00  0.00     0.062 C 
HETATM   20  C   UNK N   1      29.001  13.363   1.743  0.00  0.00     0.135 C 
HETATM   21  C   UNK N   1      31.204  15.306   6.720  0.00  0.00     0.066 A 
HETATM   22  C   UNK N   1      27.259  17.375   5.355  0.00  0.00     0.041 C 
HETATM   23  C   UNK N   1      31.872  13.906   4.725  0.00  0.00     0.066 A 
HETATM   24  C   UNK N   1      29.572  16.741   6.922  0.00  0.00     0.070 C 
HETATM   25  C   UNK N   1      27.231  14.708   2.185  0.00  0.00     0.035 C 
HETATM   26  C   UNK N   1      26.258  16.737   3.464  0.00  0.00     0.041 C 
HETATM   27  C   UNK N   1      29.534  16.889   4.324  0.00  0.00     0.139 A 
HETATM   28 Fe   UNK N   1      29.318  15.119   3.745  0.00  0.00     0.000 Fe
HETATM   29  N   UNK N   1      30.984  14.029   3.681  0.00  0.00    -0.248 N 
HETATM   30  N   UNK N   1      30.179  15.734   6.165  0.00  0.00    -0.248 N 
HETATM   31  N   UNK N   1      28.536  14.652   1.728  0.00  0.00    -0.197 NA
HETATM   32  N   UNK N   1      27.296  16.621   4.142  0.00  0.00    -0.257 N 
HETATM   33  O   UNK N   1      30.750  17.063   4.468  0.00  0.00    -0.650 OA
ENDROOT
BRANCH  18  34
HETATM   34  C   UNK N   1      24.362  17.036   5.024  0.00  0.00     0.022 C 
BRANCH  34  35
HETATM   35  C   UNK N   1      23.052  17.576   4.718  0.00  0.00     0.110 C 
BRANCH  35  36
HETATM   36  C   UNK N   1      22.285  17.394   5.954  0.00  0.00     0.139 C 
HETATM   37  O   UNK N   1      22.324  16.332   6.565  0.00  0.00    -0.650 OA
BRANCH  36  38
HETATM   38  O   UNK N   1      21.726  18.475   6.503  0.00  0.00    -0.776 OA
HETATM   39  H   UNK N   1      21.123  18.665   7.196  0.00  0.00     0.167 HD
ENDBRANCH  36  38
ENDBRANCH  35  36
ENDBRANCH  34  35
ENDBRANCH  18  34
BRANCH  27  40
HETATM   40  O   UNK N   1      29.007  17.975   3.664  0.00  0.00    -0.776 OA
HETATM   41  H   UNK N   1      28.917  18.232   2.767  0.00  0.00     0.167 HD
ENDBRANCH  27  40
BRANCH  16  42
HETATM   42  C   UNK N   1      30.305  18.426   8.580  0.00  0.00     0.004 C 
HETATM   43  C   UNK N   1      29.729  18.792   9.739  0.00  0.00     0.012 C 
ENDBRANCH  16  42
BRANCH  15  44
HETATM   44  C   UNK N   1      33.819  12.672   5.526  0.00  0.00     0.037 C 
HETATM   45  C   UNK N   1      35.195  12.772   4.995  0.00  0.00     0.010 C 
ENDBRANCH  15  44
TORSDOF 7
ENDMDL
MODEL 8
REMARK VINA RESULT:      -8.0     12.809     16.121
REMARK  7 active torsions:
REMARK  status: ('A' for Active; 'I' for Inactive)
REMARK    1  A    between atoms: C_21  and  C_7 
REMARK    2  A    between atoms: C_22  and  C_8 
REMARK    3  A    between atoms: C_12  and  C_10 
REMARK    4  A    between atoms: C_24  and  C_10 
REMARK    5  A    between atoms: C_34  and  C_12 
REMARK    6  A    between atoms: O_40  and  C_33 
REMARK    7  A    between atoms: O_42  and  C_34 
ROOT
HETATM    1  C   UNK N   1      32.151  17.555   4.465  0.00  0.00     0.051 C 
HETATM    2  C   UNK N   1      35.016  10.726   4.355  0.00  0.00     0.052 C 
HETATM    3  C   UNK N   1      32.165  16.199   8.162  0.00  0.00     0.046 C 
HETATM    4  C   UNK N   1      38.093  11.767  11.395  0.00  0.00     0.017 C 
HETATM    5  C   UNK N   1      33.485  14.530  10.112  0.00  0.00     0.051 C 
HETATM    6  C   UNK N   1      34.316  13.666   9.041  0.00  0.00     0.114 A 
HETATM    7  C   UNK N   1      34.127  18.001   7.231  0.00  0.00     0.031 C 
HETATM    8  C   UNK N   1      34.164  13.365   5.282  0.00  0.00     0.064 A 
HETATM    9  C   UNK N   1      36.002  11.553   9.207  0.00  0.00     0.060 C 
HETATM   10  C   UNK N   1      35.697  16.032  11.525  0.00  0.00     0.053 C 
HETATM   11  C   UNK N   1      33.326  16.769   4.948  0.00  0.00    -0.025 C 
HETATM   12  C   UNK N   1      34.938  11.152   5.758  0.00  0.00    -0.021 C 
HETATM   13  C   UNK N   1      33.333  16.672   8.924  0.00  0.00    -0.053 C 
HETATM   14  C   UNK N   1      36.734  12.355  11.560  0.00  0.00     0.043 C 
HETATM   15  C   UNK N   1      33.607  15.505   4.449  0.00  0.00    -0.021 C 
HETATM   16  C   UNK N   1      35.576  10.599   6.916  0.00  0.00     0.000 C 
HETATM   17  C   UNK N   1      33.833  15.953   9.981  0.00  0.00    -0.031 C 
HETATM   18  C   UNK N   1      36.470  13.441  12.379  0.00  0.00     0.048 C 
HETATM   19  C   UNK N   1      34.058  16.922   6.162  0.00  0.00     0.062 C 
HETATM   20  C   UNK N   1      34.233  17.631   8.567  0.00  0.00     0.135 C 
HETATM   21  C   UNK N   1      34.564  12.432   6.065  0.00  0.00     0.066 A 
HETATM   22  C   UNK N   1      36.157  12.633  10.438  0.00  0.00     0.041 C 
HETATM   23  C   UNK N   1      34.181  14.853   5.450  0.00  0.00     0.066 A 
HETATM   24  C   UNK N   1      35.459  11.584   7.865  0.00  0.00     0.070 C 
HETATM   25  C   UNK N   1      34.929  16.590  10.456  0.00  0.00     0.035 C 
HETATM   26  C   UNK N   1      36.089  14.559  11.566  0.00  0.00     0.041 C 
HETATM   27  C   UNK N   1      36.562  13.906   8.272  0.00  0.00     0.139 A 
HETATM   28 Fe   UNK N   1      35.134  15.122   8.274  0.00  0.00     0.000 Fe
HETATM   29  N   UNK N   1      34.506  15.710   6.477  0.00  0.00    -0.248 N 
HETATM   30  N   UNK N   1      34.955  12.712   7.210  0.00  0.00    -0.248 N 
HETATM   31  N   UNK N   1      35.312  17.109   9.232  0.00  0.00    -0.197 NA
HETATM   32  N   UNK N   1      35.938  14.046  10.442  0.00  0.00    -0.257 N 
HETATM   33  O   UNK N   1      36.909  13.779   7.092  0.00  0.00    -0.650 OA
ENDROOT
BRANCH  18  34
HETATM   34  C   UNK N   1      35.393  12.898  13.260  0.00  0.00     0.022 C 
BRANCH  34  35
HETATM   35  C   UNK N   1      35.404  13.438  14.605  0.00  0.00     0.110 C 
BRANCH  35  36
HETATM   36  C   UNK N   1      36.731  13.092  15.125  0.00  0.00     0.139 C 
HETATM   37  O   UNK N   1      37.133  11.933  15.098  0.00  0.00    -0.650 OA
BRANCH  36  38
HETATM   38  O   UNK N   1      37.562  14.093  15.422  0.00  0.00    -0.776 OA
HETATM   39  H   UNK N   1      38.366  14.445  15.092  0.00  0.00     0.167 HD
ENDBRANCH  36  38
ENDBRANCH  35  36
ENDBRANCH  34  35
ENDBRANCH  18  34
BRANCH  27  40
HETATM   40  O   UNK N   1      37.687  14.053   9.051  0.00  0.00    -0.776 OA
HETATM   41  H   UNK N   1      38.597  14.201   8.887  0.00  0.00     0.167 HD
ENDBRANCH  27  40
BRANCH  16  42
HETATM   42  C   UNK N   1      36.509   9.443   7.200  0.00  0.00     0.004 C 
HETATM   43  C   UNK N   1      37.686   9.083   6.661  0.00  0.00     0.012 C 
ENDBRANCH  16  42
BRANCH  15  44
HETATM   44  C   UNK N   1      33.155  14.721   3.241  0.00  0.00     0.037 C 
HETATM   45  C   UNK N   1      34.187  14.672   2.183  0.00  0.00     0.010 C 
ENDBRANCH  15  44
TORSDOF 7
ENDMDL
MODEL 9
REMARK VINA RESULT:      -8.0      5.811      8.387
REMARK  7 active torsions:
REMARK  status: ('A' for Active; 'I' for Inactive)
REMARK    1  A    between atoms: C_21  and  C_7 
REMARK    2  A    between atoms: C_22  and  C_8 
REMARK    3  A    between atoms: C_12  and  C_10 
REMARK    4  A    between atoms: C_24  and  C_10 
REMARK    5  A    between atoms: C_34  and  C_12 
REMARK    6  A    between atoms: O_40  and  C_33 
REMARK    7  A    between atoms: O_42  and  C_34 
ROOT
HETATM    1  C   UNK N   1      22.079  14.080   2.366  0.00  0.00     0.051 C 
HETATM    2  C   UNK N   1      28.745  11.024   1.320  0.00  0.00     0.052 C 
HETATM    3  C   UNK N   1      24.334  15.029   5.452  0.00  0.00     0.046 C 
HETATM    4  C   UNK N   1      32.169  16.932   4.993  0.00  0.00     0.017 C 
HETATM    5  C   UNK N   1      26.995  15.611   6.405  0.00  0.00     0.051 C 
HETATM    6  C   UNK N   1      27.757  14.953   5.152  0.00  0.00     0.114 A 
HETATM    7  C   UNK N   1      23.849  16.847   3.349  0.00  0.00     0.031 C 
HETATM    8  C   UNK N   1      26.618  12.788   2.278  0.00  0.00     0.064 A 
HETATM    9  C   UNK N   1      30.357  14.547   4.513  0.00  0.00     0.060 C 
HETATM   10  C   UNK N   1      27.671  18.538   6.055  0.00  0.00     0.053 C 
HETATM   11  C   UNK N   1      23.511  14.440   2.139  0.00  0.00    -0.025 C 
HETATM   12  C   UNK N   1      28.860  11.969   2.438  0.00  0.00    -0.021 C 
HETATM   13  C   UNK N   1      24.930  16.368   5.315  0.00  0.00    -0.053 C 
HETATM   14  C   UNK N   1      30.994  16.662   5.867  0.00  0.00     0.043 C 
HETATM   15  C   UNK N   1      24.437  13.498   1.712  0.00  0.00    -0.021 C 
HETATM   16  C   UNK N   1      30.033  12.528   3.043  0.00  0.00     0.000 C 
HETATM   17  C   UNK N   1      26.110  16.690   5.939  0.00  0.00    -0.031 C 
HETATM   18  C   UNK N   1      30.317  17.654   6.559  0.00  0.00     0.048 C 
HETATM   19  C   UNK N   1      24.240  15.552   2.656  0.00  0.00     0.062 C 
HETATM   20  C   UNK N   1      24.635  17.326   4.391  0.00  0.00     0.135 C 
HETATM   21  C   UNK N   1      27.804  12.774   2.766  0.00  0.00     0.066 A 
HETATM   22  C   UNK N   1      30.070  15.970   5.285  0.00  0.00     0.041 C 
HETATM   23  C   UNK N   1      25.592  13.878   2.240  0.00  0.00     0.066 A 
HETATM   24  C   UNK N   1      29.562  13.598   3.762  0.00  0.00     0.070 C 
HETATM   25  C   UNK N   1      26.448  17.955   5.597  0.00  0.00     0.035 C 
HETATM   26  C   UNK N   1      28.997  17.787   6.014  0.00  0.00     0.041 C 
HETATM   27  C   UNK N   1      28.642  15.962   3.179  0.00  0.00     0.139 A 
HETATM   28 Fe   UNK N   1      26.910  15.993   3.896  0.00  0.00     0.000 Fe
HETATM   29  N   UNK N   1      25.501  15.144   2.772  0.00  0.00    -0.248 N 
HETATM   30  N   UNK N   1      28.215  13.748   3.416  0.00  0.00    -0.248 N 
HETATM   31  N   UNK N   1      25.879  17.901   4.338  0.00  0.00    -0.197 NA
HETATM   32  N   UNK N   1      28.905  16.798   5.264  0.00  0.00    -0.257 N 
HETATM   33  O   UNK N   1      28.541  15.477   2.046  0.00  0.00    -0.650 OA
ENDROOT
BRANCH  18  34
HETATM   34  C   UNK N   1      30.381  17.139   7.960  0.00  0.00     0.022 C 
BRANCH  34  35
HETATM   35  C   UNK N   1      29.964  18.103   8.960  0.00  0.00     0.110 C 
BRANCH  35  36
HETATM   36  C   UNK N   1      28.835  17.459   9.638  0.00  0.00     0.139 C 
HETATM   37  O   UNK N   1      29.025  16.630  10.521  0.00  0.00    -0.650 OA
BRANCH  36  38
HETATM   38  O   UNK N   1      27.615  17.956   9.422  0.00  0.00    -0.776 OA
HETATM   39  H   UNK N   1      27.223  18.612   8.880  0.00  0.00     0.167 HD
ENDBRANCH  36  38
ENDBRANCH  35  36
ENDBRANCH  34  35
ENDBRANCH  18  34
BRANCH  27  40
HETATM   40  O   UNK N   1      29.460  17.067   3.117  0.00  0.00    -0.776 OA
HETATM   41  H   UNK N   1      30.063  17.416   2.490  0.00  0.00     0.167 HD
ENDBRANCH  27  40
BRANCH  16  42
HETATM   42  C   UNK N   1      31.527  12.407   2.841  0.00  0.00     0.004 C 
HETATM   43  C   UNK N   1      32.286  12.373   1.732  0.00  0.00     0.012 C 
ENDBRANCH  16  42
BRANCH  15  44
HETATM   44  C   UNK N   1      24.338  12.121   1.102  0.00  0.00     0.037 C 
HETATM   45  C   UNK N   1      23.656  12.133  -0.210  0.00  0.00     0.010 C 
ENDBRANCH  15  44
TORSDOF 7
ENDMDL
