REMARK WARNING: 32 MAX_TORS EXCEEDED!!!
REMARK  263 active torsions:
REMARK  status: ('A' for Active; 'I' for Inactive)
REMARK    1  A    between atoms: C_192  and  O_1 
REMARK    2  A    between atoms: O_1  and  C_248 
REMARK    3  A    between atoms: C_193  and  O_2 
REMARK    4  A    between atoms: O_2  and  C_250 
REMARK    5  A    between atoms: C_194  and  O_3 
REMARK    6  A    between atoms: O_3  and  C_249 
REMARK    7  A    between atoms: C_195  and  O_4 
REMARK    8  A    between atoms: O_4  and  C_252 
REMARK    9  A    between atoms: C_196  and  O_5 
REMARK   10  A    between atoms: O_5  and  C_251 
REMARK   11  A    between atoms: C_197  and  O_6 
REMARK   12  A    between atoms: O_6  and  C_254 
REMARK   13  A    between atoms: C_198  and  O_7 
REMARK   14  A    between atoms: O_7  and  C_253 
REMARK   15  A    between atoms: C_200  and  O_8 
REMARK   16  A    between atoms: O_8  and  C_255 
REMARK   17  A    between atoms: C_199  and  O_9 
REMARK   18  A    between atoms: O_9  and  C_256 
REMARK   19  A    between atoms: C_202  and  O_10 
REMARK   20  A    between atoms: O_10  and  C_257 
REMARK   21  A    between atoms: C_201  and  O_11 
REMARK   22  A    between atoms: O_11  and  C_258 
REMARK   23  A    between atoms: C_204  and  O_12 
REMARK   24  A    between atoms: O_12  and  C_259 
REMARK   25  A    between atoms: C_203  and  O_13 
REMARK   26  A    between atoms: O_13  and  C_260 
REMARK   27  A    between atoms: C_206  and  O_14 
REMARK   28  A    between atoms: O_14  and  C_261 
REMARK   29  A    between atoms: C_205  and  O_15 
REMARK   30  A    between atoms: O_15  and  C_262 
REMARK   31  A    between atoms: C_207  and  O_16 
REMARK   32  A    between atoms: O_16  and  C_264 
REMARK   33  A    between atoms: C_208  and  O_17 
REMARK   34  A    between atoms: O_17  and  C_263 
REMARK   35  A    between atoms: C_209  and  O_18 
REMARK   36  A    between atoms: O_18  and  C_274 
REMARK   37  A    between atoms: C_210  and  O_19 
REMARK   38  A    between atoms: O_19  and  C_265 
REMARK   39  A    between atoms: C_211  and  O_20 
REMARK   40  A    between atoms: O_20  and  C_286 
REMARK   41  A    between atoms: C_212  and  O_28 
REMARK   42  A    between atoms: O_28  and  C_280 
REMARK   43  A    between atoms: C_213  and  O_40 
REMARK   44  A    between atoms: O_40  and  C_291 
REMARK   45  A    between atoms: C_214  and  O_42 
REMARK   46  A    between atoms: O_42  and  C_289 
REMARK   47  A    between atoms: C_215  and  O_46 
REMARK   48  A    between atoms: O_46  and  C_316 
REMARK   49  A    between atoms: C_216  and  O_47 
REMARK   50  A    between atoms: O_47  and  C_297 
REMARK   51  A    between atoms: C_217  and  O_50 
REMARK   52  A    between atoms: O_50  and  C_328 
REMARK   53  A    between atoms: C_218  and  O_53 
REMARK   54  A    between atoms: O_53  and  C_321 
REMARK   55  A    between atoms: C_219  and  O_56 
REMARK   56  A    between atoms: O_56  and  C_338 
REMARK   57  A    between atoms: C_244  and  O_57 
REMARK   58  A    between atoms: O_57  and  C_335 
REMARK   59  A    between atoms: C_245  and  O_60 
REMARK   60  A    between atoms: O_60  and  C_348 
REMARK   61  A    between atoms: C_324  and  O_61 
REMARK   62  A    between atoms: O_61  and  C_341 
REMARK   63  A    between atoms: C_325  and  O_64 
REMARK   64  A    between atoms: O_64  and  C_356 
REMARK   65  A    between atoms: C_346  and  O_65 
REMARK   66  A    between atoms: O_65  and  C_351 
REMARK   67  A    between atoms: C_220  and  O_66 
REMARK   68  A    between atoms: C_221  and  O_67 
REMARK   69  A    between atoms: C_222  and  O_68 
REMARK   70  A    between atoms: C_223  and  O_69 
REMARK   71  A    between atoms: C_224  and  O_70 
REMARK   72  A    between atoms: C_225  and  O_71 
REMARK   73  A    between atoms: C_226  and  O_72 
REMARK   74  A    between atoms: C_227  and  O_73 
REMARK   75  A    between atoms: C_228  and  O_74 
REMARK   76  A    between atoms: C_229  and  O_75 
REMARK   77  A    between atoms: C_230  and  O_76 
REMARK   78  A    between atoms: C_231  and  O_77 
REMARK   79  A    between atoms: C_232  and  O_78 
REMARK   80  A    between atoms: C_233  and  O_79 
REMARK   81  A    between atoms: C_234  and  O_80 
REMARK   82  A    between atoms: C_235  and  O_81 
REMARK   83  A    between atoms: C_236  and  O_82 
REMARK   84  A    between atoms: C_237  and  O_83 
REMARK   85  A    between atoms: C_238  and  O_84 
REMARK   86  A    between atoms: C_239  and  O_85 
REMARK   87  A    between atoms: C_240  and  O_88 
REMARK   88  A    between atoms: C_241  and  O_89 
REMARK   89  A    between atoms: C_242  and  O_90 
REMARK   90  A    between atoms: C_243  and  O_91 
REMARK   91  A    between atoms: C_246  and  O_92 
REMARK   92  A    between atoms: C_247  and  O_93 
REMARK   93  A    between atoms: C_347  and  O_94 
REMARK   94  A    between atoms: O_94  and  C_393 
REMARK   95  A    between atoms: C_266  and  O_95 
REMARK   96  A    between atoms: C_267  and  O_96 
REMARK   97  A    between atoms: C_268  and  O_97 
REMARK   98  A    between atoms: C_269  and  O_98 
REMARK   99  A    between atoms: C_270  and  O_99 
REMARK  100  A    between atoms: C_271  and  O_100 
REMARK  101  A    between atoms: C_273  and  O_102 
REMARK  102  A    between atoms: C_275  and  O_103 
REMARK  103  A    between atoms: C_276  and  O_104 
REMARK  104  A    between atoms: C_277  and  O_105 
REMARK  105  A    between atoms: C_278  and  O_106 
REMARK  106  A    between atoms: C_279  and  O_107 
REMARK  107  A    between atoms: C_281  and  O_108 
REMARK  108  A    between atoms: C_282  and  O_109 
REMARK  109  A    between atoms: C_283  and  O_110 
REMARK  110  A    between atoms: C_284  and  O_111 
REMARK  111  A    between atoms: C_285  and  O_112 
REMARK  112  A    between atoms: C_287  and  O_113 
REMARK  113  A    between atoms: C_288  and  O_114 
REMARK  114  A    between atoms: C_290  and  O_115 
REMARK  115  A    between atoms: C_292  and  O_116 
REMARK  116  A    between atoms: C_293  and  O_117 
REMARK  117  A    between atoms: C_294  and  O_118 
REMARK  118  A    between atoms: C_310  and  O_119 
REMARK  119  A    between atoms: C_311  and  O_120 
REMARK  120  A    between atoms: C_322  and  O_121 
REMARK  121  A    between atoms: C_323  and  O_122 
REMARK  122  A    between atoms: C_385  and  O_123 
REMARK  123  A    between atoms: O_123  and  C_386 
REMARK  124  A    between atoms: C_329  and  O_124 
REMARK  125  A    between atoms: C_330  and  O_125 
REMARK  126  A    between atoms: C_333  and  O_126 
REMARK  127  A    between atoms: C_334  and  O_127 
REMARK  128  A    between atoms: C_339  and  O_128 
REMARK  129  A    between atoms: C_340  and  O_129 
REMARK  130  A    between atoms: C_342  and  O_132 
REMARK  131  A    between atoms: C_343  and  O_133 
REMARK  132  A    between atoms: C_349  and  O_134 
REMARK  133  A    between atoms: C_350  and  O_135 
REMARK  134  A    between atoms: C_387  and  O_136 
REMARK  135  A    between atoms: C_407  and  O_136 
REMARK  136  A    between atoms: C_354  and  O_137 
REMARK  137  A    between atoms: C_355  and  O_138 
REMARK  138  A    between atoms: O_139  and  C_357 
REMARK  139  A    between atoms: O_140  and  C_358 
REMARK  140  A    between atoms: O_141  and  C_359 
REMARK  141  A    between atoms: O_142  and  C_360 
REMARK  142  A    between atoms: O_143  and  C_361 
REMARK  143  A    between atoms: O_144  and  C_362 
REMARK  144  A    between atoms: O_145  and  C_363 
REMARK  145  A    between atoms: O_146  and  C_364 
REMARK  146  A    between atoms: O_147  and  C_365 
REMARK  147  A    between atoms: O_148  and  C_366 
REMARK  148  A    between atoms: O_149  and  C_367 
REMARK  149  A    between atoms: O_150  and  C_368 
REMARK  150  A    between atoms: C_370  and  O_151 
REMARK  151  A    between atoms: O_152  and  C_369 
REMARK  152  A    between atoms: O_153  and  C_371 
REMARK  153  A    between atoms: O_154  and  C_403 
REMARK  154  A    between atoms: C_406  and  O_154 
REMARK  155  A    between atoms: O_155  and  C_372 
REMARK  156  A    between atoms: O_156  and  C_373 
REMARK  157  A    between atoms: C_374  and  O_157 
REMARK  158  A    between atoms: O_159  and  C_376 
REMARK  159  A    between atoms: O_160  and  C_377 
REMARK  160  A    between atoms: O_161  and  C_378 
REMARK  161  A    between atoms: O_162  and  C_379 
REMARK  162  A    between atoms: O_163  and  C_380 
REMARK  163  A    between atoms: O_164  and  C_382 
REMARK  164  A    between atoms: O_165  and  C_383 
REMARK  165  A    between atoms: O_166  and  C_388 
REMARK  166  A    between atoms: O_167  and  C_389 
REMARK  167  A    between atoms: O_168  and  C_390 
REMARK  168  A    between atoms: O_169  and  C_391 
REMARK  169  A    between atoms: C_392  and  O_170 
REMARK  170  A    between atoms: C_394  and  O_171 
REMARK  171  A    between atoms: O_172  and  C_395 
REMARK  172  A    between atoms: O_173  and  C_396 
REMARK  173  A    between atoms: C_397  and  O_175 
REMARK  174  A    between atoms: C_398  and  O_176 
REMARK  175  A    between atoms: O_177  and  C_399 
REMARK  176  A    between atoms: O_178  and  C_400 
REMARK  177  A    between atoms: O_180  and  C_404 
REMARK  178  A    between atoms: O_181  and  C_405 
REMARK  179  A    between atoms: C_408  and  O_182 
REMARK  180  A    between atoms: O_183  and  C_409 
REMARK  181  A    between atoms: O_184  and  C_410 
REMARK  182  A    between atoms: C_411  and  O_185 
REMARK  183  A    between atoms: C_412  and  O_186 
REMARK  184  A    between atoms: C_414  and  O_187 
REMARK  185  A    between atoms: C_415  and  O_188 
REMARK  186  A    between atoms: O_189  and  C_417 
REMARK  187  A    between atoms: O_190  and  C_418 
REMARK  188  A    between atoms: O_191  and  C_419 
REMARK  189  A    between atoms: C_192  and  C_249 
REMARK  190  A    between atoms: C_193  and  C_248 
REMARK  191  A    between atoms: C_194  and  C_251 
REMARK  192  A    between atoms: C_195  and  C_250 
REMARK  193  A    between atoms: C_196  and  C_253 
REMARK  194  A    between atoms: C_197  and  C_252 
REMARK  195  A    between atoms: C_198  and  C_255 
REMARK  196  A    between atoms: C_199  and  C_254 
REMARK  197  A    between atoms: C_200  and  C_257 
REMARK  198  A    between atoms: C_201  and  C_256 
REMARK  199  A    between atoms: C_202  and  C_259 
REMARK  200  A    between atoms: C_203  and  C_258 
REMARK  201  A    between atoms: C_204  and  C_261 
REMARK  202  A    between atoms: C_205  and  C_260 
REMARK  203  A    between atoms: C_206  and  C_263 
REMARK  204  A    between atoms: C_207  and  C_262 
REMARK  205  A    between atoms: C_208  and  C_265 
REMARK  206  A    between atoms: C_209  and  C_264 
REMARK  207  A    between atoms: C_210  and  C_280 
REMARK  208  A    between atoms: C_211  and  C_274 
REMARK  209  A    between atoms: C_212  and  C_289 
REMARK  210  A    between atoms: C_213  and  C_286 
REMARK  211  A    between atoms: C_214  and  C_297 
REMARK  212  A    between atoms: C_215  and  C_291 
REMARK  213  A    between atoms: C_216  and  C_321 
REMARK  214  A    between atoms: C_217  and  C_316 
REMARK  215  A    between atoms: C_218  and  C_335 
REMARK  216  A    between atoms: C_219  and  C_328 
REMARK  217  A    between atoms: C_244  and  C_341 
REMARK  218  A    between atoms: C_245  and  C_338 
REMARK  219  A    between atoms: C_295  and  C_357 
REMARK  220  A    between atoms: C_296  and  C_358 
REMARK  221  A    between atoms: C_298  and  C_359 
REMARK  222  A    between atoms: C_299  and  C_360 
REMARK  223  A    between atoms: C_300  and  C_361 
REMARK  224  A    between atoms: C_301  and  C_362 
REMARK  225  A    between atoms: C_302  and  C_363 
REMARK  226  A    between atoms: C_303  and  C_364 
REMARK  227  A    between atoms: C_304  and  C_365 
REMARK  228  A    between atoms: C_305  and  C_366 
REMARK  229  A    between atoms: C_306  and  C_367 
REMARK  230  A    between atoms: C_307  and  C_368 
REMARK  231  A    between atoms: C_308  and  C_369 
REMARK  232  A    between atoms: C_309  and  C_371 
REMARK  233  A    between atoms: C_312  and  C_372 
REMARK  234  A    between atoms: C_313  and  C_373 
REMARK  235  A    between atoms: C_314  and  C_375 
REMARK  236  A    between atoms: C_315  and  C_376 
REMARK  237  A    between atoms: C_317  and  C_377 
REMARK  238  A    between atoms: C_318  and  C_378 
REMARK  239  A    between atoms: C_319  and  C_379 
REMARK  240  A    between atoms: C_320  and  C_380 
REMARK  241  A    between atoms: C_324  and  C_351 
REMARK  242  A    between atoms: C_325  and  C_348 
REMARK  243  A    between atoms: C_326  and  C_382 
REMARK  244  A    between atoms: C_327  and  C_383 
REMARK  245  A    between atoms: C_331  and  C_388 
REMARK  246  A    between atoms: C_332  and  C_389 
REMARK  247  A    between atoms: C_336  and  C_390 
REMARK  248  A    between atoms: C_337  and  C_391 
REMARK  249  A    between atoms: C_344  and  C_395 
REMARK  250  A    between atoms: C_345  and  C_396 
REMARK  251  A    between atoms: C_346  and  C_386 
REMARK  252  A    between atoms: C_347  and  C_356 
REMARK  253  A    between atoms: C_352  and  C_399 
REMARK  254  A    between atoms: C_353  and  C_400 
REMARK  255  A    between atoms: C_381  and  C_404 
REMARK  256  A    between atoms: C_384  and  C_405 
REMARK  257  A    between atoms: C_385  and  C_403 
REMARK  258  A    between atoms: C_387  and  C_393 
REMARK  259  A    between atoms: C_401  and  C_409 
REMARK  260  A    between atoms: C_402  and  C_410 
REMARK  261  A    between atoms: C_406  and  C_417 
REMARK  262  A    between atoms: C_413  and  C_418 
REMARK  263  A    between atoms: C_416  and  C_419 
ROOT
HETATM    1  O   UNK N   1       5.510   6.166  -1.967  0.00  0.00    -0.341 OA
HETATM    2  O   UNK N   1       4.522   4.272   0.282  0.00  0.00    -0.390 OA
HETATM    3  C   UNK N   1       6.507   5.262  -1.520  0.00  0.00     0.215 C 
HETATM    4  C   UNK N   1       5.802   3.906  -1.658  0.00  0.00     0.214 C 
HETATM    5  C   UNK N   1       4.452   4.184  -1.116  0.00  0.00     0.183 C 
HETATM    6  C   UNK N   1       4.238   5.541  -1.738  0.00  0.00     0.180 C 
HETATM    7  H   UNK N   1       4.600   4.260   1.249  0.00  0.00     0.210 HD
ENDROOT
BRANCH   4   8
HETATM    8  O   UNK N   1       5.678   3.560  -3.012  0.00  0.00    -0.387 OA
HETATM    9  H   UNK N   1       5.428   3.515  -3.948  0.00  0.00     0.210 HD
ENDBRANCH   4   8
BRANCH   6  10
HETATM   10  C   UNK N   1       3.254   6.360  -0.900  0.00  0.00     0.198 C 
BRANCH  10  11
HETATM   11  O   UNK N   1       2.010   5.733  -0.841  0.00  0.00    -0.398 OA
HETATM   12  H   UNK N   1       1.200   6.264  -0.799  0.00  0.00     0.209 HD
ENDBRANCH  10  11
ENDBRANCH   6  10
BRANCH   3  13
HETATM   13  O   UNK N   1       7.704   5.344  -2.293  0.00  0.00    -0.345 OA
BRANCH  13  14
HETATM   14  C   UNK N   1       8.418   4.109  -2.371  0.00  0.00     0.243 C 
BRANCH  14  15
HETATM   15  C   UNK N   1       9.548   3.745  -1.320  0.00  0.00     0.215 C 
HETATM   16  O   UNK N   1      10.466   4.800  -1.128  0.00  0.00    -0.341 OA
HETATM   17  C   UNK N   1      11.609   4.110  -0.674  0.00  0.00     0.180 C 
HETATM   18  C   UNK N   1      11.819   3.049  -1.692  0.00  0.00     0.183 C 
HETATM   19  C   UNK N   1      10.406   2.579  -1.894  0.00  0.00     0.214 C 
BRANCH  15  20
HETATM   20  O   UNK N   1       9.125   3.337  -0.019  0.00  0.00    -0.345 OA
BRANCH  20  21
HETATM   21  C   UNK N   1       7.749   3.134   0.135  0.00  0.00     0.243 C 
BRANCH  21  22
HETATM   22  C   UNK N   1       7.305   1.708   0.396  0.00  0.00     0.215 C 
HETATM   23  O   UNK N   1       6.032   1.793   1.026  0.00  0.00    -0.341 OA
HETATM   24  C   UNK N   1       5.133   1.033   0.247  0.00  0.00     0.180 C 
HETATM   25  C   UNK N   1       5.626   1.103  -1.163  0.00  0.00     0.183 C 
HETATM   26  C   UNK N   1       7.070   0.878  -0.885  0.00  0.00     0.214 C 
BRANCH  22  27
HETATM   27  O   UNK N   1       8.179   1.112   1.318  0.00  0.00    -0.345 OA
BRANCH  27  28
HETATM   28  C   UNK N   1       9.428   0.829   0.739  0.00  0.00     0.243 C 
BRANCH  28  29
HETATM   29  C   UNK N   1      10.359   0.161   1.770  0.00  0.00     0.215 C 
HETATM   30  O   UNK N   1      11.620   0.032   1.134  0.00  0.00    -0.341 OA
HETATM   31  C   UNK N   1      12.481   1.015   1.666  0.00  0.00     0.180 C 
HETATM   32  C   UNK N   1      11.590   1.993   2.415  0.00  0.00     0.183 C 
HETATM   33  C   UNK N   1      10.535   1.089   2.978  0.00  0.00     0.214 C 
BRANCH  29  34
HETATM   34  O   UNK N   1       9.938  -1.140   2.169  0.00  0.00    -0.345 OA
BRANCH  34  35
HETATM   35  C   UNK N   1       8.546  -1.206   2.360  0.00  0.00     0.243 C 
BRANCH  35  36
HETATM   36  C   UNK N   1       7.851  -2.161   1.364  0.00  0.00     0.215 C 
HETATM   37  O   UNK N   1       7.398  -3.245   2.155  0.00  0.00    -0.341 OA
HETATM   38  C   UNK N   1       6.142  -2.825   2.626  0.00  0.00     0.180 C 
HETATM   39  C   UNK N   1       5.454  -2.282   1.422  0.00  0.00     0.183 C 
HETATM   40  C   UNK N   1       6.570  -1.551   0.756  0.00  0.00     0.214 C 
BRANCH  36  41
HETATM   41  O   UNK N   1       8.740  -2.659   0.369  0.00  0.00    -0.345 OA
BRANCH  41  42
HETATM   42  C   UNK N   1       9.211  -1.697  -0.553  0.00  0.00     0.243 C 
BRANCH  42  43
HETATM   43  C   UNK N   1       9.630  -2.337  -1.891  0.00  0.00     0.215 C 
HETATM   44  O   UNK N   1      10.752  -3.192  -1.680  0.00  0.00    -0.341 OA
HETATM   45  C   UNK N   1      11.757  -2.752  -2.552  0.00  0.00     0.180 C 
HETATM   46  C   UNK N   1      11.573  -1.261  -2.716  0.00  0.00     0.183 C 
HETATM   47  C   UNK N   1      10.077  -1.222  -2.856  0.00  0.00     0.214 C 
BRANCH  43  48
HETATM   48  O   UNK N   1       8.498  -3.003  -2.430  0.00  0.00    -0.345 OA
BRANCH  48  49
HETATM   49  C   UNK N   1       8.750  -4.369  -2.678  0.00  0.00     0.243 C 
BRANCH  49  50
HETATM   50  C   UNK N   1       7.986  -5.292  -1.696  0.00  0.00     0.215 C 
HETATM   51  O   UNK N   1       7.339  -6.267  -2.490  0.00  0.00    -0.341 OA
HETATM   52  C   UNK N   1       6.175  -5.626  -2.963  0.00  0.00     0.180 C 
HETATM   53  C   UNK N   1       5.631  -4.789  -1.839  0.00  0.00     0.183 C 
HETATM   54  C   UNK N   1       6.838  -4.536  -0.985  0.00  0.00     0.214 C 
BRANCH  50  55
HETATM   55  O   UNK N   1       8.894  -5.959  -0.802  0.00  0.00    -0.345 OA
BRANCH  55  56
HETATM   56  C   UNK N   1       9.554  -5.038   0.042  0.00  0.00     0.243 C 
BRANCH  56  57
HETATM   57  C   UNK N   1      10.146  -5.497   1.428  0.00  0.00     0.215 C 
HETATM   58  O   UNK N   1      11.485  -5.920   1.225  0.00  0.00    -0.341 OA
HETATM   59  C   UNK N   1      12.291  -5.066   2.010  0.00  0.00     0.180 C 
HETATM   60  C   UNK N   1      11.596  -3.736   2.104  0.00  0.00     0.183 C 
HETATM   61  C   UNK N   1      10.203  -4.235   2.316  0.00  0.00     0.214 C 
BRANCH  57  62
HETATM   62  O   UNK N   1       9.469  -6.516   2.156  0.00  0.00    -0.345 OA
BRANCH  62  63
HETATM   63  C   UNK N   1       8.141  -6.677   1.756  0.00  0.00     0.243 C 
BRANCH  63  64
HETATM   64  C   UNK N   1       7.822  -8.175   1.630  0.00  0.00     0.215 C 
HETATM   65  O   UNK N   1       7.412  -8.621   2.907  0.00  0.00    -0.341 OA
HETATM   66  C   UNK N   1       5.985  -8.685   2.914  0.00  0.00     0.180 C 
HETATM   67  C   UNK N   1       5.437  -8.177   1.597  0.00  0.00     0.183 C 
HETATM   68  C   UNK N   1       6.622  -8.449   0.740  0.00  0.00     0.214 C 
BRANCH  64  69
HETATM   69  O   UNK N   1       8.963  -8.924   1.217  0.00  0.00    -0.345 OA
BRANCH  69  70
HETATM   70  C   UNK N   1       9.423  -8.457  -0.033  0.00  0.00     0.243 C 
BRANCH  70  71
HETATM   71  C   UNK N   1      10.757  -9.089  -0.466  0.00  0.00     0.215 C 
HETATM   72  O   UNK N   1      11.705  -8.902   0.558  0.00  0.00    -0.341 OA
HETATM   73  C   UNK N   1      12.928  -8.964  -0.130  0.00  0.00     0.180 C 
HETATM   74  C   UNK N   1      12.780  -8.113  -1.374  0.00  0.00     0.183 C 
HETATM   75  C   UNK N   1      11.305  -8.284  -1.655  0.00  0.00     0.214 C 
BRANCH  71  76
HETATM   76  O   UNK N   1      10.696 -10.484  -0.781  0.00  0.00    -0.345 OA
BRANCH  76  77
HETATM   77  C   UNK N   1       9.390 -10.958  -1.042  0.00  0.00     0.243 C 
BRANCH  77  78
HETATM   78  C   UNK N   1       8.846 -11.833   0.114  0.00  0.00     0.215 C 
HETATM   79  O   UNK N   1       8.564 -13.141  -0.356  0.00  0.00    -0.341 OA
HETATM   80  C   UNK N   1       7.317 -13.543   0.187  0.00  0.00     0.180 C 
HETATM   81  C   UNK N   1       6.885 -12.500   1.197  0.00  0.00     0.183 C 
HETATM   82  C   UNK N   1       7.510 -11.283   0.595  0.00  0.00     0.214 C 
BRANCH  78  83
HETATM   83  O   UNK N   1       9.779 -11.803   1.196  0.00  0.00    -0.345 OA
BRANCH  83  84
HETATM   84  C   UNK N   1      10.266 -13.075   1.569  0.00  0.00     0.243 C 
BRANCH  84  85
HETATM   85  C   UNK N   1      11.670 -13.409   1.011  0.00  0.00     0.215 C 
HETATM   86  O   UNK N   1      12.454 -13.843   2.114  0.00  0.00    -0.341 OA
HETATM   87  C   UNK N   1      13.462 -12.880   2.357  0.00  0.00     0.180 C 
HETATM   88  C   UNK N   1      13.096 -11.630   1.603  0.00  0.00     0.183 C 
HETATM   89  C   UNK N   1      12.413 -12.213   0.397  0.00  0.00     0.214 C 
BRANCH  85  90
HETATM   90  O   UNK N   1      11.568 -14.502   0.132  0.00  0.00    -0.345 OA
BRANCH  90  91
HETATM   91  C   UNK N   1      10.912 -14.230  -1.083  0.00  0.00     0.243 C 
BRANCH  91  92
HETATM   92  C   UNK N   1      10.614 -15.595  -1.789  0.00  0.00     0.215 C 
HETATM   93  O   UNK N   1       9.737 -16.314  -0.957  0.00  0.00    -0.341 OA
HETATM   94  C   UNK N   1       8.431 -15.961  -1.331  0.00  0.00     0.180 C 
HETATM   95  C   UNK N   1       8.416 -15.563  -2.803  0.00  0.00     0.183 C 
HETATM   96  C   UNK N   1       9.878 -15.443  -3.112  0.00  0.00     0.214 C 
BRANCH  92  97
HETATM   97  O   UNK N   1      11.751 -16.429  -2.037  0.00  0.00    -0.345 OA
BRANCH  97  98
HETATM   98  C   UNK N   1      12.969 -15.765  -1.828  0.00  0.00     0.243 C 
BRANCH  98  99
HETATM   99  C   UNK N   1      13.856 -16.283  -0.657  0.00  0.00     0.215 C 
HETATM  100  O   UNK N   1      14.738 -15.203  -0.415  0.00  0.00    -0.341 OA
HETATM  101  C   UNK N   1      16.044 -15.707  -0.260  0.00  0.00     0.180 C 
HETATM  102  C   UNK N   1      15.954 -17.208  -0.186  0.00  0.00     0.183 C 
HETATM  103  C   UNK N   1      14.737 -17.472  -1.045  0.00  0.00     0.214 C 
BRANCH  99 104
HETATM  104  O   UNK N   1      13.220 -16.573   0.598  0.00  0.00    -0.345 OA
BRANCH 104 105
HETATM  105  C   UNK N   1      11.939 -17.178   0.542  0.00  0.00     0.243 C 
BRANCH 105 106
HETATM  106  C   UNK N   1      11.909 -18.702   0.345  0.00  0.00     0.215 C 
HETATM  107  O   UNK N   1      11.010 -19.293   1.280  0.00  0.00    -0.341 OA
HETATM  108  C   UNK N   1       9.899 -19.778   0.560  0.00  0.00     0.180 C 
HETATM  109  C   UNK N   1       9.904 -19.097  -0.779  0.00  0.00     0.183 C 
HETATM  110  C   UNK N   1      11.370 -18.976  -1.063  0.00  0.00     0.214 C 
BRANCH 106 111
HETATM  111  O   UNK N   1      13.200 -19.247   0.443  0.00  0.00    -0.345 OA
BRANCH 111 112
HETATM  112  C   UNK N   1      13.594 -19.399   1.783  0.00  0.00     0.243 C 
BRANCH 112 113
HETATM  113  C   UNK N   1      14.630 -20.532   1.876  0.00  0.00     0.215 C 
HETATM  114  O   UNK N   1      15.313 -20.409   3.110  0.00  0.00    -0.341 OA
HETATM  115  C   UNK N   1      16.707 -20.515   2.844  0.00  0.00     0.180 C 
HETATM  116  C   UNK N   1      16.897 -21.005   1.420  0.00  0.00     0.183 C 
HETATM  117  C   UNK N   1      15.709 -20.347   0.815  0.00  0.00     0.214 C 
BRANCH 113 118
HETATM  118  O   UNK N   1      14.047 -21.831   1.842  0.00  0.00    -0.345 OA
BRANCH 118 119
HETATM  119  C   UNK N   1      13.159 -21.958   0.756  0.00  0.00     0.243 C 
BRANCH 119 120
HETATM  120  C   UNK N   1      12.588 -23.383   0.669  0.00  0.00     0.215 C 
HETATM  121  O   UNK N   1      12.011 -23.670   1.938  0.00  0.00    -0.341 OA
HETATM  122  C   UNK N   1      10.645 -23.948   1.746  0.00  0.00     0.180 C 
HETATM  123  C   UNK N   1      10.521 -24.381   0.302  0.00  0.00     0.183 C 
HETATM  124  C   UNK N   1      11.470 -23.465  -0.395  0.00  0.00     0.214 C 
BRANCH 120 125
HETATM  125  O   UNK N   1      13.566 -24.393   0.389  0.00  0.00    -0.345 OA
BRANCH 125 126
HETATM  126  C   UNK N   1      14.725 -23.893  -0.264  0.00  0.00     0.243 C 
BRANCH 126 127
HETATM  127  C   UNK N   1      14.830 -24.222  -1.774  0.00  0.00     0.215 C 
HETATM  128  O   UNK N   1      15.173 -23.003  -2.414  0.00  0.00    -0.341 OA
HETATM  129  C   UNK N   1      16.578 -23.031  -2.658  0.00  0.00     0.180 C 
HETATM  130  C   UNK N   1      17.193 -24.255  -1.991  0.00  0.00     0.183 C 
HETATM  131  C   UNK N   1      16.027 -25.177  -2.075  0.00  0.00     0.214 C 
BRANCH 129 132
HETATM  132  C   UNK N   1      17.270 -21.726  -2.283  0.00  0.00     0.198 C 
BRANCH 132 133
HETATM  133  O   UNK N   1      18.623 -21.782  -2.590  0.00  0.00    -0.398 OA
HETATM  134  H   UNK N   1      19.062 -22.620  -2.804  0.00  0.00     0.209 HD
ENDBRANCH 132 133
ENDBRANCH 129 132
BRANCH 130 135
HETATM  135  O   UNK N   1      17.519 -24.014  -0.654  0.00  0.00    -0.390 OA
HETATM  136  H   UNK N   1      17.777 -24.127   0.274  0.00  0.00     0.210 HD
ENDBRANCH 130 135
BRANCH 131 137
HETATM  137  O   UNK N   1      15.996 -25.645  -3.395  0.00  0.00    -0.387 OA
HETATM  138  H   UNK N   1      15.704 -25.788  -4.309  0.00  0.00     0.210 HD
ENDBRANCH 131 137
BRANCH 127 139
HETATM  139  O   UNK N   1      13.537 -24.643  -2.215  0.00  0.00    -0.345 OA
BRANCH 139 140
HETATM  140  C   UNK N   1      13.471 -25.968  -2.705  0.00  0.00     0.243 C 
BRANCH 140 141
HETATM  141  C   UNK N   1      12.942 -27.019  -1.706  0.00  0.00     0.215 C 
HETATM  142  O   UNK N   1      12.109 -26.458  -0.709  0.00  0.00    -0.341 OA
HETATM  143  C   UNK N   1      11.009 -27.332  -0.527  0.00  0.00     0.180 C 
HETATM  144  C   UNK N   1      11.158 -28.495  -1.470  0.00  0.00     0.183 C 
HETATM  145  C   UNK N   1      12.024 -27.908  -2.517  0.00  0.00     0.214 C 
BRANCH 143 146
HETATM  146  C   UNK N   1      10.963 -27.880   0.893  0.00  0.00     0.198 C 
BRANCH 146 147
HETATM  147  O   UNK N   1      10.968 -26.856   1.837  0.00  0.00    -0.398 OA
HETATM  148  H   UNK N   1      11.587 -26.502   2.494  0.00  0.00     0.209 HD
ENDBRANCH 146 147
ENDBRANCH 143 146
BRANCH 144 149
HETATM  149  O   UNK N   1       9.920 -28.872  -1.994  0.00  0.00    -0.390 OA
HETATM  150  H   UNK N   1       9.263 -28.258  -2.357  0.00  0.00     0.210 HD
ENDBRANCH 144 149
BRANCH 145 151
HETATM  151  O   UNK N   1      12.708 -28.884  -3.245  0.00  0.00    -0.387 OA
HETATM  152  H   UNK N   1      12.359 -29.634  -3.751  0.00  0.00     0.210 HD
ENDBRANCH 145 151
BRANCH 141 153
HETATM  153  O   UNK N   1      13.995 -27.778  -1.116  0.00  0.00    -0.345 OA
BRANCH 153 154
HETATM  154  C   UNK N   1      14.638 -26.963  -0.162  0.00  0.00     0.243 C 
BRANCH 154 155
HETATM  155  C   UNK N   1      15.692 -27.665   0.735  0.00  0.00     0.215 C 
HETATM  156  O   UNK N   1      16.318 -26.622   1.462  0.00  0.00    -0.341 OA
HETATM  157  C   UNK N   1      17.696 -26.699   1.183  0.00  0.00     0.180 C 
HETATM  158  C   UNK N   1      18.003 -28.119   0.768  0.00  0.00     0.183 C 
HETATM  159  C   UNK N   1      16.792 -28.373  -0.082  0.00  0.00     0.214 C 
BRANCH 157 160
HETATM  160  C   UNK N   1      18.537 -26.234   2.362  0.00  0.00     0.198 C 
BRANCH 160 161
HETATM  161  O   UNK N   1      18.294 -24.885   2.614  0.00  0.00    -0.398 OA
HETATM  162  H   UNK N   1      19.022 -24.269   2.790  0.00  0.00     0.209 HD
ENDBRANCH 160 161
ENDBRANCH 157 160
BRANCH 158 163
HETATM  163  O   UNK N   1      17.985 -28.962   1.885  0.00  0.00    -0.390 OA
HETATM  164  H   UNK N   1      17.473 -29.243   2.659  0.00  0.00     0.210 HD
ENDBRANCH 158 163
BRANCH 159 165
HETATM  165  O   UNK N   1      17.001 -27.767  -1.324  0.00  0.00    -0.387 OA
HETATM  166  H   UNK N   1      17.438 -27.682  -2.186  0.00  0.00     0.210 HD
ENDBRANCH 159 165
BRANCH 155 167
HETATM  167  O   UNK N   1      15.176 -28.590   1.698  0.00  0.00    -0.345 OA
BRANCH 167 168
HETATM  168  C   UNK N   1      13.884 -29.039   1.367  0.00  0.00     0.243 C 
BRANCH 168 169
HETATM  169  C   UNK N   1      13.800 -30.493   0.840  0.00  0.00     0.215 C 
HETATM  170  O   UNK N   1      12.749 -30.485  -0.108  0.00  0.00    -0.341 OA
HETATM  171  C   UNK N   1      11.581 -30.976   0.516  0.00  0.00     0.180 C 
HETATM  172  C   UNK N   1      11.909 -31.154   1.987  0.00  0.00     0.183 C 
HETATM  173  C   UNK N   1      13.375 -31.463   1.957  0.00  0.00     0.214 C 
BRANCH 171 174
HETATM  174  C   UNK N   1      11.155 -32.258  -0.187  0.00  0.00     0.198 C 
BRANCH 174 175
HETATM  175  O   UNK N   1      10.816 -31.970  -1.512  0.00  0.00    -0.398 OA
HETATM  176  H   UNK N   1      10.872 -31.666  -2.432  0.00  0.00     0.209 HD
ENDBRANCH 174 175
ENDBRANCH 171 174
BRANCH 172 177
HETATM  177  O   UNK N   1      11.143 -32.140   2.617  0.00  0.00    -0.390 OA
HETATM  178  H   UNK N   1      10.285 -32.022   3.054  0.00  0.00     0.210 HD
ENDBRANCH 172 177
BRANCH 173 179
HETATM  179  O   UNK N   1      13.558 -32.786   1.544  0.00  0.00    -0.387 OA
HETATM  180  H   UNK N   1      12.827 -33.355   1.257  0.00  0.00     0.210 HD
ENDBRANCH 173 179
BRANCH 169 181
HETATM  181  O   UNK N   1      14.974 -30.897   0.156  0.00  0.00    -0.345 OA
BRANCH 181 182
HETATM  182  C   UNK N   1      16.032 -31.126   1.053  0.00  0.00     0.243 C 
BRANCH 182 183
HETATM  183  C   UNK N   1      17.073 -32.056   0.444  0.00  0.00     0.217 C 
HETATM  184  O   UNK N   1      18.213 -32.072   1.282  0.00  0.00    -0.341 OA
HETATM  185  C   UNK N   1      19.360 -32.111   0.439  0.00  0.00     0.180 C 
HETATM  186  C   UNK N   1      18.869 -32.234  -0.999  0.00  0.00     0.183 C 
HETATM  187  C   UNK N   1      17.607 -31.474  -0.879  0.00  0.00     0.214 C 
BRANCH 185 188
HETATM  188  C   UNK N   1      20.176 -30.839   0.663  0.00  0.00     0.198 C 
BRANCH 188 189
HETATM  189  O   UNK N   1      20.650 -30.802   1.974  0.00  0.00    -0.398 OA
HETATM  190  H   UNK N   1      20.838 -31.075   2.886  0.00  0.00     0.209 HD
ENDBRANCH 188 189
ENDBRANCH 185 188
BRANCH 186 191
HETATM  191  O   UNK N   1      19.739 -31.667  -1.933  0.00  0.00    -0.390 OA
HETATM  192  H   UNK N   1      20.382 -31.994  -2.582  0.00  0.00     0.210 HD
ENDBRANCH 186 191
BRANCH 187 193
HETATM  193  O   UNK N   1      16.769 -31.583  -1.992  0.00  0.00    -0.387 OA
HETATM  194  H   UNK N   1      16.412 -31.117  -2.764  0.00  0.00     0.210 HD
ENDBRANCH 187 193
BRANCH 183 195
HETATM  195  O   UNK N   1      16.564 -33.386   0.454  0.00  0.00    -0.318 OA
BRANCH 195 196
HETATM  196  C   UNK N   1      16.089 -33.849  -0.787  0.00  0.00     0.295 C 
HETATM  197  O   UNK N   1      16.972 -34.821  -1.320  0.00  0.00    -0.348 OA
HETATM  198  C   UNK N   1      17.178 -35.908  -0.414  0.00  0.00     0.179 C 
HETATM  199  C   UNK N   1      15.992 -36.193   0.541  0.00  0.00     0.180 C 
HETATM  200  C   UNK N   1      14.699 -35.891  -0.201  0.00  0.00     0.183 C 
HETATM  201  C   UNK N   1      14.672 -34.425  -0.648  0.00  0.00     0.204 C 
BRANCH 198 202
HETATM  202  C   UNK N   1      18.490 -35.723   0.342  0.00  0.00     0.198 C 
BRANCH 202 203
HETATM  203  O   UNK N   1      18.825 -36.882   1.041  0.00  0.00    -0.398 OA
HETATM  204  H   UNK N   1      18.244 -37.487   1.527  0.00  0.00     0.209 HD
ENDBRANCH 202 203
ENDBRANCH 198 202
BRANCH 199 205
HETATM  205  O   UNK N   1      16.023 -37.523   0.964  0.00  0.00    -0.390 OA
HETATM  206  H   UNK N   1      15.233 -38.003   1.259  0.00  0.00     0.210 HD
ENDBRANCH 199 205
BRANCH 200 207
HETATM  207  O   UNK N   1      13.586 -36.159   0.597  0.00  0.00    -0.390 OA
HETATM  208  H   UNK N   1      13.038 -35.583   1.152  0.00  0.00     0.210 HD
ENDBRANCH 200 207
BRANCH 201 209
HETATM  209  O   UNK N   1      13.992 -34.335  -1.863  0.00  0.00    -0.388 OA
HETATM  210  H   UNK N   1      13.810 -33.895  -2.707  0.00  0.00     0.210 HD
ENDBRANCH 201 209
ENDBRANCH 195 196
ENDBRANCH 183 195
ENDBRANCH 182 183
ENDBRANCH 181 182
ENDBRANCH 169 181
ENDBRANCH 168 169
ENDBRANCH 167 168
ENDBRANCH 155 167
ENDBRANCH 154 155
ENDBRANCH 153 154
ENDBRANCH 141 153
ENDBRANCH 140 141
ENDBRANCH 139 140
ENDBRANCH 127 139
ENDBRANCH 126 127
ENDBRANCH 125 126
ENDBRANCH 120 125
BRANCH 122 211
HETATM  211  C   UNK N   1       9.827 -22.708   2.117  0.00  0.00     0.198 C 
BRANCH 211 212
HETATM  212  O   UNK N   1       8.461 -22.998   2.102  0.00  0.00    -0.398 OA
HETATM  213  H   UNK N   1       7.812 -22.277   2.092  0.00  0.00     0.209 HD
ENDBRANCH 211 212
ENDBRANCH 122 211
BRANCH 123 214
HETATM  214  O   UNK N   1       9.219 -24.331  -0.207  0.00  0.00    -0.390 OA
HETATM  215  H   UNK N   1       8.797 -23.531  -0.560  0.00  0.00     0.210 HD
ENDBRANCH 123 214
BRANCH 124 216
HETATM  216  O   UNK N   1      10.821 -22.246  -0.574  0.00  0.00    -0.387 OA
HETATM  217  H   UNK N   1      11.331 -21.430  -0.698  0.00  0.00     0.210 HD
ENDBRANCH 124 216
ENDBRANCH 119 120
ENDBRANCH 118 119
ENDBRANCH 113 118
BRANCH 115 218
HETATM  218  C   UNK N   1      17.359 -19.148   3.037  0.00  0.00     0.198 C 
BRANCH 218 219
HETATM  219  O   UNK N   1      18.728 -19.220   2.775  0.00  0.00    -0.398 OA
HETATM  220  H   UNK N   1      19.160 -20.069   2.593  0.00  0.00     0.209 HD
ENDBRANCH 218 219
ENDBRANCH 115 218
BRANCH 116 221
HETATM  221  O   UNK N   1      16.752 -22.392   1.399  0.00  0.00    -0.390 OA
HETATM  222  H   UNK N   1      15.866 -22.787   1.384  0.00  0.00     0.210 HD
ENDBRANCH 116 221
BRANCH 117 223
HETATM  223  O   UNK N   1      15.365 -20.812  -0.453  0.00  0.00    -0.387 OA
HETATM  224  H   UNK N   1      14.966 -20.766  -1.335  0.00  0.00     0.210 HD
ENDBRANCH 117 223
ENDBRANCH 112 113
ENDBRANCH 111 112
ENDBRANCH 106 111
BRANCH 108 225
HETATM  225  C   UNK N   1       8.610 -19.487   1.317  0.00  0.00     0.198 C 
BRANCH 225 226
HETATM  226  O   UNK N   1       7.526 -20.099   0.687  0.00  0.00    -0.398 OA
HETATM  227  H   UNK N   1       6.781 -19.658   0.249  0.00  0.00     0.209 HD
ENDBRANCH 225 226
ENDBRANCH 108 225
BRANCH 109 228
HETATM  228  O   UNK N   1       9.219 -19.830  -1.752  0.00  0.00    -0.390 OA
HETATM  229  H   UNK N   1       8.540 -19.672  -2.427  0.00  0.00     0.210 HD
ENDBRANCH 109 228
BRANCH 110 230
HETATM  230  O   UNK N   1      11.878 -20.168  -1.584  0.00  0.00    -0.387 OA
HETATM  231  H   UNK N   1      11.338 -20.887  -1.946  0.00  0.00     0.210 HD
ENDBRANCH 110 230
ENDBRANCH 105 106
ENDBRANCH 104 105
ENDBRANCH  99 104
BRANCH 101 232
HETATM  232  C   UNK N   1      16.913 -15.251  -1.420  0.00  0.00     0.198 C 
BRANCH 232 233
HETATM  233  O   UNK N   1      18.238 -15.622  -1.188  0.00  0.00    -0.398 OA
HETATM  234  H   UNK N   1      18.475 -16.549  -1.026  0.00  0.00     0.209 HD
ENDBRANCH 232 233
ENDBRANCH 101 232
BRANCH 102 235
HETATM  235  O   UNK N   1      15.694 -17.533   1.144  0.00  0.00    -0.390 OA
HETATM  236  H   UNK N   1      15.408 -17.488   2.070  0.00  0.00     0.210 HD
ENDBRANCH 102 235
BRANCH 103 237
HETATM  237  O   UNK N   1      15.118 -17.409  -2.390  0.00  0.00    -0.387 OA
HETATM  238  H   UNK N   1      15.287 -17.616  -3.322  0.00  0.00     0.210 HD
ENDBRANCH 103 237
ENDBRANCH  98  99
ENDBRANCH  97  98
ENDBRANCH  92  97
BRANCH  94 239
HETATM  239  C   UNK N   1       7.441 -17.053  -0.930  0.00  0.00     0.198 C 
BRANCH 239 240
HETATM  240  O   UNK N   1       6.129 -16.641  -1.147  0.00  0.00    -0.398 OA
HETATM  241  H   UNK N   1       5.920 -15.706  -1.298  0.00  0.00     0.209 HD
ENDBRANCH 239 240
ENDBRANCH  94 239
BRANCH  95 242
HETATM  242  O   UNK N   1       7.891 -16.581  -3.602  0.00  0.00    -0.390 OA
HETATM  243  H   UNK N   1       7.096 -16.619  -4.158  0.00  0.00     0.210 HD
ENDBRANCH  95 242
BRANCH  96 244
HETATM  244  O   UNK N   1      10.196 -14.274  -3.805  0.00  0.00    -0.387 OA
HETATM  245  H   UNK N   1      11.010 -14.059  -4.287  0.00  0.00     0.210 HD
ENDBRANCH  96 244
ENDBRANCH  91  92
ENDBRANCH  90  91
ENDBRANCH  85  90
BRANCH  87 246
HETATM  246  C   UNK N   1      14.819 -13.422   1.912  0.00  0.00     0.198 C 
BRANCH 246 247
HETATM  247  O   UNK N   1      15.814 -12.458   2.083  0.00  0.00    -0.398 OA
HETATM  248  H   UNK N   1      16.740 -12.721   2.202  0.00  0.00     0.209 HD
ENDBRANCH 246 247
ENDBRANCH  87 246
BRANCH  88 249
HETATM  249  O   UNK N   1      12.185 -10.903   2.371  0.00  0.00    -0.390 OA
HETATM  250  H   UNK N   1      12.305 -10.103   2.905  0.00  0.00     0.210 HD
ENDBRANCH  88 249
BRANCH  89 251
HETATM  251  O   UNK N   1      13.389 -12.635  -0.510  0.00  0.00    -0.387 OA
HETATM  252  H   UNK N   1      13.474 -13.368  -1.140  0.00  0.00     0.210 HD
ENDBRANCH  89 251
ENDBRANCH  84  85
ENDBRANCH  83  84
ENDBRANCH  78  83
BRANCH  80 253
HETATM  253  C   UNK N   1       6.297 -13.637  -0.945  0.00  0.00     0.198 C 
BRANCH 253 254
HETATM  254  O   UNK N   1       5.056 -14.027  -0.448  0.00  0.00    -0.398 OA
HETATM  255  H   UNK N   1       4.388 -13.414  -0.102  0.00  0.00     0.209 HD
ENDBRANCH 253 254
ENDBRANCH  80 253
BRANCH  81 256
HETATM  256  O   UNK N   1       7.462 -12.777   2.439  0.00  0.00    -0.390 OA
HETATM  257  H   UNK N   1       7.496 -13.220   3.301  0.00  0.00     0.210 HD
ENDBRANCH  81 256
BRANCH  82 258
HETATM  258  O   UNK N   1       6.720 -10.895  -0.500  0.00  0.00    -0.387 OA
HETATM  259  H   UNK N   1       6.679 -10.288  -1.256  0.00  0.00     0.210 HD
ENDBRANCH  82 258
ENDBRANCH  77  78
ENDBRANCH  76  77
ENDBRANCH  71  76
BRANCH  73 260
HETATM  260  C   UNK N   1      14.111  -8.608   0.762  0.00  0.00     0.198 C 
BRANCH 260 261
HETATM  261  O   UNK N   1      15.312  -8.835   0.089  0.00  0.00    -0.398 OA
HETATM  262  H   UNK N   1      15.592  -9.638  -0.379  0.00  0.00     0.209 HD
ENDBRANCH 260 261
ENDBRANCH  73 260
BRANCH  74 263
HETATM  263  O   UNK N   1      13.009  -6.769  -1.070  0.00  0.00    -0.390 OA
HETATM  264  H   UNK N   1      13.897  -6.440  -0.859  0.00  0.00     0.210 HD
ENDBRANCH  74 263
BRANCH  75 265
HETATM  265  O   UNK N   1      11.093  -8.932  -2.874  0.00  0.00    -0.387 OA
HETATM  266  H   UNK N   1      10.630  -9.030  -3.720  0.00  0.00     0.210 HD
ENDBRANCH  75 265
ENDBRANCH  70  71
ENDBRANCH  69  70
ENDBRANCH  64  69
BRANCH  66 267
HETATM  267  C   UNK N   1       5.528 -10.120   3.109  0.00  0.00     0.198 C 
BRANCH 267 268
HETATM  268  O   UNK N   1       5.826 -10.539   4.404  0.00  0.00    -0.398 OA
HETATM  269  H   UNK N   1       5.678 -10.864   5.306  0.00  0.00     0.209 HD
ENDBRANCH 267 268
ENDBRANCH  66 267
BRANCH  67 270
HETATM  270  O   UNK N   1       5.191  -6.808   1.696  0.00  0.00    -0.390 OA
HETATM  271  H   UNK N   1       5.930  -6.184   1.764  0.00  0.00     0.210 HD
ENDBRANCH  67 270
BRANCH  68 272
HETATM  272  O   UNK N   1       6.615  -7.779  -0.476  0.00  0.00    -0.387 OA
HETATM  273  H   UNK N   1       7.018  -7.541  -1.326  0.00  0.00     0.210 HD
ENDBRANCH  68 272
ENDBRANCH  63  64
ENDBRANCH  62  63
ENDBRANCH  57  62
BRANCH  59 274
HETATM  274  C   UNK N   1      13.702  -4.919   1.467  0.00  0.00     0.198 C 
BRANCH 274 275
HETATM  275  O   UNK N   1      14.486  -5.980   1.908  0.00  0.00    -0.398 OA
HETATM  276  H   UNK N   1      14.119  -6.823   2.217  0.00  0.00     0.209 HD
ENDBRANCH 274 275
ENDBRANCH  59 274
BRANCH  60 277
HETATM  277  O   UNK N   1      11.683  -3.054   0.890  0.00  0.00    -0.390 OA
HETATM  278  H   UNK N   1      12.125  -2.869   0.046  0.00  0.00     0.210 HD
ENDBRANCH  60 277
BRANCH  61 279
HETATM  279  O   UNK N   1      10.061  -4.555   3.673  0.00  0.00    -0.387 OA
HETATM  280  H   UNK N   1       9.821  -4.581   4.612  0.00  0.00     0.210 HD
ENDBRANCH  61 279
ENDBRANCH  56  57
ENDBRANCH  55  56
ENDBRANCH  50  55
BRANCH  52 281
HETATM  281  C   UNK N   1       5.129  -6.610  -3.474  0.00  0.00     0.198 C 
BRANCH 281 282
HETATM  282  O   UNK N   1       4.654  -7.422  -2.441  0.00  0.00    -0.398 OA
HETATM  283  H   UNK N   1       4.001  -7.419  -1.724  0.00  0.00     0.209 HD
ENDBRANCH 281 282
ENDBRANCH  52 281
BRANCH  53 284
HETATM  284  O   UNK N   1       5.081  -3.603  -2.323  0.00  0.00    -0.390 OA
HETATM  285  H   UNK N   1       5.605  -2.859  -2.659  0.00  0.00     0.210 HD
ENDBRANCH  53 284
BRANCH  54 286
HETATM  286  O   UNK N   1       6.557  -5.061   0.264  0.00  0.00    -0.387 OA
HETATM  287  H   UNK N   1       6.140  -5.074   1.139  0.00  0.00     0.210 HD
ENDBRANCH  54 286
ENDBRANCH  49  50
ENDBRANCH  48  49
ENDBRANCH  43  48
BRANCH  45 288
HETATM  288  C   UNK N   1      13.137  -3.140  -2.039  0.00  0.00     0.198 C 
BRANCH 288 289
HETATM  289  O   UNK N   1      14.106  -2.835  -2.995  0.00  0.00    -0.398 OA
HETATM  290  H   UNK N   1      14.627  -3.313  -3.660  0.00  0.00     0.209 HD
ENDBRANCH 288 289
ENDBRANCH  45 288
BRANCH  46 291
HETATM  291  O   UNK N   1      11.949  -0.606  -1.543  0.00  0.00    -0.390 OA
HETATM  292  H   UNK N   1      12.474  -0.605  -0.727  0.00  0.00     0.210 HD
ENDBRANCH  46 291
BRANCH  47 293
HETATM  293  O   UNK N   1       9.766  -1.561  -4.178  0.00  0.00    -0.387 OA
HETATM  294  H   UNK N   1       9.455  -1.492  -5.094  0.00  0.00     0.210 HD
ENDBRANCH  47 293
ENDBRANCH  42  43
ENDBRANCH  41  42
ENDBRANCH  36  41
BRANCH  38 295
HETATM  295  C   UNK N   1       5.355  -3.970   3.236  0.00  0.00     0.198 C 
BRANCH 295 296
HETATM  296  O   UNK N   1       4.151  -3.492   3.761  0.00  0.00    -0.398 OA
HETATM  297  H   UNK N   1       4.020  -2.602   4.126  0.00  0.00     0.209 HD
ENDBRANCH 295 296
ENDBRANCH  38 295
BRANCH  39 298
HETATM  298  O   UNK N   1       4.403  -1.429   1.752  0.00  0.00    -0.390 OA
HETATM  299  H   UNK N   1       4.552  -0.498   1.982  0.00  0.00     0.210 HD
ENDBRANCH  39 298
BRANCH  40 300
HETATM  300  O   UNK N   1       6.453  -1.808  -0.608  0.00  0.00    -0.387 OA
HETATM  301  H   UNK N   1       6.257  -1.827  -1.558  0.00  0.00     0.210 HD
ENDBRANCH  40 300
ENDBRANCH  35  36
ENDBRANCH  34  35
ENDBRANCH  29  34
BRANCH  31 302
HETATM  302  C   UNK N   1      13.520   0.311   2.537  0.00  0.00     0.198 C 
BRANCH 302 303
HETATM  303  O   UNK N   1      14.530   1.199   2.906  0.00  0.00    -0.398 OA
HETATM  304  H   UNK N   1      15.417   0.899   3.162  0.00  0.00     0.209 HD
ENDBRANCH 302 303
ENDBRANCH  31 302
BRANCH  32 305
HETATM  305  O   UNK N   1      12.256   2.745   3.386  0.00  0.00    -0.390 OA
HETATM  306  H   UNK N   1      12.940   2.606   4.060  0.00  0.00     0.210 HD
ENDBRANCH  32 305
BRANCH  33 307
HETATM  307  O   UNK N   1      11.047   0.379   4.069  0.00  0.00    -0.387 OA
HETATM  308  H   UNK N   1      10.799  -0.175   4.826  0.00  0.00     0.210 HD
ENDBRANCH  33 307
ENDBRANCH  28  29
ENDBRANCH  27  28
ENDBRANCH  22  27
BRANCH  24 309
HETATM  309  C   UNK N   1       3.698   1.516   0.380  0.00  0.00     0.198 C 
BRANCH 309 310
HETATM  310  O   UNK N   1       3.281   1.416   1.707  0.00  0.00    -0.398 OA
HETATM  311  H   UNK N   1       3.076   1.633   2.630  0.00  0.00     0.209 HD
ENDBRANCH 309 310
ENDBRANCH  24 309
BRANCH  25 312
HETATM  312  O   UNK N   1       5.074   0.104  -1.966  0.00  0.00    -0.390 OA
HETATM  313  H   UNK N   1       4.281   0.089  -2.524  0.00  0.00     0.210 HD
ENDBRANCH  25 312
BRANCH  26 314
HETATM  314  O   UNK N   1       7.875   1.211  -1.971  0.00  0.00    -0.387 OA
HETATM  315  H   UNK N   1       8.356   0.842  -2.727  0.00  0.00     0.210 HD
ENDBRANCH  26 314
ENDBRANCH  21  22
ENDBRANCH  20  21
ENDBRANCH  15  20
BRANCH  17 316
HETATM  316  C   UNK N   1      12.836   4.979  -0.486  0.00  0.00     0.198 C 
BRANCH 316 317
HETATM  317  O   UNK N   1      12.792   5.581   0.771  0.00  0.00    -0.398 OA
HETATM  318  H   UNK N   1      13.139   5.817   1.646  0.00  0.00     0.209 HD
ENDBRANCH 316 317
ENDBRANCH  17 316
BRANCH  18 319
HETATM  319  O   UNK N   1      12.641   2.034  -1.210  0.00  0.00    -0.390 OA
HETATM  320  H   UNK N   1      12.315   1.185  -0.874  0.00  0.00     0.210 HD
ENDBRANCH  18 319
BRANCH  19 321
HETATM  321  O   UNK N   1      10.225   2.370  -3.265  0.00  0.00    -0.387 OA
HETATM  322  H   UNK N   1      10.037   2.405  -4.216  0.00  0.00     0.210 HD
ENDBRANCH  19 321
ENDBRANCH  14  15
ENDBRANCH  13  14
ENDBRANCH   3  13
BRANCH   3 323
HETATM  323  C   UNK N   1       6.894   5.675  -0.081  0.00  0.00     0.243 C 
BRANCH 323 324
HETATM  324  O   UNK N   1       6.917   7.061   0.050  0.00  0.00    -0.345 OA
BRANCH 324 325
HETATM  325  C   UNK N   1       8.216   7.617   0.074  0.00  0.00     0.215 C 
HETATM  326  O   UNK N   1       8.940   7.288   1.246  0.00  0.00    -0.341 OA
HETATM  327  C   UNK N   1      10.319   7.354   0.881  0.00  0.00     0.180 C 
HETATM  328  C   UNK N   1      10.406   7.859  -0.545  0.00  0.00     0.183 C 
HETATM  329  C   UNK N   1       9.148   7.281  -1.087  0.00  0.00     0.214 C 
BRANCH 327 330
HETATM  330  C   UNK N   1      11.090   8.304   1.785  0.00  0.00     0.198 C 
BRANCH 330 331
HETATM  331  O   UNK N   1      11.128   7.809   3.088  0.00  0.00    -0.398 OA
HETATM  332  H   UNK N   1      10.843   7.614   3.994  0.00  0.00     0.209 HD
ENDBRANCH 330 331
ENDBRANCH 327 330
BRANCH 328 333
HETATM  333  O   UNK N   1      11.541   7.416  -1.220  0.00  0.00    -0.390 OA
HETATM  334  H   UNK N   1      11.669   6.577  -1.689  0.00  0.00     0.210 HD
ENDBRANCH 328 333
BRANCH 329 335
HETATM  335  O   UNK N   1       8.785   7.850  -2.309  0.00  0.00    -0.387 OA
HETATM  336  H   UNK N   1       9.001   8.266  -3.158  0.00  0.00     0.210 HD
ENDBRANCH 329 335
BRANCH 325 337
HETATM  337  C   UNK N   1       7.960   9.093   0.101  0.00  0.00     0.243 C 
BRANCH 337 338
HETATM  338  O   UNK N   1       7.115   9.495  -0.965  0.00  0.00    -0.345 OA
BRANCH 338 339
HETATM  339  C   UNK N   1       6.238  10.483  -0.469  0.00  0.00     0.215 C 
HETATM  340  O   UNK N   1       5.481  11.060  -1.531  0.00  0.00    -0.341 OA
HETATM  341  C   UNK N   1       4.130  10.660  -1.370  0.00  0.00     0.180 C 
HETATM  342  C   UNK N   1       4.172   9.411  -0.568  0.00  0.00     0.183 C 
HETATM  343  C   UNK N   1       5.237   9.759   0.443  0.00  0.00     0.214 C 
BRANCH 341 344
HETATM  344  C   UNK N   1       3.269  11.720  -0.683  0.00  0.00     0.198 C 
BRANCH 344 345
HETATM  345  O   UNK N   1       1.967  11.250  -0.497  0.00  0.00    -0.398 OA
HETATM  346  H   UNK N   1       1.232  11.870  -0.368  0.00  0.00     0.209 HD
ENDBRANCH 344 345
ENDBRANCH 341 344
BRANCH 342 347
HETATM  347  O   UNK N   1       4.670   8.469  -1.453  0.00  0.00    -0.390 OA
HETATM  348  H   UNK N   1       4.272   7.837  -2.073  0.00  0.00     0.210 HD
ENDBRANCH 342 347
BRANCH 343 349
HETATM  349  O   UNK N   1       4.712  10.599   1.430  0.00  0.00    -0.387 OA
HETATM  350  H   UNK N   1       5.035  11.206   2.114  0.00  0.00     0.210 HD
ENDBRANCH 343 349
BRANCH 339 351
HETATM  351  C   UNK N   1       7.024  11.633   0.175  0.00  0.00     0.243 C 
BRANCH 351 352
HETATM  352  O   UNK N   1       8.425  11.667  -0.092  0.00  0.00    -0.345 OA
BRANCH 352 353
HETATM  353  C   UNK N   1       8.901  12.018  -1.404  0.00  0.00     0.215 C 
HETATM  354  O   UNK N   1      10.273  12.287  -1.214  0.00  0.00    -0.341 OA
HETATM  355  C   UNK N   1      10.873  11.029  -1.359  0.00  0.00     0.180 C 
HETATM  356  C   UNK N   1      10.334  10.490  -2.646  0.00  0.00     0.183 C 
HETATM  357  C   UNK N   1       8.884  10.824  -2.388  0.00  0.00     0.214 C 
BRANCH 355 358
HETATM  358  C   UNK N   1      12.386  11.086  -1.287  0.00  0.00     0.198 C 
BRANCH 358 359
HETATM  359  O   UNK N   1      12.779  11.130   0.053  0.00  0.00    -0.398 OA
HETATM  360  H   UNK N   1      12.942  10.908   0.983  0.00  0.00     0.209 HD
ENDBRANCH 358 359
ENDBRANCH 355 358
BRANCH 356 361
HETATM  361  O   UNK N   1      10.830  11.252  -3.709  0.00  0.00    -0.390 OA
HETATM  362  H   UNK N   1      11.460  11.218  -4.446  0.00  0.00     0.210 HD
ENDBRANCH 356 361
BRANCH 357 363
HETATM  363  O   UNK N   1       8.170  11.036  -3.572  0.00  0.00    -0.387 OA
HETATM  364  H   UNK N   1       8.050  11.538  -4.394  0.00  0.00     0.210 HD
ENDBRANCH 357 363
BRANCH 353 365
HETATM  365  C   UNK N   1       8.299  13.284  -2.052  0.00  0.00     0.243 C 
BRANCH 365 366
HETATM  366  O   UNK N   1       6.903  13.338  -1.939  0.00  0.00    -0.345 OA
BRANCH 366 367
HETATM  367  C   UNK N   1       6.528  14.333  -0.990  0.00  0.00     0.215 C 
HETATM  368  O   UNK N   1       6.480  15.589  -1.628  0.00  0.00    -0.341 OA
HETATM  369  C   UNK N   1       5.126  15.801  -1.975  0.00  0.00     0.180 C 
HETATM  370  C   UNK N   1       4.287  14.575  -1.634  0.00  0.00     0.183 C 
HETATM  371  C   UNK N   1       5.103  14.026  -0.512  0.00  0.00     0.214 C 
BRANCH 369 372
HETATM  372  C   UNK N   1       4.955  16.301  -3.407  0.00  0.00     0.198 C 
BRANCH 372 373
HETATM  373  O   UNK N   1       5.481  15.391  -4.324  0.00  0.00    -0.398 OA
HETATM  374  H   UNK N   1       5.115  14.758  -4.962  0.00  0.00     0.209 HD
ENDBRANCH 372 373
ENDBRANCH 369 372
BRANCH 370 375
HETATM  375  O   UNK N   1       4.269  13.653  -2.687  0.00  0.00    -0.390 OA
HETATM  376  H   UNK N   1       3.710  13.344  -3.416  0.00  0.00     0.210 HD
ENDBRANCH 370 375
BRANCH 371 377
HETATM  377  O   UNK N   1       4.782  14.736   0.650  0.00  0.00    -0.387 OA
HETATM  378  H   UNK N   1       5.097  15.175   1.455  0.00  0.00     0.210 HD
ENDBRANCH 371 377
BRANCH 367 379
HETATM  379  C   UNK N   1       7.435  14.352   0.263  0.00  0.00     0.243 C 
BRANCH 379 380
HETATM  380  O   UNK N   1       8.684  14.936   0.007  0.00  0.00    -0.345 OA
BRANCH 380 381
HETATM  381  C   UNK N   1       9.392  15.258   1.207  0.00  0.00     0.215 C 
HETATM  382  O   UNK N   1      10.289  16.272   0.849  0.00  0.00    -0.341 OA
HETATM  383  C   UNK N   1      11.481  15.665   0.406  0.00  0.00     0.180 C 
HETATM  384  C   UNK N   1      11.379  14.176   0.689  0.00  0.00     0.183 C 
HETATM  385  C   UNK N   1      10.255  14.085   1.680  0.00  0.00     0.214 C 
BRANCH 383 386
HETATM  386  C   UNK N   1      12.687  16.374   1.023  0.00  0.00     0.198 C 
HETATM  387  O   UNK N   1      12.570  16.453   2.412  0.00  0.00    -0.398 OA
HETATM  388  H   UNK N   1      12.577  16.551   3.377  0.00  0.00     0.209 HD
ENDBRANCH 383 386
BRANCH 384 389
HETATM  389  O   UNK N   1      12.571  13.618   1.160  0.00  0.00    -0.390 OA
HETATM  390  H   UNK N   1      12.649  12.708   1.487  0.00  0.00     0.210 HD
ENDBRANCH 384 389
BRANCH 385 391
HETATM  391  O   UNK N   1      10.756  14.342   2.965  0.00  0.00    -0.387 OA
HETATM  392  H   UNK N   1      11.083  14.131   3.853  0.00  0.00     0.210 HD
ENDBRANCH 385 391
BRANCH 381 393
HETATM  393  C   UNK N   1       8.512  15.779   2.374  0.00  0.00     0.243 C 
BRANCH 393 394
HETATM  394  O   UNK N   1       7.246  16.192   1.931  0.00  0.00    -0.345 OA
BRANCH 394 395
HETATM  395  C   UNK N   1       6.873  17.429   2.408  0.00  0.00     0.215 C 
HETATM  396  O   UNK N   1       6.933  17.435   3.847  0.00  0.00    -0.341 OA
HETATM  397  C   UNK N   1       5.754  16.743   4.256  0.00  0.00     0.180 C 
HETATM  398  C   UNK N   1       4.852  16.583   3.033  0.00  0.00     0.183 C 
HETATM  399  C   UNK N   1       5.402  17.626   2.109  0.00  0.00     0.214 C 
BRANCH 397 400
HETATM  400  C   UNK N   1       5.074  17.496   5.398  0.00  0.00     0.198 C 
BRANCH 400 401
HETATM  401  O   UNK N   1       4.066  16.702   5.945  0.00  0.00    -0.398 OA
HETATM  402  H   UNK N   1       3.237  17.034   6.325  0.00  0.00     0.209 HD
ENDBRANCH 400 401
ENDBRANCH 397 400
BRANCH 398 403
HETATM  403  O   UNK N   1       3.479  16.718   3.255  0.00  0.00    -0.390 OA
HETATM  404  H   UNK N   1       3.084  17.591   3.409  0.00  0.00     0.210 HD
ENDBRANCH 398 403
BRANCH 399 405
HETATM  405  O   UNK N   1       4.977  18.890   2.522  0.00  0.00    -0.387 OA
HETATM  406  H   UNK N   1       5.590  19.585   2.810  0.00  0.00     0.210 HD
ENDBRANCH 399 405
BRANCH 395 407
HETATM  407  C   UNK N   1       7.742  18.517   1.724  0.00  0.00     0.243 C 
BRANCH 407 408
HETATM  408  O   UNK N   1       7.700  18.265   0.318  0.00  0.00    -0.345 OA
BRANCH 408 409
HETATM  409  C   UNK N   1       8.705  18.910  -0.495  0.00  0.00     0.215 C 
HETATM  410  O   UNK N   1       9.098  17.985  -1.489  0.00  0.00    -0.341 OA
HETATM  411  C   UNK N   1      10.508  18.031  -1.560  0.00  0.00     0.180 C 
HETATM  412  C   UNK N   1      11.011  19.291  -0.876  0.00  0.00     0.183 C 
HETATM  413  C   UNK N   1       9.983  19.416   0.209  0.00  0.00     0.214 C 
BRANCH 411 414
HETATM  414  C   UNK N   1      10.987  17.892  -2.999  0.00  0.00     0.198 C 
BRANCH 414 415
HETATM  415  O   UNK N   1      12.379  17.798  -3.036  0.00  0.00    -0.398 OA
HETATM  416  H   UNK N   1      12.807  16.928  -3.061  0.00  0.00     0.209 HD
ENDBRANCH 414 415
ENDBRANCH 411 414
BRANCH 412 417
HETATM  417  O   UNK N   1      10.916  20.396  -1.735  0.00  0.00    -0.390 OA
HETATM  418  H   UNK N   1      11.545  20.835  -2.329  0.00  0.00     0.210 HD
ENDBRANCH 412 417
BRANCH 413 419
HETATM  419  O   UNK N   1      10.395  18.674   1.309  0.00  0.00    -0.387 OA
HETATM  420  H   UNK N   1      10.091  18.165   2.077  0.00  0.00     0.210 HD
ENDBRANCH 413 419
BRANCH 409 421
HETATM  421  C   UNK N   1       8.113  20.144  -1.215  0.00  0.00     0.243 C 
BRANCH 421 422
HETATM  422  O   UNK N   1       6.788  20.065  -1.670  0.00  0.00    -0.345 OA
BRANCH 422 423
HETATM  423  C   UNK N   1       5.813  20.295  -0.645  0.00  0.00     0.215 C 
HETATM  424  O   UNK N   1       5.294  19.036  -0.255  0.00  0.00    -0.341 OA
HETATM  425  C   UNK N   1       3.881  19.065  -0.370  0.00  0.00     0.180 C 
HETATM  426  C   UNK N   1       3.461  20.497  -0.477  0.00  0.00     0.183 C 
HETATM  427  C   UNK N   1       4.633  21.073  -1.238  0.00  0.00     0.214 C 
BRANCH 425 428
HETATM  428  C   UNK N   1       3.411  18.278  -1.581  0.00  0.00     0.198 C 
BRANCH 428 429
HETATM  429  O   UNK N   1       2.016  18.229  -1.608  0.00  0.00    -0.398 OA
HETATM  430  H   UNK N   1       1.502  19.051  -1.626  0.00  0.00     0.209 HD
ENDBRANCH 428 429
ENDBRANCH 425 428
BRANCH 426 431
HETATM  431  O   UNK N   1       3.402  20.997   0.822  0.00  0.00    -0.390 OA
HETATM  432  H   UNK N   1       3.684  21.206   1.726  0.00  0.00     0.210 HD
ENDBRANCH 426 431
BRANCH 427 433
HETATM  433  O   UNK N   1       4.472  20.789  -2.599  0.00  0.00    -0.387 OA
HETATM  434  H   UNK N   1       4.245  20.787  -3.542  0.00  0.00     0.210 HD
ENDBRANCH 427 433
BRANCH 423 435
HETATM  435  C   UNK N   1       6.227  21.170   0.610  0.00  0.00     0.243 C 
BRANCH 435 436
HETATM  436  O   UNK N   1       7.567  21.150   1.040  0.00  0.00    -0.345 OA
BRANCH 436 437
HETATM  437  C   UNK N   1       8.281  22.390   0.906  0.00  0.00     0.215 C 
HETATM  438  O   UNK N   1       9.619  22.060   0.586  0.00  0.00    -0.341 OA
HETATM  439  C   UNK N   1      10.499  22.722   1.462  0.00  0.00     0.180 C 
HETATM  440  C   UNK N   1       9.710  23.738   2.249  0.00  0.00     0.183 C 
HETATM  441  C   UNK N   1       8.327  23.126   2.252  0.00  0.00     0.214 C 
BRANCH 439 442
HETATM  442  C   UNK N   1      11.184  21.704   2.360  0.00  0.00     0.198 C 
BRANCH 442 443
HETATM  443  O   UNK N   1      12.273  22.297   3.001  0.00  0.00    -0.398 OA
HETATM  444  H   UNK N   1      13.008  21.847   3.446  0.00  0.00     0.209 HD
ENDBRANCH 442 443
ENDBRANCH 439 442
BRANCH 440 445
HETATM  445  O   UNK N   1       9.723  24.939   1.545  0.00  0.00    -0.390 OA
HETATM  446  H   UNK N   1      10.452  25.349   1.054  0.00  0.00     0.210 HD
ENDBRANCH 440 445
BRANCH 441 447
HETATM  447  O   UNK N   1       8.282  22.204   3.304  0.00  0.00    -0.387 OA
HETATM  448  H   UNK N   1       7.713  21.912   4.033  0.00  0.00     0.210 HD
ENDBRANCH 441 447
BRANCH 437 449
HETATM  449  C   UNK N   1       7.872  23.345  -0.255  0.00  0.00     0.243 C 
BRANCH 449 450
HETATM  450  O   UNK N   1       6.523  23.376  -0.658  0.00  0.00    -0.345 OA
BRANCH 450 451
HETATM  451  C   UNK N   1       5.657  24.270   0.038  0.00  0.00     0.215 C 
HETATM  452  O   UNK N   1       4.770  23.517   0.849  0.00  0.00    -0.341 OA
HETATM  453  C   UNK N   1       3.471  23.753   0.358  0.00  0.00     0.180 C 
HETATM  454  C   UNK N   1       3.487  25.109  -0.268  0.00  0.00     0.183 C 
HETATM  455  C   UNK N   1       4.797  25.005  -0.996  0.00  0.00     0.214 C 
BRANCH 453 456
HETATM  456  C   UNK N   1       2.419  23.636   1.454  0.00  0.00     0.198 C 
BRANCH 456 457
HETATM  457  O   UNK N   1       1.143  23.727   0.894  0.00  0.00    -0.398 OA
HETATM  458  H   UNK N   1       0.755  24.526   0.505  0.00  0.00     0.209 HD
ENDBRANCH 456 457
ENDBRANCH 453 456
BRANCH 454 459
HETATM  459  O   UNK N   1       3.589  26.050   0.759  0.00  0.00    -0.390 OA
HETATM  460  H   UNK N   1       4.191  26.316   1.472  0.00  0.00     0.210 HD
ENDBRANCH 454 459
BRANCH 455 461
HETATM  461  O   UNK N   1       4.602  24.227  -2.145  0.00  0.00    -0.387 OA
HETATM  462  H   UNK N   1       4.068  24.074  -2.940  0.00  0.00     0.210 HD
ENDBRANCH 455 461
BRANCH 451 463
HETATM  463  C   UNK N   1       6.309  25.336   0.955  0.00  0.00     0.243 C 
BRANCH 463 464
HETATM  464  O   UNK N   1       7.534  25.826   0.476  0.00  0.00    -0.345 OA
BRANCH 464 465
HETATM  465  C   UNK N   1       7.492  27.042  -0.249  0.00  0.00     0.215 C 
HETATM  466  O   UNK N   1       8.649  27.760   0.139  0.00  0.00    -0.341 OA
HETATM  467  C   UNK N   1       9.665  27.477  -0.802  0.00  0.00     0.180 C 
HETATM  468  C   UNK N   1       9.104  26.415  -1.741  0.00  0.00     0.183 C 
HETATM  469  C   UNK N   1       7.640  26.731  -1.741  0.00  0.00     0.214 C 
BRANCH 467 470
HETATM  470  C   UNK N   1      10.042  28.782  -1.499  0.00  0.00     0.198 C 
BRANCH 470 471
HETATM  471  O   UNK N   1      11.219  28.615  -2.229  0.00  0.00    -0.398 OA
HETATM  472  H   UNK N   1      11.528  27.848  -2.736  0.00  0.00     0.209 HD
ENDBRANCH 470 471
ENDBRANCH 467 470
BRANCH 468 473
HETATM  473  O   UNK N   1       9.673  26.413  -3.017  0.00  0.00    -0.390 OA
HETATM  474  H   UNK N   1       9.870  26.071  -3.903  0.00  0.00     0.210 HD
ENDBRANCH 468 473
BRANCH 469 475
HETATM  475  O   UNK N   1       7.405  27.872  -2.519  0.00  0.00    -0.387 OA
HETATM  476  H   UNK N   1       8.008  28.408  -3.058  0.00  0.00     0.210 HD
ENDBRANCH 469 475
BRANCH 465 477
HETATM  477  C   UNK N   1       6.284  27.940   0.075  0.00  0.00     0.243 C 
BRANCH 477 478
HETATM  478  O   UNK N   1       5.168  27.719  -0.751  0.00  0.00    -0.345 OA
BRANCH 478 479
HETATM  479  C   UNK N   1       4.293  28.845  -0.750  0.00  0.00     0.215 C 
HETATM  480  O   UNK N   1       3.200  28.518  -1.585  0.00  0.00    -0.341 OA
HETATM  481  C   UNK N   1       2.251  27.930  -0.741  0.00  0.00     0.180 C 
HETATM  482  C   UNK N   1       2.232  28.754   0.511  0.00  0.00     0.183 C 
HETATM  483  C   UNK N   1       3.669  29.190   0.631  0.00  0.00     0.214 C 
BRANCH 481 484
HETATM  484  C   UNK N   1       0.887  27.864  -1.406  0.00  0.00     0.198 C 
BRANCH 484 485
HETATM  485  O   UNK N   1       0.017  27.094  -0.634  0.00  0.00    -0.398 OA
HETATM  486  H   UNK N   1      -0.750  27.350  -0.097  0.00  0.00     0.209 HD
ENDBRANCH 484 485
ENDBRANCH 481 484
BRANCH 482 487
HETATM  487  O   UNK N   1       1.780  28.018   1.610  0.00  0.00    -0.390 OA
HETATM  488  H   UNK N   1       1.180  28.035   2.373  0.00  0.00     0.210 HD
ENDBRANCH 482 487
BRANCH 483 489
HETATM  489  O   UNK N   1       4.317  28.615   1.730  0.00  0.00    -0.387 OA
HETATM  490  H   UNK N   1       4.196  28.026   2.492  0.00  0.00     0.210 HD
ENDBRANCH 483 489
BRANCH 479 491
HETATM  491  C   UNK N   1       4.902  30.108  -1.391  0.00  0.00     0.243 C 
BRANCH 491 492
HETATM  492  O   UNK N   1       6.285  30.272  -1.208  0.00  0.00    -0.345 OA
BRANCH 492 493
HETATM  493  C   UNK N   1       6.632  31.176  -0.170  0.00  0.00     0.215 C 
HETATM  494  O   UNK N   1       6.780  30.482   1.058  0.00  0.00    -0.341 OA
HETATM  495  C   UNK N   1       8.159  30.488   1.358  0.00  0.00     0.180 C 
HETATM  496  C   UNK N   1       8.765  31.737   0.763  0.00  0.00     0.183 C 
HETATM  497  C   UNK N   1       8.032  31.666  -0.533  0.00  0.00     0.214 C 
BRANCH 495 498
HETATM  498  C   UNK N   1       8.412  30.349   2.851  0.00  0.00     0.198 C 
BRANCH 498 499
HETATM  499  O   UNK N   1       9.776  30.171   3.086  0.00  0.00    -0.398 OA
HETATM  500  H   UNK N   1      10.143  29.288   3.249  0.00  0.00     0.209 HD
ENDBRANCH 498 499
ENDBRANCH 495 498
BRANCH 496 501
HETATM  501  O   UNK N   1       8.363  32.858   1.493  0.00  0.00    -0.390 OA
HETATM  502  H   UNK N   1       8.898  33.489   2.000  0.00  0.00     0.210 HD
ENDBRANCH 496 501
BRANCH 497 503
HETATM  503  O   UNK N   1       8.077  32.834  -1.296  0.00  0.00    -0.387 OA
HETATM  504  H   UNK N   1       8.795  33.213  -1.827  0.00  0.00     0.210 HD
ENDBRANCH 497 503
BRANCH 493 505
HETATM  505  C   UNK N   1       5.656  32.369   0.044  0.00  0.00     0.243 C 
BRANCH 505 506
HETATM  506  O   UNK N   1       4.505  31.947   0.747  0.00  0.00    -0.345 OA
BRANCH 506 507
HETATM  507  C   UNK N   1       3.341  32.669   0.371  0.00  0.00     0.215 C 
HETATM  508  O   UNK N   1       2.241  32.102   1.051  0.00  0.00    -0.341 OA
HETATM  509  C   UNK N   1       1.088  32.309   0.239  0.00  0.00     0.180 C 
HETATM  510  C   UNK N   1       1.511  32.814  -1.131  0.00  0.00     0.183 C 
HETATM  511  C   UNK N   1       2.969  32.473  -1.099  0.00  0.00     0.214 C 
BRANCH 509 512
HETATM  512  C   UNK N   1       0.300  31.021   0.086  0.00  0.00     0.198 C 
BRANCH 512 513
HETATM  513  O   UNK N   1      -0.183  30.608   1.328  0.00  0.00    -0.398 OA
HETATM  514  H   UNK N   1      -0.600  30.755   2.191  0.00  0.00     0.209 HD
ENDBRANCH 512 513
ENDBRANCH 509 512
BRANCH 510 515
HETATM  515  O   UNK N   1       1.331  34.199  -1.176  0.00  0.00    -0.390 OA
HETATM  516  H   UNK N   1       2.102  34.787  -1.207  0.00  0.00     0.210 HD
ENDBRANCH 510 515
BRANCH 511 517
HETATM  517  O   UNK N   1       3.731  33.216  -2.005  0.00  0.00    -0.387 OA
HETATM  518  H   UNK N   1       4.442  33.015  -2.634  0.00  0.00     0.210 HD
ENDBRANCH 511 517
BRANCH 507 519
HETATM  519  C   UNK N   1       3.412  34.132   0.851  0.00  0.00     0.243 C 
BRANCH 519 520
HETATM  520  O   UNK N   1       4.180  34.959   0.012  0.00  0.00    -0.345 OA
BRANCH 520 521
HETATM  521  C   UNK N   1       4.813  35.962   0.789  0.00  0.00     0.215 C 
HETATM  522  O   UNK N   1       5.767  35.365   1.639  0.00  0.00    -0.341 OA
HETATM  523  C   UNK N   1       6.998  35.365   0.938  0.00  0.00     0.180 C 
HETATM  524  C   UNK N   1       6.809  36.058  -0.408  0.00  0.00     0.183 C 
HETATM  525  C   UNK N   1       5.590  36.888  -0.145  0.00  0.00     0.214 C 
BRANCH 523 526
HETATM  526  C   UNK N   1       8.047  36.085   1.771  0.00  0.00     0.198 C 
BRANCH 526 527
HETATM  527  O   UNK N   1       9.303  35.923   1.195  0.00  0.00    -0.398 OA
HETATM  528  H   UNK N   1       9.643  35.108   0.794  0.00  0.00     0.209 HD
ENDBRANCH 526 527
ENDBRANCH 523 526
BRANCH 524 529
HETATM  529  O   UNK N   1       6.517  35.111  -1.390  0.00  0.00    -0.390 OA
HETATM  530  H   UNK N   1       5.845  34.957  -2.072  0.00  0.00     0.210 HD
ENDBRANCH 524 529
BRANCH 525 531
HETATM  531  O   UNK N   1       5.990  38.049   0.528  0.00  0.00    -0.387 OA
HETATM  532  H   UNK N   1       6.825  38.211   0.994  0.00  0.00     0.210 HD
ENDBRANCH 525 531
BRANCH 521 533
HETATM  533  C   UNK N   1       3.791  36.784   1.600  0.00  0.00     0.235 C 
BRANCH 533 534
HETATM  534  O   UNK N   1       2.821  37.335   0.752  0.00  0.00    -0.395 OA
HETATM  535  H   UNK N   1       2.816  38.107   0.165  0.00  0.00     0.209 HD
ENDBRANCH 533 534
ENDBRANCH 521 533
ENDBRANCH 520 521
ENDBRANCH 519 520
ENDBRANCH 507 519
ENDBRANCH 506 507
ENDBRANCH 505 506
ENDBRANCH 493 505
ENDBRANCH 492 493
ENDBRANCH 491 492
ENDBRANCH 479 491
ENDBRANCH 478 479
ENDBRANCH 477 478
ENDBRANCH 465 477
ENDBRANCH 464 465
ENDBRANCH 463 464
ENDBRANCH 451 463
ENDBRANCH 450 451
ENDBRANCH 449 450
ENDBRANCH 437 449
ENDBRANCH 436 437
ENDBRANCH 435 436
ENDBRANCH 423 435
ENDBRANCH 422 423
ENDBRANCH 421 422
ENDBRANCH 409 421
ENDBRANCH 408 409
ENDBRANCH 407 408
ENDBRANCH 395 407
ENDBRANCH 394 395
ENDBRANCH 393 394
ENDBRANCH 381 393
ENDBRANCH 380 381
ENDBRANCH 379 380
ENDBRANCH 367 379
ENDBRANCH 366 367
ENDBRANCH 365 366
ENDBRANCH 353 365
ENDBRANCH 352 353
ENDBRANCH 351 352
ENDBRANCH 339 351
ENDBRANCH 338 339
ENDBRANCH 337 338
ENDBRANCH 325 337
ENDBRANCH 324 325
ENDBRANCH 323 324
ENDBRANCH   3 323
TORSDOF 263
