REMARK  7 active torsions:
REMARK  status: ('A' for Active; 'I' for Inactive)
REMARK    1  A    between atoms: S_4  and  C_8 
REMARK    2  A    between atoms: S_4  and  C_13 
REMARK    3  A    between atoms: N_5  and  C_10 
REMARK    4  A    between atoms: C_8  and  C_9 
REMARK    5  A    between atoms: C_8  and  C_10 
REMARK    6  A    between atoms: C_9  and  C_11 
REMARK    7  A    between atoms: C_11  and  C_12 
ROOT
HETATM    1  C   UNK N   1       3.359   0.939   0.057  0.00  0.00     0.071 C 
ENDROOT
BRANCH   1   2
HETATM    2  S   UNK N   1       2.279   0.179   1.322  0.00  0.00    -0.120 SA
BRANCH   2   3
HETATM    3  C   UNK N   1       2.143  -1.459   0.567  0.00  0.00     0.044 A 
HETATM    4  C   UNK N   1       3.098  -2.464   0.847  0.00  0.00     0.052 A 
HETATM    5 Cl   UNK N   1       4.447  -2.190   1.941  0.00  0.00    -0.083 Cl
HETATM    6  C   UNK N   1       2.967  -3.731   0.275  0.00  0.00     0.025 A 
HETATM    7  C   UNK N   1       1.893  -4.019  -0.566  0.00  0.00     0.003 A 
HETATM    8  C   UNK N   1       0.935  -3.041  -0.832  0.00  0.00     0.025 A 
HETATM    9  C   UNK N   1       1.052  -1.765  -0.273  0.00  0.00     0.052 A 
HETATM   10 Cl   UNK N   1      -0.202  -0.584  -0.617  0.00  0.00    -0.083 Cl
ENDBRANCH   2   3
ENDBRANCH   1   2
BRANCH   1  11
HETATM   11  C   UNK N   1       4.770   0.477   0.341  0.00  0.00     0.022 C 
BRANCH  11  12
HETATM   12  C   UNK N   1       5.416  -0.057  -0.927  0.00  0.00     0.040 C 
BRANCH  12  13
HETATM   13  C   UNK N   1       6.679  -0.749  -0.555  0.00  0.00    -0.058 A 
HETATM   14  C   UNK N   1       7.743  -0.030   0.005  0.00  0.00     0.009 A 
HETATM   15  C   UNK N   1       8.898  -0.699   0.416  0.00  0.00     0.024 A 
HETATM   16  C   UNK N   1       8.990  -2.086   0.271  0.00  0.00     0.034 A 
HETATM   17 Cl   UNK N   1      10.421  -2.928   0.820  0.00  0.00    -0.084 Cl
HETATM   18  C   UNK N   1       7.933  -2.803  -0.299  0.00  0.00     0.024 A 
HETATM   19  C   UNK N   1       6.778  -2.134  -0.713  0.00  0.00     0.009 A 
ENDBRANCH  12  13
ENDBRANCH  11  12
ENDBRANCH   1  11
BRANCH   1  20
HETATM   20  C   UNK N   1       3.154   2.466   0.175  0.00  0.00     0.144 C 
BRANCH  20  21
HETATM   21  N   UNK N   1       4.296   3.363  -0.053  0.00  0.00    -0.351 N 
HETATM   22  C   UNK N   1       5.580   3.078  -0.346  0.00  0.00     0.108 A 
HETATM   23  C   UNK N   1       6.277   4.266  -0.401  0.00  0.00     0.106 A 
HETATM   24  N   UNK N   1       5.420   5.276  -0.145  0.00  0.00    -0.361 N 
HETATM   25  C   UNK N   1       4.222   4.698   0.065  0.00  0.00     0.182 A 
ATOM     26  HN  UNK N   1       5.636   6.272  -0.116  1.00  0.00     0.166 HD
ENDBRANCH  20  21
ENDBRANCH   1  20
TORSDOF 7
