MODEL 1
REMARK VINA RESULT:      -6.4      0.000      0.000
REMARK  7 active torsions:
REMARK  status: ('A' for Active; 'I' for Inactive)
REMARK    1  A    between atoms: S_4  and  C_8 
REMARK    2  A    between atoms: S_4  and  C_13 
REMARK    3  A    between atoms: N_5  and  C_10 
REMARK    4  A    between atoms: C_8  and  C_9 
REMARK    5  A    between atoms: C_8  and  C_10 
REMARK    6  A    between atoms: C_9  and  C_11 
REMARK    7  A    between atoms: C_11  and  C_12 
ROOT
HETATM    1  C   UNK N   1      23.393  17.423   4.605  0.00  0.00     0.071 C 
ENDROOT
BRANCH   1   2
HETATM    2  S   UNK N   1      24.962  17.098   3.724  0.00  0.00    -0.120 SA
BRANCH   2   3
HETATM    3  C   UNK N   1      25.964  18.358   4.547  0.00  0.00     0.044 A 
HETATM    4  C   UNK N   1      26.824  18.013   5.616  0.00  0.00     0.052 A 
HETATM    5 Cl   UNK N   1      26.977  16.358   6.191  0.00  0.00    -0.083 Cl
HETATM    6  C   UNK N   1      27.609  18.993   6.226  0.00  0.00     0.025 A 
HETATM    7  C   UNK N   1      27.561  20.314   5.783  0.00  0.00     0.003 A 
HETATM    8  C   UNK N   1      26.732  20.661   4.717  0.00  0.00     0.025 A 
HETATM    9  C   UNK N   1      25.934  19.695   4.096  0.00  0.00     0.052 A 
HETATM   10 Cl   UNK N   1      24.935  20.183   2.737  0.00  0.00    -0.083 Cl
ENDBRANCH   2   3
ENDBRANCH   1   2
BRANCH   1  11
HETATM   11  C   UNK N   1      23.360  16.508   5.808  0.00  0.00     0.022 C 
BRANCH  11  12
HETATM   12  C   UNK N   1      21.925  16.254   6.239  0.00  0.00     0.040 C 
BRANCH  12  13
HETATM   13  C   UNK N   1      21.937  15.268   7.353  0.00  0.00    -0.058 A 
HETATM   14  C   UNK N   1      22.913  14.264   7.401  0.00  0.00     0.009 A 
HETATM   15  C   UNK N   1      22.959  13.387   8.487  0.00  0.00     0.024 A 
HETATM   16  C   UNK N   1      22.033  13.513   9.525  0.00  0.00     0.034 A 
HETATM   17 Cl   UNK N   1      22.114  12.438  10.902  0.00  0.00    -0.084 Cl
HETATM   18  C   UNK N   1      21.050  14.507   9.472  0.00  0.00     0.024 A 
HETATM   19  C   UNK N   1      21.002  15.383   8.385  0.00  0.00     0.009 A 
ENDBRANCH  12  13
ENDBRANCH  11  12
ENDBRANCH   1  11
BRANCH   1  20
HETATM   20  C   UNK N   1      22.263  17.170   3.583  0.00  0.00     0.144 C 
BRANCH  20  21
HETATM   21  N   UNK N   1      21.322  18.256   3.270  0.00  0.00    -0.351 N 
HETATM   22  C   UNK N   1      21.394  19.573   3.542  0.00  0.00     0.108 A 
HETATM   23  C   UNK N   1      20.231  20.163   3.096  0.00  0.00     0.106 A 
HETATM   24  N   UNK N   1      19.451  19.209   2.548  0.00  0.00    -0.361 N 
HETATM   25  C   UNK N   1      20.138  18.057   2.669  0.00  0.00     0.182 A 
ATOM     26  HN  UNK N   1      18.530  19.334   2.130  1.00  0.00     0.166 HD
ENDBRANCH  20  21
ENDBRANCH   1  20
TORSDOF 7
ENDMDL
MODEL 2
REMARK VINA RESULT:      -6.4      0.122      2.086
REMARK  7 active torsions:
REMARK  status: ('A' for Active; 'I' for Inactive)
REMARK    1  A    between atoms: S_4  and  C_8 
REMARK    2  A    between atoms: S_4  and  C_13 
REMARK    3  A    between atoms: N_5  and  C_10 
REMARK    4  A    between atoms: C_8  and  C_9 
REMARK    5  A    between atoms: C_8  and  C_10 
REMARK    6  A    between atoms: C_9  and  C_11 
REMARK    7  A    between atoms: C_11  and  C_12 
ROOT
HETATM    1  C   UNK N   1      23.464  17.367   4.608  0.00  0.00     0.071 C 
ENDROOT
BRANCH   1   2
HETATM    2  S   UNK N   1      25.032  17.030   3.729  0.00  0.00    -0.120 SA
BRANCH   2   3
HETATM    3  C   UNK N   1      26.032  18.310   4.526  0.00  0.00     0.044 A 
HETATM    4  C   UNK N   1      25.945  19.658   4.107  0.00  0.00     0.052 A 
HETATM    5 Cl   UNK N   1      24.865  20.166   2.816  0.00  0.00    -0.083 Cl
HETATM    6  C   UNK N   1      26.706  20.638   4.748  0.00  0.00     0.025 A 
HETATM    7  C   UNK N   1      27.547  20.301   5.807  0.00  0.00     0.003 A 
HETATM    8  C   UNK N   1      27.624  18.977   6.240  0.00  0.00     0.025 A 
HETATM    9  C   UNK N   1      26.874  17.981   5.608  0.00  0.00     0.052 A 
HETATM   10 Cl   UNK N   1      26.987  16.337   6.218  0.00  0.00    -0.083 Cl
ENDBRANCH   2   3
ENDBRANCH   1   2
BRANCH   1  11
HETATM   11  C   UNK N   1      23.421  16.450   5.808  0.00  0.00     0.022 C 
BRANCH  11  12
HETATM   12  C   UNK N   1      21.983  16.096   6.151  0.00  0.00     0.040 C 
BRANCH  12  13
HETATM   13  C   UNK N   1      21.987  15.240   7.367  0.00  0.00    -0.058 A 
HETATM   14  C   UNK N   1      21.004  15.401   8.352  0.00  0.00     0.009 A 
HETATM   15  C   UNK N   1      20.975  14.546   9.456  0.00  0.00     0.024 A 
HETATM   16  C   UNK N   1      21.924  13.528   9.576  0.00  0.00     0.034 A 
HETATM   17 Cl   UNK N   1      21.864  12.434  10.939  0.00  0.00    -0.084 Cl
HETATM   18  C   UNK N   1      22.913  13.373   8.599  0.00  0.00     0.024 A 
HETATM   19  C   UNK N   1      22.945  14.230   7.495  0.00  0.00     0.009 A 
ENDBRANCH  12  13
ENDBRANCH  11  12
ENDBRANCH   1  11
BRANCH   1  20
HETATM   20  C   UNK N   1      22.333  17.126   3.582  0.00  0.00     0.144 C 
BRANCH  20  21
HETATM   21  N   UNK N   1      21.400  18.218   3.273  0.00  0.00    -0.351 N 
HETATM   22  C   UNK N   1      21.378  19.493   3.710  0.00  0.00     0.108 A 
HETATM   23  C   UNK N   1      20.263  20.105   3.178  0.00  0.00     0.106 A 
HETATM   24  N   UNK N   1      19.606  19.207   2.415  0.00  0.00    -0.361 N 
HETATM   25  C   UNK N   1      20.319  18.067   2.491  0.00  0.00     0.182 A 
ATOM     26  HN  UNK N   1      18.747  19.361   1.888  1.00  0.00     0.166 HD
ENDBRANCH  20  21
ENDBRANCH   1  20
TORSDOF 7
ENDMDL
MODEL 3
REMARK VINA RESULT:      -6.4      6.414      8.904
REMARK  7 active torsions:
REMARK  status: ('A' for Active; 'I' for Inactive)
REMARK    1  A    between atoms: S_4  and  C_8 
REMARK    2  A    between atoms: S_4  and  C_13 
REMARK    3  A    between atoms: N_5  and  C_10 
REMARK    4  A    between atoms: C_8  and  C_9 
REMARK    5  A    between atoms: C_8  and  C_10 
REMARK    6  A    between atoms: C_9  and  C_11 
REMARK    7  A    between atoms: C_11  and  C_12 
ROOT
HETATM    1  C   UNK N   1      29.833  17.343   5.266  0.00  0.00     0.071 C 
ENDROOT
BRANCH   1   2
HETATM    2  S   UNK N   1      30.339  16.301   3.851  0.00  0.00    -0.120 SA
BRANCH   2   3
HETATM    3  C   UNK N   1      31.757  15.502   4.638  0.00  0.00     0.044 A 
HETATM    4  C   UNK N   1      32.957  16.217   4.860  0.00  0.00     0.052 A 
HETATM    5 Cl   UNK N   1      33.133  17.906   4.405  0.00  0.00    -0.083 Cl
HETATM    6  C   UNK N   1      34.036  15.594   5.490  0.00  0.00     0.025 A 
HETATM    7  C   UNK N   1      33.938  14.268   5.912  0.00  0.00     0.003 A 
HETATM    8  C   UNK N   1      32.753  13.561   5.715  0.00  0.00     0.025 A 
HETATM    9  C   UNK N   1      31.663  14.166   5.082  0.00  0.00     0.052 A 
HETATM   10 Cl   UNK N   1      30.185  13.237   4.891  0.00  0.00    -0.083 Cl
ENDBRANCH   2   3
ENDBRANCH   1   2
BRANCH   1  11
HETATM   11  C   UNK N   1      30.021  16.516   6.517  0.00  0.00     0.022 C 
BRANCH  11  12
HETATM   12  C   UNK N   1      30.391  17.409   7.690  0.00  0.00     0.040 C 
BRANCH  12  13
HETATM   13  C   UNK N   1      31.727  16.994   8.195  0.00  0.00    -0.058 A 
HETATM   14  C   UNK N   1      32.802  17.891   8.176  0.00  0.00     0.009 A 
HETATM   15  C   UNK N   1      34.034  17.516   8.716  0.00  0.00     0.024 A 
HETATM   16  C   UNK N   1      34.192  16.245   9.277  0.00  0.00     0.034 A 
HETATM   17 Cl   UNK N   1      35.724  15.789   9.987  0.00  0.00    -0.084 Cl
HETATM   18  C   UNK N   1      33.122  15.345   9.285  0.00  0.00     0.024 A 
HETATM   19  C   UNK N   1      31.890  15.719   8.743  0.00  0.00     0.009 A 
ENDBRANCH  12  13
ENDBRANCH  11  12
ENDBRANCH   1  11
BRANCH   1  20
HETATM   20  C   UNK N   1      28.371  17.761   4.994  0.00  0.00     0.144 C 
BRANCH  20  21
HETATM   21  N   UNK N   1      27.905  19.080   5.446  0.00  0.00    -0.351 N 
HETATM   22  C   UNK N   1      27.667  19.538   6.691  0.00  0.00     0.108 A 
HETATM   23  C   UNK N   1      27.184  20.824   6.586  0.00  0.00     0.106 A 
HETATM   24  N   UNK N   1      27.130  21.154   5.279  0.00  0.00    -0.361 N 
HETATM   25  C   UNK N   1      27.573  20.074   4.608  0.00  0.00     0.182 A 
ATOM     26  HN  UNK N   1      26.818  22.040   4.881  1.00  0.00     0.166 HD
ENDBRANCH  20  21
ENDBRANCH   1  20
TORSDOF 7
ENDMDL
MODEL 4
REMARK VINA RESULT:      -6.4     13.235     16.065
REMARK  7 active torsions:
REMARK  status: ('A' for Active; 'I' for Inactive)
REMARK    1  A    between atoms: S_4  and  C_8 
REMARK    2  A    between atoms: S_4  and  C_13 
REMARK    3  A    between atoms: N_5  and  C_10 
REMARK    4  A    between atoms: C_8  and  C_9 
REMARK    5  A    between atoms: C_8  and  C_10 
REMARK    6  A    between atoms: C_9  and  C_11 
REMARK    7  A    between atoms: C_11  and  C_12 
ROOT
HETATM    1  C   UNK N   1      28.731  23.965  -5.962  0.00  0.00     0.071 C 
ENDROOT
BRANCH   1   2
HETATM    2  S   UNK N   1      26.952  23.582  -6.150  0.00  0.00    -0.120 SA
BRANCH   2   3
HETATM    3  C   UNK N   1      26.303  25.144  -5.509  0.00  0.00     0.044 A 
HETATM    4  C   UNK N   1      26.414  25.462  -4.136  0.00  0.00     0.052 A 
HETATM    5 Cl   UNK N   1      27.191  24.381  -2.988  0.00  0.00    -0.083 Cl
HETATM    6  C   UNK N   1      25.929  26.682  -3.660  0.00  0.00     0.025 A 
HETATM    7  C   UNK N   1      25.341  27.598  -4.532  0.00  0.00     0.003 A 
HETATM    8  C   UNK N   1      25.246  27.302  -5.892  0.00  0.00     0.025 A 
HETATM    9  C   UNK N   1      25.721  26.083  -6.386  0.00  0.00     0.052 A 
HETATM   10 Cl   UNK N   1      25.604  25.779  -8.112  0.00  0.00    -0.083 Cl
ENDBRANCH   2   3
ENDBRANCH   1   2
BRANCH   1  11
HETATM   11  C   UNK N   1      29.119  24.853  -7.122  0.00  0.00     0.022 C 
BRANCH  11  12
HETATM   12  C   UNK N   1      30.218  25.816  -6.704  0.00  0.00     0.040 C 
BRANCH  12  13
HETATM   13  C   UNK N   1      29.585  27.084  -6.254  0.00  0.00    -0.058 A 
HETATM   14  C   UNK N   1      28.893  27.893  -7.165  0.00  0.00     0.009 A 
HETATM   15  C   UNK N   1      28.242  29.046  -6.720  0.00  0.00     0.024 A 
HETATM   16  C   UNK N   1      28.278  29.390  -5.366  0.00  0.00     0.034 A 
HETATM   17 Cl   UNK N   1      27.432  30.813  -4.803  0.00  0.00    -0.084 Cl
HETATM   18  C   UNK N   1      28.979  28.589  -4.458  0.00  0.00     0.024 A 
HETATM   19  C   UNK N   1      29.633  27.437  -4.903  0.00  0.00     0.009 A 
ENDBRANCH  12  13
ENDBRANCH  11  12
ENDBRANCH   1  11
BRANCH   1  20
HETATM   20  C   UNK N   1      29.464  22.605  -5.928  0.00  0.00     0.144 C 
BRANCH  20  21
HETATM   21  N   UNK N   1      30.250  22.243  -4.740  0.00  0.00    -0.351 N 
HETATM   22  C   UNK N   1      30.862  23.026  -3.831  0.00  0.00     0.108 A 
HETATM   23  C   UNK N   1      31.522  22.208  -2.940  0.00  0.00     0.106 A 
HETATM   24  N   UNK N   1      31.311  20.925  -3.302  0.00  0.00    -0.361 N 
HETATM   25  C   UNK N   1      30.536  20.976  -4.401  0.00  0.00     0.182 A 
ATOM     26  HN  UNK N   1      31.668  20.090  -2.838  1.00  0.00     0.166 HD
ENDBRANCH  20  21
ENDBRANCH   1  20
TORSDOF 7
ENDMDL
MODEL 5
REMARK VINA RESULT:      -6.3     13.392     15.488
REMARK  7 active torsions:
REMARK  status: ('A' for Active; 'I' for Inactive)
REMARK    1  A    between atoms: S_4  and  C_8 
REMARK    2  A    between atoms: S_4  and  C_13 
REMARK    3  A    between atoms: N_5  and  C_10 
REMARK    4  A    between atoms: C_8  and  C_9 
REMARK    5  A    between atoms: C_8  and  C_10 
REMARK    6  A    between atoms: C_9  and  C_11 
REMARK    7  A    between atoms: C_11  and  C_12 
ROOT
HETATM    1  C   UNK N   1      28.928  22.637  -5.994  0.00  0.00     0.071 C 
ENDROOT
BRANCH   1   2
HETATM    2  S   UNK N   1      28.816  23.124  -7.753  0.00  0.00    -0.120 SA
BRANCH   2   3
HETATM    3  C   UNK N   1      27.737  24.559  -7.536  0.00  0.00     0.044 A 
HETATM    4  C   UNK N   1      26.397  24.397  -7.111  0.00  0.00     0.052 A 
HETATM    5 Cl   UNK N   1      25.715  22.814  -6.760  0.00  0.00    -0.083 Cl
HETATM    6  C   UNK N   1      25.583  25.515  -6.925  0.00  0.00     0.025 A 
HETATM    7  C   UNK N   1      26.083  26.798  -7.146  0.00  0.00     0.003 A 
HETATM    8  C   UNK N   1      27.408  26.970  -7.545  0.00  0.00     0.025 A 
HETATM    9  C   UNK N   1      28.237  25.862  -7.742  0.00  0.00     0.052 A 
HETATM   10 Cl   UNK N   1      29.906  26.140  -8.213  0.00  0.00    -0.083 Cl
ENDBRANCH   2   3
ENDBRANCH   1   2
BRANCH   1  11
HETATM   11  C   UNK N   1      29.404  23.850  -5.226  0.00  0.00     0.022 C 
BRANCH  11  12
HETATM   12  C   UNK N   1      28.615  24.001  -3.936  0.00  0.00     0.040 C 
BRANCH  12  13
HETATM   13  C   UNK N   1      28.040  25.372  -3.895  0.00  0.00    -0.058 A 
HETATM   14  C   UNK N   1      26.704  25.569  -3.522  0.00  0.00     0.009 A 
HETATM   15  C   UNK N   1      26.193  26.864  -3.418  0.00  0.00     0.024 A 
HETATM   16  C   UNK N   1      27.015  27.963  -3.683  0.00  0.00     0.034 A 
HETATM   17 Cl   UNK N   1      26.385  29.586  -3.516  0.00  0.00    -0.084 Cl
HETATM   18  C   UNK N   1      28.346  27.766  -4.066  0.00  0.00     0.024 A 
HETATM   19  C   UNK N   1      28.858  26.470  -4.173  0.00  0.00     0.009 A 
ENDBRANCH  12  13
ENDBRANCH  11  12
ENDBRANCH   1  11
BRANCH   1  20
HETATM   20  C   UNK N   1      29.893  21.432  -5.940  0.00  0.00     0.144 C 
BRANCH  20  21
HETATM   21  N   UNK N   1      30.956  21.408  -4.925  0.00  0.00    -0.351 N 
HETATM   22  C   UNK N   1      32.257  21.742  -5.022  0.00  0.00     0.108 A 
HETATM   23  C   UNK N   1      32.854  21.485  -3.806  0.00  0.00     0.106 A 
HETATM   24  N   UNK N   1      31.918  20.997  -2.966  0.00  0.00    -0.361 N 
HETATM   25  C   UNK N   1      30.772  20.959  -3.673  0.00  0.00     0.182 A 
ATOM     26  HN  UNK N   1      32.051  20.715  -1.995  1.00  0.00     0.166 HD
ENDBRANCH  20  21
ENDBRANCH   1  20
TORSDOF 7
ENDMDL
MODEL 6
REMARK VINA RESULT:      -6.3     13.400     15.528
REMARK  7 active torsions:
REMARK  status: ('A' for Active; 'I' for Inactive)
REMARK    1  A    between atoms: S_4  and  C_8 
REMARK    2  A    between atoms: S_4  and  C_13 
REMARK    3  A    between atoms: N_5  and  C_10 
REMARK    4  A    between atoms: C_8  and  C_9 
REMARK    5  A    between atoms: C_8  and  C_10 
REMARK    6  A    between atoms: C_9  and  C_11 
REMARK    7  A    between atoms: C_11  and  C_12 
ROOT
HETATM    1  C   UNK N   1      28.903  22.624  -5.992  0.00  0.00     0.071 C 
ENDROOT
BRANCH   1   2
HETATM    2  S   UNK N   1      28.812  23.136  -7.745  0.00  0.00    -0.120 SA
BRANCH   2   3
HETATM    3  C   UNK N   1      27.750  24.582  -7.516  0.00  0.00     0.044 A 
HETATM    4  C   UNK N   1      28.238  25.884  -7.776  0.00  0.00     0.052 A 
HETATM    5 Cl   UNK N   1      29.878  26.170  -8.342  0.00  0.00    -0.083 Cl
HETATM    6  C   UNK N   1      27.399  26.989  -7.618  0.00  0.00     0.025 A 
HETATM    7  C   UNK N   1      26.076  26.819  -7.213  0.00  0.00     0.003 A 
HETATM    8  C   UNK N   1      25.579  25.538  -6.974  0.00  0.00     0.025 A 
HETATM    9  C   UNK N   1      26.405  24.420  -7.122  0.00  0.00     0.052 A 
HETATM   10 Cl   UNK N   1      25.716  22.829  -6.840  0.00  0.00    -0.083 Cl
ENDBRANCH   2   3
ENDBRANCH   1   2
BRANCH   1  11
HETATM   11  C   UNK N   1      29.351  23.830  -5.199  0.00  0.00     0.022 C 
BRANCH  11  12
HETATM   12  C   UNK N   1      28.526  23.964  -3.929  0.00  0.00     0.040 C 
BRANCH  12  13
HETATM   13  C   UNK N   1      28.010  25.356  -3.848  0.00  0.00    -0.058 A 
HETATM   14  C   UNK N   1      28.838  26.439  -4.174  0.00  0.00     0.009 A 
HETATM   15  C   UNK N   1      28.325  27.738  -4.163  0.00  0.00     0.024 A 
HETATM   16  C   UNK N   1      26.985  27.956  -3.831  0.00  0.00     0.034 A 
HETATM   17 Cl   UNK N   1      26.333  29.579  -3.854  0.00  0.00    -0.084 Cl
HETATM   18  C   UNK N   1      26.161  26.877  -3.494  0.00  0.00     0.024 A 
HETATM   19  C   UNK N   1      26.674  25.577  -3.502  0.00  0.00     0.009 A 
ENDBRANCH  12  13
ENDBRANCH  11  12
ENDBRANCH   1  11
BRANCH   1  20
HETATM   20  C   UNK N   1      29.883  21.430  -5.941  0.00  0.00     0.144 C 
BRANCH  20  21
HETATM   21  N   UNK N   1      30.946  21.417  -4.925  0.00  0.00    -0.351 N 
HETATM   22  C   UNK N   1      32.243  21.768  -5.021  0.00  0.00     0.108 A 
HETATM   23  C   UNK N   1      32.842  21.515  -3.805  0.00  0.00     0.106 A 
HETATM   24  N   UNK N   1      31.912  21.012  -2.968  0.00  0.00    -0.361 N 
HETATM   25  C   UNK N   1      30.768  20.961  -3.676  0.00  0.00     0.182 A 
ATOM     26  HN  UNK N   1      32.049  20.728  -1.998  1.00  0.00     0.166 HD
ENDBRANCH  20  21
ENDBRANCH   1  20
TORSDOF 7
ENDMDL
MODEL 7
REMARK VINA RESULT:      -6.3      5.159      8.179
REMARK  7 active torsions:
REMARK  status: ('A' for Active; 'I' for Inactive)
REMARK    1  A    between atoms: S_4  and  C_8 
REMARK    2  A    between atoms: S_4  and  C_13 
REMARK    3  A    between atoms: N_5  and  C_10 
REMARK    4  A    between atoms: C_8  and  C_9 
REMARK    5  A    between atoms: C_8  and  C_10 
REMARK    6  A    between atoms: C_9  and  C_11 
REMARK    7  A    between atoms: C_11  and  C_12 
ROOT
HETATM    1  C   UNK N   1      29.288  17.110   4.540  0.00  0.00     0.071 C 
ENDROOT
BRANCH   1   2
HETATM    2  S   UNK N   1      29.434  15.789   5.797  0.00  0.00    -0.120 SA
BRANCH   2   3
HETATM    3  C   UNK N   1      29.493  16.855   7.257  0.00  0.00     0.044 A 
HETATM    4  C   UNK N   1      30.691  17.512   7.623  0.00  0.00     0.052 A 
HETATM    5 Cl   UNK N   1      32.169  17.346   6.686  0.00  0.00    -0.083 Cl
HETATM    6  C   UNK N   1      30.715  18.350   8.739  0.00  0.00     0.025 A 
HETATM    7  C   UNK N   1      29.561  18.554   9.495  0.00  0.00     0.003 A 
HETATM    8  C   UNK N   1      28.370  17.927   9.131  0.00  0.00     0.025 A 
HETATM    9  C   UNK N   1      28.327  17.080   8.019  0.00  0.00     0.052 A 
HETATM   10 Cl   UNK N   1      26.792  16.343   7.589  0.00  0.00    -0.083 Cl
ENDBRANCH   2   3
ENDBRANCH   1   2
BRANCH   1  11
HETATM   11  C   UNK N   1      27.852  17.580   4.554  0.00  0.00     0.022 C 
BRANCH  11  12
HETATM   12  C   UNK N   1      27.770  19.039   4.134  0.00  0.00     0.040 C 
BRANCH  12  13
HETATM   13  C   UNK N   1      26.344  19.376   3.882  0.00  0.00    -0.058 A 
HETATM   14  C   UNK N   1      26.005  20.444   3.041  0.00  0.00     0.009 A 
HETATM   15  C   UNK N   1      24.664  20.709   2.755  0.00  0.00     0.024 A 
HETATM   16  C   UNK N   1      23.661  19.907   3.305  0.00  0.00     0.034 A 
HETATM   17 Cl   UNK N   1      21.985  20.217   2.917  0.00  0.00    -0.084 Cl
HETATM   18  C   UNK N   1      23.998  18.848   4.155  0.00  0.00     0.024 A 
HETATM   19  C   UNK N   1      25.339  18.584   4.444  0.00  0.00     0.009 A 
ENDBRANCH  12  13
ENDBRANCH  11  12
ENDBRANCH   1  11
BRANCH   1  20
HETATM   20  C   UNK N   1      29.740  16.483   3.202  0.00  0.00     0.144 C 
BRANCH  20  21
HETATM   21  N   UNK N   1      31.135  16.049   3.047  0.00  0.00    -0.351 N 
HETATM   22  C   UNK N   1      31.678  14.819   3.140  0.00  0.00     0.108 A 
HETATM   23  C   UNK N   1      33.041  14.943   2.976  0.00  0.00     0.106 A 
HETATM   24  N   UNK N   1      33.331  16.246   2.780  0.00  0.00    -0.361 N 
HETATM   25  C   UNK N   1      32.153  16.896   2.830  0.00  0.00     0.182 A 
ATOM     26  HN  UNK N   1      34.253  16.653   2.626  1.00  0.00     0.166 HD
ENDBRANCH  20  21
ENDBRANCH   1  20
TORSDOF 7
ENDMDL
MODEL 8
REMARK VINA RESULT:      -6.3     13.449     14.875
REMARK  7 active torsions:
REMARK  status: ('A' for Active; 'I' for Inactive)
REMARK    1  A    between atoms: S_4  and  C_8 
REMARK    2  A    between atoms: S_4  and  C_13 
REMARK    3  A    between atoms: N_5  and  C_10 
REMARK    4  A    between atoms: C_8  and  C_9 
REMARK    5  A    between atoms: C_8  and  C_10 
REMARK    6  A    between atoms: C_9  and  C_11 
REMARK    7  A    between atoms: C_11  and  C_12 
ROOT
HETATM    1  C   UNK N   1      27.841  25.125  -4.939  0.00  0.00     0.071 C 
ENDROOT
BRANCH   1   2
HETATM    2  S   UNK N   1      29.246  24.719  -6.036  0.00  0.00    -0.120 SA
BRANCH   2   3
HETATM    3  C   UNK N   1      30.003  23.448  -4.994  0.00  0.00     0.044 A 
HETATM    4  C   UNK N   1      30.691  23.801  -3.810  0.00  0.00     0.052 A 
HETATM    5 Cl   UNK N   1      30.837  25.471  -3.279  0.00  0.00    -0.083 Cl
HETATM    6  C   UNK N   1      31.249  22.807  -3.004  0.00  0.00     0.025 A 
HETATM    7  C   UNK N   1      31.126  21.463  -3.352  0.00  0.00     0.003 A 
HETATM    8  C   UNK N   1      30.433  21.104  -4.507  0.00  0.00     0.025 A 
HETATM    9  C   UNK N   1      29.871  22.084  -5.330  0.00  0.00     0.052 A 
HETATM   10 Cl   UNK N   1      28.980  21.571  -6.754  0.00  0.00    -0.083 Cl
ENDBRANCH   2   3
ENDBRANCH   1   2
BRANCH   1  11
HETATM   11  C   UNK N   1      26.909  23.935  -4.951  0.00  0.00     0.022 C 
BRANCH  11  12
HETATM   12  C   UNK N   1      25.697  24.223  -5.823  0.00  0.00     0.040 C 
BRANCH  12  13
HETATM   13  C   UNK N   1      25.773  23.361  -7.032  0.00  0.00    -0.058 A 
HETATM   14  C   UNK N   1      25.334  22.032  -6.984  0.00  0.00     0.009 A 
HETATM   15  C   UNK N   1      25.343  21.251  -8.142  0.00  0.00     0.024 A 
HETATM   16  C   UNK N   1      25.789  21.797  -9.349  0.00  0.00     0.034 A 
HETATM   17 Cl   UNK N   1      25.766  20.831 -10.806  0.00  0.00    -0.084 Cl
HETATM   18  C   UNK N   1      26.240  23.121  -9.395  0.00  0.00     0.024 A 
HETATM   19  C   UNK N   1      26.233  23.902  -8.236  0.00  0.00     0.009 A 
ENDBRANCH  12  13
ENDBRANCH  11  12
ENDBRANCH   1  11
BRANCH   1  20
HETATM   20  C   UNK N   1      27.220  26.426  -5.496  0.00  0.00     0.144 C 
BRANCH  20  21
HETATM   21  N   UNK N   1      26.988  27.557  -4.587  0.00  0.00    -0.351 N 
HETATM   22  C   UNK N   1      27.860  28.270  -3.847  0.00  0.00     0.108 A 
HETATM   23  C   UNK N   1      27.142  29.188  -3.112  0.00  0.00     0.106 A 
HETATM   24  N   UNK N   1      25.834  29.040  -3.404  0.00  0.00    -0.361 N 
HETATM   25  C   UNK N   1      25.768  28.040  -4.303  0.00  0.00     0.182 A 
ATOM     26  HN  UNK N   1      25.055  29.576  -3.023  1.00  0.00     0.166 HD
ENDBRANCH  20  21
ENDBRANCH   1  20
TORSDOF 7
ENDMDL
MODEL 9
REMARK VINA RESULT:      -6.3     13.313     15.676
REMARK  7 active torsions:
REMARK  status: ('A' for Active; 'I' for Inactive)
REMARK    1  A    between atoms: S_4  and  C_8 
REMARK    2  A    between atoms: S_4  and  C_13 
REMARK    3  A    between atoms: N_5  and  C_10 
REMARK    4  A    between atoms: C_8  and  C_9 
REMARK    5  A    between atoms: C_8  and  C_10 
REMARK    6  A    between atoms: C_9  and  C_11 
REMARK    7  A    between atoms: C_11  and  C_12 
ROOT
HETATM    1  C   UNK N   1      28.782  24.541  -3.966  0.00  0.00     0.071 C 
ENDROOT
BRANCH   1   2
HETATM    2  S   UNK N   1      29.930  25.963  -3.920  0.00  0.00    -0.120 SA
BRANCH   2   3
HETATM    3  C   UNK N   1      29.217  26.890  -5.299  0.00  0.00     0.044 A 
HETATM    4  C   UNK N   1      28.504  28.090  -5.070  0.00  0.00     0.052 A 
HETATM    5 Cl   UNK N   1      28.284  28.750  -3.455  0.00  0.00    -0.083 Cl
HETATM    6  C   UNK N   1      27.979  28.808  -6.147  0.00  0.00     0.025 A 
HETATM    7  C   UNK N   1      28.160  28.355  -7.453  0.00  0.00     0.003 A 
HETATM    8  C   UNK N   1      28.879  27.184  -7.691  0.00  0.00     0.025 A 
HETATM    9  C   UNK N   1      29.408  26.449  -6.625  0.00  0.00     0.052 A 
HETATM   10 Cl   UNK N   1      30.332  25.000  -6.987  0.00  0.00    -0.083 Cl
ENDBRANCH   2   3
ENDBRANCH   1   2
BRANCH   1  11
HETATM   11  C   UNK N   1      27.429  25.047  -3.520  0.00  0.00     0.022 C 
BRANCH  11  12
HETATM   12  C   UNK N   1      26.323  24.186  -4.109  0.00  0.00     0.040 C 
BRANCH  12  13
HETATM   13  C   UNK N   1      26.060  24.645  -5.499  0.00  0.00    -0.058 A 
HETATM   14  C   UNK N   1      25.506  25.910  -5.736  0.00  0.00     0.009 A 
HETATM   15  C   UNK N   1      25.328  26.360  -7.046  0.00  0.00     0.024 A 
HETATM   16  C   UNK N   1      25.706  25.550  -8.120  0.00  0.00     0.034 A 
HETATM   17 Cl   UNK N   1      25.518  26.129  -9.759  0.00  0.00    -0.084 Cl
HETATM   18  C   UNK N   1      26.248  24.282  -7.885  0.00  0.00     0.024 A 
HETATM   19  C   UNK N   1      26.424  23.830  -6.574  0.00  0.00     0.009 A 
ENDBRANCH  12  13
ENDBRANCH  11  12
ENDBRANCH   1  11
BRANCH   1  20
HETATM   20  C   UNK N   1      29.392  23.463  -3.042  0.00  0.00     0.144 C 
BRANCH  20  21
HETATM   21  N   UNK N   1      30.156  22.357  -3.638  0.00  0.00    -0.351 N 
HETATM   22  C   UNK N   1      30.062  21.794  -4.859  0.00  0.00     0.108 A 
HETATM   23  C   UNK N   1      30.957  20.747  -4.914  0.00  0.00     0.106 A 
HETATM   24  N   UNK N   1      31.599  20.671  -3.730  0.00  0.00    -0.361 N 
HETATM   25  C   UNK N   1      31.091  21.661  -2.972  0.00  0.00     0.182 A 
ATOM     26  HN  UNK N   1      32.320  20.001  -3.465  1.00  0.00     0.166 HD
ENDBRANCH  20  21
ENDBRANCH   1  20
TORSDOF 7
ENDMDL
