MODEL 1
REMARK VINA RESULT:      -6.7      0.000      0.000
REMARK  6 active torsions:
REMARK  status: ('A' for Active; 'I' for Inactive)
REMARK    1  A    between atoms: C_13  and  O_2 
REMARK    2  A    between atoms: C_15  and  O_3 
REMARK    3  A    between atoms: O_4  and  C_17 
REMARK    4  A    between atoms: C_14  and  N_5 
REMARK    5  A    between atoms: N_12  and  C_21 
REMARK    6  A    between atoms: C_16  and  C_17 
ROOT
HETATM    1  N   UNK N   1      31.596  16.928   7.355  0.00  0.00    -0.297 N 
HETATM    2  N   UNK N   1      29.890  17.468   5.989  0.00  0.00    -0.346 N 
ATOM      3  HN  UNK N   1      29.320  17.594   5.153  1.00  0.00     0.167 HD
HETATM    4  N   UNK N   1      30.557  17.684   9.411  0.00  0.00    -0.336 N 
ATOM      5  HN  UNK N   1      31.345  17.434  10.010  1.00  0.00     0.168 HD
HETATM    6  N   UNK N   1      28.375  18.592   9.118  0.00  0.00    -0.337 N 
ATOM      7  HN  UNK N   1      27.540  19.017   9.523  1.00  0.00     0.168 HD
HETATM    8  C   UNK N   1      30.601  17.467   8.075  0.00  0.00     0.142 A 
HETATM    9  C   UNK N   1      31.143  16.933   6.074  0.00  0.00     0.188 A 
HETATM   10  C   UNK N   1      29.581  17.791   7.256  0.00  0.00     0.122 A 
HETATM   11  C   UNK N   1      28.434  18.376   7.771  0.00  0.00     0.131 A 
HETATM   12  C   UNK N   1      29.424  18.247   9.936  0.00  0.00     0.183 A 
ENDROOT
BRANCH   1  13
HETATM   13  C   UNK N   1      32.917  16.482   7.814  0.00  0.00     0.262 C 
HETATM   14  O   UNK N   1      32.803  15.553   8.877  0.00  0.00    -0.353 OA
HETATM   15  C   UNK N   1      33.777  15.937   9.824  0.00  0.00     0.179 C 
HETATM   16  C   UNK N   1      34.753  16.831   9.111  0.00  0.00     0.182 C 
HETATM   17  C   UNK N   1      33.799  17.618   8.292  0.00  0.00     0.198 C 
BRANCH  15  18
HETATM   18  C   UNK N   1      34.493  14.725  10.392  0.00  0.00     0.198 C 
BRANCH  18  19
HETATM   19  O   UNK N   1      33.974  14.418  11.650  0.00  0.00    -0.398 OA
HETATM   20  H   UNK N   1      33.107  14.743  11.937  0.00  0.00     0.209 HD
ENDBRANCH  18  19
ENDBRANCH  15  18
BRANCH  16  21
HETATM   21  O   UNK N   1      35.461  17.642   9.998  0.00  0.00    -0.390 OA
HETATM   22  H   UNK N   1      35.542  18.592  10.177  0.00  0.00     0.210 HD
ENDBRANCH  16  21
BRANCH  17  23
HETATM   23  O   UNK N   1      34.467  18.224   7.229  0.00  0.00    -0.388 OA
HETATM   24  H   UNK N   1      35.123  17.795   6.658  0.00  0.00     0.210 HD
ENDBRANCH  17  23
ENDBRANCH   1  13
BRANCH  11  25
HETATM   25  N   UNK N   1      27.360  18.745   6.936  0.00  0.00    -0.383 N 
HETATM   26  H   UNK N   1      27.161  18.255   6.106  0.00  0.00     0.157 HD
HETATM   27  H   UNK N   1      26.797  19.512   7.189  0.00  0.00     0.157 HD
ENDBRANCH  11  25
TORSDOF 6
ENDMDL
MODEL 2
REMARK VINA RESULT:      -6.2      8.736     11.459
REMARK  6 active torsions:
REMARK  status: ('A' for Active; 'I' for Inactive)
REMARK    1  A    between atoms: C_13  and  O_2 
REMARK    2  A    between atoms: C_15  and  O_3 
REMARK    3  A    between atoms: O_4  and  C_17 
REMARK    4  A    between atoms: C_14  and  N_5 
REMARK    5  A    between atoms: N_12  and  C_21 
REMARK    6  A    between atoms: C_16  and  C_17 
ROOT
HETATM    1  N   UNK N   1      24.007  19.583   3.523  0.00  0.00    -0.297 N 
HETATM    2  N   UNK N   1      26.168  20.022   3.071  0.00  0.00    -0.346 N 
ATOM      3  HN  UNK N   1      27.014  20.473   2.722  1.00  0.00     0.167 HD
HETATM    4  N   UNK N   1      24.390  17.528   4.751  0.00  0.00    -0.336 N 
ATOM      5  HN  UNK N   1      23.404  17.348   4.939  1.00  0.00     0.168 HD
HETATM    6  N   UNK N   1      26.685  16.917   4.928  0.00  0.00    -0.337 N 
ATOM      7  HN  UNK N   1      27.396  16.267   5.264  1.00  0.00     0.168 HD
HETATM    8  C   UNK N   1      24.777  18.620   4.049  0.00  0.00     0.142 A 
HETATM    9  C   UNK N   1      24.878  20.440   2.927  0.00  0.00     0.188 A 
HETATM   10  C   UNK N   1      26.071  18.883   3.777  0.00  0.00     0.122 A 
HETATM   11  C   UNK N   1      27.063  18.018   4.212  0.00  0.00     0.131 A 
HETATM   12  C   UNK N   1      25.360  16.673   5.200  0.00  0.00     0.183 A 
ENDROOT
BRANCH   1  13
HETATM   13  C   UNK N   1      22.542  19.683   3.521  0.00  0.00     0.262 C 
HETATM   14  O   UNK N   1      21.944  18.409   3.361  0.00  0.00    -0.353 OA
HETATM   15  C   UNK N   1      20.900  18.594   2.429  0.00  0.00     0.179 C 
HETATM   16  C   UNK N   1      20.615  20.070   2.378  0.00  0.00     0.182 C 
HETATM   17  C   UNK N   1      22.005  20.581   2.425  0.00  0.00     0.198 C 
BRANCH  15  18
HETATM   18  C   UNK N   1      19.654  17.834   2.846  0.00  0.00     0.198 C 
BRANCH  18  19
HETATM   19  O   UNK N   1      18.517  18.559   2.488  0.00  0.00    -0.398 OA
HETATM   20  H   UNK N   1      17.738  18.603   3.063  0.00  0.00     0.209 HD
ENDBRANCH  18  19
ENDBRANCH  15  18
BRANCH  16  21
HETATM   21  O   UNK N   1      19.972  20.436   1.195  0.00  0.00    -0.390 OA
HETATM   22  H   UNK N   1      19.901  21.232   0.646  0.00  0.00     0.210 HD
ENDBRANCH  16  21
BRANCH  17  23
HETATM   23  O   UNK N   1      22.011  21.919   2.819  0.00  0.00    -0.388 OA
HETATM   24  H   UNK N   1      21.325  22.571   2.608  0.00  0.00     0.210 HD
ENDBRANCH  17  23
ENDBRANCH   1  13
BRANCH  11  25
HETATM   25  N   UNK N   1      28.422  18.255   3.924  0.00  0.00    -0.383 N 
HETATM   26  H   UNK N   1      28.939  18.939   4.408  0.00  0.00     0.157 HD
HETATM   27  H   UNK N   1      28.865  17.725   3.222  0.00  0.00     0.157 HD
ENDBRANCH  11  25
TORSDOF 6
ENDMDL
MODEL 3
REMARK VINA RESULT:      -6.0      3.789      6.659
REMARK  6 active torsions:
REMARK  status: ('A' for Active; 'I' for Inactive)
REMARK    1  A    between atoms: C_13  and  O_2 
REMARK    2  A    between atoms: C_15  and  O_3 
REMARK    3  A    between atoms: O_4  and  C_17 
REMARK    4  A    between atoms: C_14  and  N_5 
REMARK    5  A    between atoms: N_12  and  C_21 
REMARK    6  A    between atoms: C_16  and  C_17 
ROOT
HETATM    1  N   UNK N   1      34.942  16.108   9.737  0.00  0.00    -0.297 N 
HETATM    2  N   UNK N   1      36.507  15.719  11.308  0.00  0.00    -0.346 N 
ATOM      3  HN  UNK N   1      37.118  15.831  12.117  1.00  0.00     0.167 HD
HETATM    4  N   UNK N   1      35.239  14.028   8.527  0.00  0.00    -0.336 N 
ATOM      5  HN  UNK N   1      34.528  14.229   7.823  1.00  0.00     0.168 HD
HETATM    6  N   UNK N   1      36.912  12.603   9.443  0.00  0.00    -0.337 N 
ATOM      7  HN  UNK N   1      37.435  11.728   9.405  1.00  0.00     0.168 HD
HETATM    8  C   UNK N   1      35.510  14.913   9.515  0.00  0.00     0.142 A 
HETATM    9  C   UNK N   1      35.565  16.590  10.845  0.00  0.00     0.188 A 
HETATM   10  C   UNK N   1      36.447  14.682  10.455  0.00  0.00     0.122 A 
HETATM   11  C   UNK N   1      37.182  13.507  10.431  0.00  0.00     0.131 A 
HETATM   12  C   UNK N   1      35.946  12.856   8.499  0.00  0.00     0.183 A 
ENDROOT
BRANCH   1  13
HETATM   13  C   UNK N   1      33.919  16.795   8.940  0.00  0.00     0.262 C 
HETATM   14  O   UNK N   1      32.996  15.873   8.389  0.00  0.00    -0.353 OA
HETATM   15  C   UNK N   1      32.798  16.285   7.053  0.00  0.00     0.179 C 
HETATM   16  C   UNK N   1      33.277  17.707   6.957  0.00  0.00     0.182 C 
HETATM   17  C   UNK N   1      34.495  17.603   7.795  0.00  0.00     0.198 C 
BRANCH  15  18
HETATM   18  C   UNK N   1      31.333  16.197   6.665  0.00  0.00     0.198 C 
BRANCH  18  19
HETATM   19  O   UNK N   1      30.770  17.473   6.660  0.00  0.00    -0.398 OA
HETATM   20  H   UNK N   1      31.225  18.229   6.260  0.00  0.00     0.209 HD
ENDBRANCH  18  19
ENDBRANCH  15  18
BRANCH  16  21
HETATM   21  O   UNK N   1      33.583  18.067   5.645  0.00  0.00    -0.390 OA
HETATM   22  H   UNK N   1      34.369  18.069   5.077  0.00  0.00     0.210 HD
ENDBRANCH  16  21
BRANCH  17  23
HETATM   23  O   UNK N   1      34.894  18.870   8.220  0.00  0.00    -0.388 OA
HETATM   24  H   UNK N   1      34.341  19.667   8.213  0.00  0.00     0.210 HD
ENDBRANCH  17  23
ENDBRANCH   1  13
BRANCH  11  25
HETATM   25  N   UNK N   1      38.184  13.247  11.388  0.00  0.00    -0.383 N 
HETATM   26  H   UNK N   1      38.946  13.857  11.514  0.00  0.00     0.157 HD
HETATM   27  H   UNK N   1      38.119  12.436  11.943  0.00  0.00     0.157 HD
ENDBRANCH  11  25
TORSDOF 6
ENDMDL
MODEL 4
REMARK VINA RESULT:      -5.9      3.296      5.788
REMARK  6 active torsions:
REMARK  status: ('A' for Active; 'I' for Inactive)
REMARK    1  A    between atoms: C_13  and  O_2 
REMARK    2  A    between atoms: C_15  and  O_3 
REMARK    3  A    between atoms: O_4  and  C_17 
REMARK    4  A    between atoms: C_14  and  N_5 
REMARK    5  A    between atoms: N_12  and  C_21 
REMARK    6  A    between atoms: C_16  and  C_17 
ROOT
HETATM    1  N   UNK N   1      32.859  15.801   8.314  0.00  0.00    -0.297 N 
HETATM    2  N   UNK N   1      32.918  13.891   9.505  0.00  0.00    -0.346 N 
ATOM      3  HN  UNK N   1      32.728  12.941   9.825  1.00  0.00     0.167 HD
HETATM    4  N   UNK N   1      34.488  17.008   9.643  0.00  0.00    -0.336 N 
ATOM      5  HN  UNK N   1      34.441  17.865   9.090  1.00  0.00     0.168 HD
HETATM    6  N   UNK N   1      35.364  15.761  11.473  0.00  0.00    -0.337 N 
ATOM      7  HN  UNK N   1      35.984  15.709  12.281  1.00  0.00     0.168 HD
HETATM    8  C   UNK N   1      33.730  15.932   9.325  0.00  0.00     0.142 A 
HETATM    9  C   UNK N   1      32.369  14.538   8.436  0.00  0.00     0.188 A 
HETATM   10  C   UNK N   1      33.764  14.789  10.038  0.00  0.00     0.122 A 
HETATM   11  C   UNK N   1      34.589  14.684  11.147  0.00  0.00     0.131 A 
HETATM   12  C   UNK N   1      35.319  16.914  10.726  0.00  0.00     0.183 A 
ENDROOT
BRANCH   1  13
HETATM   13  C   UNK N   1      32.456  16.802   7.319  0.00  0.00     0.262 C 
HETATM   14  O   UNK N   1      31.180  16.504   6.781  0.00  0.00    -0.353 OA
HETATM   15  C   UNK N   1      31.295  16.715   5.391  0.00  0.00     0.179 C 
HETATM   16  C   UNK N   1      32.522  17.557   5.174  0.00  0.00     0.182 C 
HETATM   17  C   UNK N   1      33.425  16.916   6.159  0.00  0.00     0.198 C 
BRANCH  15  18
HETATM   18  C   UNK N   1      30.069  17.424   4.842  0.00  0.00     0.198 C 
BRANCH  18  19
HETATM   19  O   UNK N   1      30.027  17.286   3.455  0.00  0.00    -0.398 OA
HETATM   20  H   UNK N   1      30.250  16.450   3.019  0.00  0.00     0.209 HD
ENDBRANCH  18  19
ENDBRANCH  15  18
BRANCH  16  21
HETATM   21  O   UNK N   1      33.012  17.440   3.874  0.00  0.00    -0.390 OA
HETATM   22  H   UNK N   1      33.312  16.724   3.293  0.00  0.00     0.210 HD
ENDBRANCH  16  21
BRANCH  17  23
HETATM   23  O   UNK N   1      34.484  17.769   6.466  0.00  0.00    -0.388 OA
HETATM   24  H   UNK N   1      34.608  18.232   7.309  0.00  0.00     0.210 HD
ENDBRANCH  17  23
ENDBRANCH   1  13
BRANCH  11  25
HETATM   25  N   UNK N   1      34.629  13.509  11.925  0.00  0.00    -0.383 N 
HETATM   26  H   UNK N   1      35.473  13.035  12.097  0.00  0.00     0.157 HD
HETATM   27  H   UNK N   1      33.792  13.155  12.304  0.00  0.00     0.157 HD
ENDBRANCH  11  25
TORSDOF 6
ENDMDL
MODEL 5
REMARK VINA RESULT:      -5.8      1.813      3.237
REMARK  6 active torsions:
REMARK  status: ('A' for Active; 'I' for Inactive)
REMARK    1  A    between atoms: C_13  and  O_2 
REMARK    2  A    between atoms: C_15  and  O_3 
REMARK    3  A    between atoms: O_4  and  C_17 
REMARK    4  A    between atoms: C_14  and  N_5 
REMARK    5  A    between atoms: N_12  and  C_21 
REMARK    6  A    between atoms: C_16  and  C_17 
ROOT
HETATM    1  N   UNK N   1      32.164  16.618   6.779  0.00  0.00    -0.297 N 
HETATM    2  N   UNK N   1      30.031  17.100   6.241  0.00  0.00    -0.346 N 
ATOM      3  HN  UNK N   1      29.034  17.300   6.314  1.00  0.00     0.167 HD
HETATM    4  N   UNK N   1      33.026  16.599   4.513  0.00  0.00    -0.336 N 
ATOM      5  HN  UNK N   1      33.985  16.376   4.781  1.00  0.00     0.168 HD
HETATM    6  N   UNK N   1      31.386  17.055   2.847  0.00  0.00    -0.337 N 
ATOM      7  HN  UNK N   1      31.146  17.173   1.863  1.00  0.00     0.168 HD
HETATM    8  C   UNK N   1      32.056  16.735   5.447  0.00  0.00     0.142 A 
HETATM    9  C   UNK N   1      30.911  16.848   7.253  0.00  0.00     0.188 A 
HETATM   10  C   UNK N   1      30.779  17.022   5.126  0.00  0.00     0.122 A 
HETATM   11  C   UNK N   1      30.414  17.182   3.798  0.00  0.00     0.131 A 
HETATM   12  C   UNK N   1      32.685  16.770   3.198  0.00  0.00     0.183 A 
ENDROOT
BRANCH   1  13
HETATM   13  C   UNK N   1      33.347  16.260   7.571  0.00  0.00     0.262 C 
HETATM   14  O   UNK N   1      33.071  15.175   8.439  0.00  0.00    -0.353 OA
HETATM   15  C   UNK N   1      33.657  15.520   9.676  0.00  0.00     0.179 C 
HETATM   16  C   UNK N   1      34.650  16.615   9.400  0.00  0.00     0.182 C 
HETATM   17  C   UNK N   1      33.868  17.403   8.418  0.00  0.00     0.198 C 
BRANCH  15  18
HETATM   18  C   UNK N   1      34.354  14.326  10.303  0.00  0.00     0.198 C 
BRANCH  18  19
HETATM   19  O   UNK N   1      34.205  14.368  11.689  0.00  0.00    -0.398 OA
HETATM   20  H   UNK N   1      33.345  14.227  12.114  0.00  0.00     0.209 HD
ENDBRANCH  18  19
ENDBRANCH  15  18
BRANCH  16  21
HETATM   21  O   UNK N   1      34.938  17.358  10.545  0.00  0.00    -0.390 OA
HETATM   22  H   UNK N   1      34.667  18.210  10.921  0.00  0.00     0.210 HD
ENDBRANCH  16  21
BRANCH  17  23
HETATM   23  O   UNK N   1      34.715  18.232   7.685  0.00  0.00    -0.388 OA
HETATM   24  H   UNK N   1      34.432  18.887   7.027  0.00  0.00     0.210 HD
ENDBRANCH  17  23
ENDBRANCH   1  13
BRANCH  11  25
HETATM   25  N   UNK N   1      29.082  17.461   3.430  0.00  0.00    -0.383 N 
HETATM   26  H   UNK N   1      28.642  16.985   2.690  0.00  0.00     0.157 HD
HETATM   27  H   UNK N   1      28.581  18.148   3.927  0.00  0.00     0.157 HD
ENDBRANCH  11  25
TORSDOF 6
ENDMDL
MODEL 6
REMARK VINA RESULT:      -5.7     10.954     12.007
REMARK  6 active torsions:
REMARK  status: ('A' for Active; 'I' for Inactive)
REMARK    1  A    between atoms: C_13  and  O_2 
REMARK    2  A    between atoms: C_15  and  O_3 
REMARK    3  A    between atoms: O_4  and  C_17 
REMARK    4  A    between atoms: C_14  and  N_5 
REMARK    5  A    between atoms: N_12  and  C_21 
REMARK    6  A    between atoms: C_16  and  C_17 
ROOT
HETATM    1  N   UNK N   1      21.202  16.995   5.950  0.00  0.00    -0.297 N 
HETATM    2  N   UNK N   1      21.161  18.791   4.594  0.00  0.00    -0.346 N 
ATOM      3  HN  UNK N   1      21.270  19.741   4.239  1.00  0.00     0.167 HD
HETATM    4  N   UNK N   1      20.233  15.431   4.372  0.00  0.00    -0.336 N 
ATOM      5  HN  UNK N   1      20.258  14.632   5.006  1.00  0.00     0.168 HD
HETATM    6  N   UNK N   1      19.702  16.390   2.257  0.00  0.00    -0.337 N 
ATOM      7  HN  UNK N   1      19.329  16.281   1.314  1.00  0.00     0.168 HD
HETATM    8  C   UNK N   1      20.683  16.646   4.764  0.00  0.00     0.142 A 
HETATM    9  C   UNK N   1      21.494  18.317   5.829  0.00  0.00     0.188 A 
HETATM   10  C   UNK N   1      20.657  17.722   3.953  0.00  0.00     0.122 A 
HETATM   11  C   UNK N   1      20.151  17.613   2.667  0.00  0.00     0.131 A 
HETATM   12  C   UNK N   1      19.744  15.304   3.099  0.00  0.00     0.183 A 
ENDROOT
BRANCH   1  13
HETATM   13  C   UNK N   1      21.371  16.168   7.152  0.00  0.00     0.262 C 
HETATM   14  O   UNK N   1      21.568  14.807   6.812  0.00  0.00    -0.353 OA
HETATM   15  C   UNK N   1      20.763  14.072   7.709  0.00  0.00     0.179 C 
HETATM   16  C   UNK N   1      20.434  14.988   8.855  0.00  0.00     0.182 C 
HETATM   17  C   UNK N   1      20.188  16.237   8.096  0.00  0.00     0.198 C 
BRANCH  15  18
HETATM   18  C   UNK N   1      21.494  12.841   8.215  0.00  0.00     0.198 C 
BRANCH  18  19
HETATM   19  O   UNK N   1      21.066  12.537   9.508  0.00  0.00    -0.398 OA
HETATM   20  H   UNK N   1      21.079  13.197  10.218  0.00  0.00     0.209 HD
ENDBRANCH  18  19
ENDBRANCH  15  18
BRANCH  16  21
HETATM   21  O   UNK N   1      19.295  14.572   9.545  0.00  0.00    -0.390 OA
HETATM   22  H   UNK N   1      18.375  14.356   9.326  0.00  0.00     0.210 HD
ENDBRANCH  16  21
BRANCH  17  23
HETATM   23  O   UNK N   1      20.280  17.340   8.944  0.00  0.00    -0.388 OA
HETATM   24  H   UNK N   1      20.042  17.349   9.885  0.00  0.00     0.210 HD
ENDBRANCH  17  23
ENDBRANCH   1  13
BRANCH  11  25
HETATM   25  N   UNK N   1      20.092  18.726   1.804  0.00  0.00    -0.383 N 
HETATM   26  H   UNK N   1      20.747  18.852   1.080  0.00  0.00     0.157 HD
HETATM   27  H   UNK N   1      19.379  19.394   1.929  0.00  0.00     0.157 HD
ENDBRANCH  11  25
TORSDOF 6
ENDMDL
MODEL 7
REMARK VINA RESULT:      -5.7      8.353     11.059
REMARK  6 active torsions:
REMARK  status: ('A' for Active; 'I' for Inactive)
REMARK    1  A    between atoms: C_13  and  O_2 
REMARK    2  A    between atoms: C_15  and  O_3 
REMARK    3  A    between atoms: O_4  and  C_17 
REMARK    4  A    between atoms: C_14  and  N_5 
REMARK    5  A    between atoms: N_12  and  C_21 
REMARK    6  A    between atoms: C_16  and  C_17 
ROOT
HETATM    1  N   UNK N   1      24.262  18.557   3.766  0.00  0.00    -0.297 N 
HETATM    2  N   UNK N   1      26.021  17.173   3.523  0.00  0.00    -0.346 N 
ATOM      3  HN  UNK N   1      26.586  16.350   3.314  1.00  0.00     0.167 HD
HETATM    4  N   UNK N   1      25.514  20.456   4.603  0.00  0.00    -0.336 N 
ATOM      5  HN  UNK N   1      24.701  21.063   4.708  1.00  0.00     0.168 HD
HETATM    6  N   UNK N   1      27.856  20.067   4.792  0.00  0.00    -0.337 N 
ATOM      7  HN  UNK N   1      28.784  20.410   5.041  1.00  0.00     0.168 HD
HETATM    8  C   UNK N   1      25.383  19.190   4.141  0.00  0.00     0.142 A 
HETATM    9  C   UNK N   1      24.671  17.317   3.386  0.00  0.00     0.188 A 
HETATM   10  C   UNK N   1      26.435  18.361   3.997  0.00  0.00     0.122 A 
HETATM   11  C   UNK N   1      27.710  18.789   4.333  0.00  0.00     0.131 A 
HETATM   12  C   UNK N   1      26.769  20.899   4.923  0.00  0.00     0.183 A 
ENDROOT
BRANCH   1  13
HETATM   13  C   UNK N   1      22.878  19.046   3.806  0.00  0.00     0.262 C 
HETATM   14  O   UNK N   1      21.955  17.974   3.738  0.00  0.00    -0.353 OA
HETATM   15  C   UNK N   1      20.956  18.391   2.832  0.00  0.00     0.179 C 
HETATM   16  C   UNK N   1      21.073  19.885   2.706  0.00  0.00     0.182 C 
HETATM   17  C   UNK N   1      22.550  20.005   2.679  0.00  0.00     0.198 C 
BRANCH  15  18
HETATM   18  C   UNK N   1      19.573  18.014   3.332  0.00  0.00     0.198 C 
BRANCH  18  19
HETATM   19  O   UNK N   1      18.604  18.532   2.472  0.00  0.00    -0.398 OA
HETATM   20  H   UNK N   1      18.463  19.486   2.379  0.00  0.00     0.209 HD
ENDBRANCH  18  19
ENDBRANCH  15  18
BRANCH  16  21
HETATM   21  O   UNK N   1      20.497  20.356   1.526  0.00  0.00    -0.390 OA
HETATM   22  H   UNK N   1      20.455  21.197   1.046  0.00  0.00     0.210 HD
ENDBRANCH  16  21
BRANCH  17  23
HETATM   23  O   UNK N   1      22.932  21.308   2.996  0.00  0.00    -0.388 OA
HETATM   24  H   UNK N   1      23.805  21.576   3.322  0.00  0.00     0.210 HD
ENDBRANCH  17  23
ENDBRANCH   1  13
BRANCH  11  25
HETATM   25  N   UNK N   1      28.826  17.937   4.213  0.00  0.00    -0.383 N 
HETATM   26  H   UNK N   1      29.734  18.293   4.081  0.00  0.00     0.157 HD
HETATM   27  H   UNK N   1      28.694  16.962   4.262  0.00  0.00     0.157 HD
ENDBRANCH  11  25
TORSDOF 6
ENDMDL
MODEL 8
REMARK VINA RESULT:      -5.7      3.196      5.815
REMARK  6 active torsions:
REMARK  status: ('A' for Active; 'I' for Inactive)
REMARK    1  A    between atoms: C_13  and  O_2 
REMARK    2  A    between atoms: C_15  and  O_3 
REMARK    3  A    between atoms: O_4  and  C_17 
REMARK    4  A    between atoms: C_14  and  N_5 
REMARK    5  A    between atoms: N_12  and  C_21 
REMARK    6  A    between atoms: C_16  and  C_17 
ROOT
HETATM    1  N   UNK N   1      32.851  16.164   7.974  0.00  0.00    -0.297 N 
HETATM    2  N   UNK N   1      34.067  14.292   7.678  0.00  0.00    -0.346 N 
ATOM      3  HN  UNK N   1      34.396  13.396   7.321  1.00  0.00     0.167 HD
HETATM    4  N   UNK N   1      34.185  17.081   9.779  0.00  0.00    -0.336 N 
ATOM      5  HN  UNK N   1      33.617  17.920   9.897  1.00  0.00     0.168 HD
HETATM    6  N   UNK N   1      36.038  15.722  10.403  0.00  0.00    -0.337 N 
ATOM      7  HN  UNK N   1      36.853  15.570  10.998  1.00  0.00     0.168 HD
HETATM    8  C   UNK N   1      33.873  16.153   8.844  0.00  0.00     0.142 A 
HETATM    9  C   UNK N   1      32.987  15.014   7.262  0.00  0.00     0.188 A 
HETATM   10  C   UNK N   1      34.599  15.032   8.667  0.00  0.00     0.122 A 
HETATM   11  C   UNK N   1      35.708  14.789   9.462  0.00  0.00     0.131 A 
HETATM   12  C   UNK N   1      35.288  16.863  10.561  0.00  0.00     0.183 A 
ENDROOT
BRANCH   1  13
HETATM   13  C   UNK N   1      31.776  17.154   7.840  0.00  0.00     0.262 C 
HETATM   14  O   UNK N   1      31.046  17.282   9.048  0.00  0.00    -0.353 OA
HETATM   15  C   UNK N   1      29.688  17.320   8.669  0.00  0.00     0.179 C 
HETATM   16  C   UNK N   1      29.650  17.651   7.202  0.00  0.00     0.182 C 
HETATM   17  C   UNK N   1      30.787  16.818   6.743  0.00  0.00     0.198 C 
BRANCH  15  18
HETATM   18  C   UNK N   1      28.927  18.367   9.462  0.00  0.00     0.198 C 
BRANCH  18  19
HETATM   19  O   UNK N   1      27.556  18.129   9.364  0.00  0.00    -0.398 OA
HETATM   20  H   UNK N   1      26.903  18.804   9.602  0.00  0.00     0.209 HD
ENDBRANCH  18  19
ENDBRANCH  15  18
BRANCH  16  21
HETATM   21  O   UNK N   1      28.451  17.257   6.610  0.00  0.00    -0.390 OA
HETATM   22  H   UNK N   1      27.734  16.634   6.808  0.00  0.00     0.210 HD
ENDBRANCH  16  21
BRANCH  17  23
HETATM   23  O   UNK N   1      31.237  17.264   5.501  0.00  0.00    -0.388 OA
HETATM   24  H   UNK N   1      32.090  17.040   5.097  0.00  0.00     0.210 HD
ENDBRANCH  17  23
ENDBRANCH   1  13
BRANCH  11  25
HETATM   25  N   UNK N   1      36.474  13.615   9.315  0.00  0.00    -0.383 N 
HETATM   26  H   UNK N   1      36.504  13.123   8.463  0.00  0.00     0.157 HD
HETATM   27  H   UNK N   1      36.991  13.279  10.083  0.00  0.00     0.157 HD
ENDBRANCH  11  25
TORSDOF 6
ENDMDL
MODEL 9
REMARK VINA RESULT:      -5.6     13.346     15.241
REMARK  6 active torsions:
REMARK  status: ('A' for Active; 'I' for Inactive)
REMARK    1  A    between atoms: C_13  and  O_2 
REMARK    2  A    between atoms: C_15  and  O_3 
REMARK    3  A    between atoms: O_4  and  C_17 
REMARK    4  A    between atoms: C_14  and  N_5 
REMARK    5  A    between atoms: N_12  and  C_21 
REMARK    6  A    between atoms: C_16  and  C_17 
ROOT
HETATM    1  N   UNK N   1      28.788  22.982  -5.786  0.00  0.00    -0.297 N 
HETATM    2  N   UNK N   1      27.481  22.090  -7.387  0.00  0.00    -0.346 N 
ATOM      3  HN  UNK N   1      27.116  21.462  -8.103  1.00  0.00     0.167 HD
HETATM    4  N   UNK N   1      27.437  24.956  -5.390  0.00  0.00    -0.336 N 
ATOM      5  HN  UNK N   1      28.047  25.342  -4.670  1.00  0.00     0.168 HD
HETATM    6  N   UNK N   1      25.486  25.084  -6.750  0.00  0.00    -0.337 N 
ATOM      7  HN  UNK N   1      24.640  25.585  -7.024  1.00  0.00     0.168 HD
HETATM    8  C   UNK N   1      27.734  23.784  -5.999  0.00  0.00     0.142 A 
HETATM    9  C   UNK N   1      28.617  21.943  -6.646  0.00  0.00     0.188 A 
HETATM   10  C   UNK N   1      26.953  23.249  -6.959  0.00  0.00     0.122 A 
HETATM   11  C   UNK N   1      25.800  23.905  -7.363  0.00  0.00     0.131 A 
HETATM   12  C   UNK N   1      26.293  25.607  -5.767  0.00  0.00     0.183 A 
ENDROOT
BRANCH   1  13
HETATM   13  C   UNK N   1      29.923  23.188  -4.878  0.00  0.00     0.262 C 
HETATM   14  O   UNK N   1      30.761  22.046  -4.841  0.00  0.00    -0.353 OA
HETATM   15  C   UNK N   1      31.073  21.848  -3.479  0.00  0.00     0.179 C 
HETATM   16  C   UNK N   1      30.766  23.136  -2.766  0.00  0.00     0.182 C 
HETATM   17  C   UNK N   1      29.502  23.492  -3.454  0.00  0.00     0.198 C 
BRANCH  15  18
HETATM   18  C   UNK N   1      32.536  21.484  -3.300  0.00  0.00     0.198 C 
BRANCH  18  19
HETATM   19  O   UNK N   1      32.778  21.149  -1.968  0.00  0.00    -0.398 OA
HETATM   20  H   UNK N   1      32.354  21.624  -1.237  0.00  0.00     0.209 HD
ENDBRANCH  18  19
ENDBRANCH  15  18
BRANCH  16  21
HETATM   21  O   UNK N   1      30.571  22.941  -1.399  0.00  0.00    -0.390 OA
HETATM   22  H   UNK N   1      29.915  22.505  -0.833  0.00  0.00     0.210 HD
ENDBRANCH  16  21
BRANCH  17  23
HETATM   23  O   UNK N   1      29.230  24.849  -3.285  0.00  0.00    -0.388 OA
HETATM   24  H   UNK N   1      28.347  25.239  -3.192  0.00  0.00     0.210 HD
ENDBRANCH  17  23
ENDBRANCH   1  13
BRANCH  11  25
HETATM   25  N   UNK N   1      24.975  23.381  -8.379  0.00  0.00    -0.383 N 
HETATM   26  H   UNK N   1      25.075  22.455  -8.697  0.00  0.00     0.157 HD
HETATM   27  H   UNK N   1      24.282  23.955  -8.779  0.00  0.00     0.157 HD
ENDBRANCH  11  25
TORSDOF 6
ENDMDL
