MODEL 1
REMARK VINA RESULT:      -7.8      0.000      0.000
REMARK  3 active torsions:
REMARK  status: ('A' for Active; 'I' for Inactive)
REMARK    1  A    between atoms: O_2  and  C_22 
REMARK       I    between atoms: N_7  and  C_14 
REMARK       I    between atoms: N_7  and  C_22 
REMARK    2  A    between atoms: C_10  and  C_15 
REMARK    3  A    between atoms: C_15  and  C_16 
ROOT
HETATM    1  O   UNK N   1      35.670  17.372  10.406  0.00  0.00    -0.238 OA
HETATM    2  N   UNK N   1      34.482  13.601  11.615  0.00  0.00    -0.189 N 
HETATM    3  N   UNK N   1      35.748  15.404  12.148  0.00  0.00    -0.189 N 
ATOM      4  HN  UNK N   1      36.195  16.319  12.104  1.00  0.00     0.184 HD
HETATM    5  N   UNK N   1      34.484  15.493  10.057  0.00  0.00    -0.135 N 
HETATM    6  C   UNK N   1      35.107  13.390  12.787  0.00  0.00     0.077 A 
HETATM    7  C   UNK N   1      35.864  14.476  13.099  0.00  0.00     0.076 A 
HETATM    8  C   UNK N   1      35.814  12.298  14.819  0.00  0.00     0.017 A 
HETATM    9  C   UNK N   1      35.049  12.270  13.621  0.00  0.00     0.048 A 
HETATM   10  C   UNK N   1      36.623  14.550  14.251  0.00  0.00     0.033 A 
HETATM   11  C   UNK N   1      36.592  13.448  15.110  0.00  0.00     0.018 A 
HETATM   12  C   UNK N   1      34.898  14.845  11.253  0.00  0.00     0.687 A 
HETATM   13  C   UNK N   1      34.898  16.738   9.695  0.00  0.00     0.378 C 
HETATM   14  H   UNK N   1      33.869  12.999  11.133  0.00  0.00     0.184 HD
HETATM   15  H   UNK N   1      33.864  15.016   9.458  0.00  0.00     0.189 HD
ENDROOT
BRANCH   8  16
HETATM   16  C   UNK N   1      35.797  11.131  15.756  0.00  0.00     0.192 C 
HETATM   17  O   UNK N   1      35.823  10.004  15.282  0.00  0.00    -0.287 OA
BRANCH  16  18
HETATM   18  C   UNK N   1      35.749  11.277  17.250  0.00  0.00     0.015 A 
HETATM   19  C   UNK N   1      35.241  12.433  17.869  0.00  0.00     0.015 A 
HETATM   20  C   UNK N   1      35.206  12.550  19.259  0.00  0.00     0.001 A 
HETATM   21  C   UNK N   1      35.679  11.509  20.056  0.00  0.00     0.000 A 
HETATM   22  C   UNK N   1      36.187  10.353  19.459  0.00  0.00     0.001 A 
HETATM   23  C   UNK N   1      36.223  10.236  18.065  0.00  0.00     0.015 A 
ENDBRANCH  16  18
ENDBRANCH   8  16
BRANCH  13  24
HETATM   24  O   UNK N   1      34.451  17.276   8.536  0.00  0.00    -0.308 OA
HETATM   25  C   UNK N   1      33.160  17.731   8.390  0.00  0.00     0.215 C 
ENDBRANCH  13  24
TORSDOF 3
ENDMDL
MODEL 2
REMARK VINA RESULT:      -7.6     10.330     14.441
REMARK  3 active torsions:
REMARK  status: ('A' for Active; 'I' for Inactive)
REMARK    1  A    between atoms: O_2  and  C_22 
REMARK       I    between atoms: N_7  and  C_14 
REMARK       I    between atoms: N_7  and  C_22 
REMARK    2  A    between atoms: C_10  and  C_15 
REMARK    3  A    between atoms: C_15  and  C_16 
ROOT
HETATM    1  O   UNK N   1      22.016  21.283   2.615  0.00  0.00    -0.238 OA
HETATM    2  N   UNK N   1      24.078  18.118   4.295  0.00  0.00    -0.189 N 
HETATM    3  N   UNK N   1      24.253  20.243   3.524  0.00  0.00    -0.189 N 
ATOM      4  HN  UNK N   1      24.014  21.149   3.123  1.00  0.00     0.184 HD
HETATM    5  N   UNK N   1      22.051  19.184   3.422  0.00  0.00    -0.135 N 
HETATM    6  C   UNK N   1      25.347  18.549   4.424  0.00  0.00     0.077 A 
HETATM    7  C   UNK N   1      25.442  19.823   3.958  0.00  0.00     0.076 A 
HETATM    8  C   UNK N   1      27.698  18.557   4.963  0.00  0.00     0.017 A 
HETATM    9  C   UNK N   1      26.454  17.869   4.939  0.00  0.00     0.048 A 
HETATM   10  C   UNK N   1      26.628  20.532   3.962  0.00  0.00     0.033 A 
HETATM   11  C   UNK N   1      27.758  19.885   4.469  0.00  0.00     0.018 A 
HETATM   12  C   UNK N   1      23.437  19.183   3.741  0.00  0.00     0.687 A 
HETATM   13  C   UNK N   1      21.408  20.249   2.869  0.00  0.00     0.378 C 
HETATM   14  H   UNK N   1      23.703  17.243   4.543  0.00  0.00     0.184 HD
HETATM   15  H   UNK N   1      21.528  18.370   3.610  0.00  0.00     0.189 HD
ENDROOT
BRANCH   8  16
HETATM   16  C   UNK N   1      28.923  17.886   5.502  0.00  0.00     0.192 C 
HETATM   17  O   UNK N   1      29.705  17.380   4.710  0.00  0.00    -0.287 OA
BRANCH  16  18
HETATM   18  C   UNK N   1      29.237  17.804   6.968  0.00  0.00     0.015 A 
HETATM   19  C   UNK N   1      28.412  18.397   7.941  0.00  0.00     0.015 A 
HETATM   20  C   UNK N   1      28.722  18.311   9.298  0.00  0.00     0.001 A 
HETATM   21  C   UNK N   1      29.865  17.627   9.708  0.00  0.00     0.000 A 
HETATM   22  C   UNK N   1      30.697  17.031   8.757  0.00  0.00     0.001 A 
HETATM   23  C   UNK N   1      30.386  17.119   7.395  0.00  0.00     0.015 A 
ENDBRANCH  16  18
ENDBRANCH   8  16
BRANCH  13  24
HETATM   24  O   UNK N   1      20.085  20.159   2.598  0.00  0.00    -0.308 OA
HETATM   25  C   UNK N   1      19.405  18.964   2.664  0.00  0.00     0.215 C 
ENDBRANCH  13  24
TORSDOF 3
ENDMDL
MODEL 3
REMARK VINA RESULT:      -7.6      2.398      3.682
REMARK  3 active torsions:
REMARK  status: ('A' for Active; 'I' for Inactive)
REMARK    1  A    between atoms: O_2  and  C_22 
REMARK       I    between atoms: N_7  and  C_14 
REMARK       I    between atoms: N_7  and  C_22 
REMARK    2  A    between atoms: C_10  and  C_15 
REMARK    3  A    between atoms: C_15  and  C_16 
ROOT
HETATM    1  O   UNK N   1      34.887  16.205   6.129  0.00  0.00    -0.238 OA
HETATM    2  N   UNK N   1      34.401  16.772  10.196  0.00  0.00    -0.189 N 
HETATM    3  N   UNK N   1      35.328  15.446   8.608  0.00  0.00    -0.189 N 
ATOM      4  HN  UNK N   1      35.602  15.070   7.700  1.00  0.00     0.184 HD
HETATM    5  N   UNK N   1      34.049  17.387   7.849  0.00  0.00    -0.135 N 
HETATM    6  C   UNK N   1      35.066  15.758  10.778  0.00  0.00     0.077 A 
HETATM    7  C   UNK N   1      35.618  14.967   9.818  0.00  0.00     0.076 A 
HETATM    8  C   UNK N   1      35.979  14.331  12.495  0.00  0.00     0.017 A 
HETATM    9  C   UNK N   1      35.220  15.478  12.139  0.00  0.00     0.048 A 
HETATM   10  C   UNK N   1      36.364  13.843  10.115  0.00  0.00     0.033 A 
HETATM   11  C   UNK N   1      36.539  13.531  11.466  0.00  0.00     0.018 A 
HETATM   12  C   UNK N   1      34.583  16.549   8.866  0.00  0.00     0.687 A 
HETATM   13  C   UNK N   1      34.232  17.166   6.518  0.00  0.00     0.378 C 
HETATM   14  H   UNK N   1      33.902  17.502  10.628  0.00  0.00     0.184 HD
HETATM   15  H   UNK N   1      33.516  18.170   8.122  0.00  0.00     0.189 HD
ENDROOT
BRANCH   8  16
HETATM   16  C   UNK N   1      36.181  13.975  13.935  0.00  0.00     0.192 C 
HETATM   17  O   UNK N   1      36.864  14.717  14.627  0.00  0.00    -0.287 OA
BRANCH  16  18
HETATM   18  C   UNK N   1      35.588  12.751  14.571  0.00  0.00     0.015 A 
HETATM   19  C   UNK N   1      34.525  12.045  13.978  0.00  0.00     0.015 A 
HETATM   20  C   UNK N   1      33.986  10.910  14.585  0.00  0.00     0.001 A 
HETATM   21  C   UNK N   1      34.503  10.460  15.798  0.00  0.00     0.000 A 
HETATM   22  C   UNK N   1      35.559  11.147  16.403  0.00  0.00     0.001 A 
HETATM   23  C   UNK N   1      36.098  12.286  15.794  0.00  0.00     0.015 A 
ENDBRANCH  16  18
ENDBRANCH   8  16
BRANCH  13  24
HETATM   24  O   UNK N   1      33.684  18.019   5.621  0.00  0.00    -0.308 OA
HETATM   25  C   UNK N   1      32.951  17.576   4.544  0.00  0.00     0.215 C 
ENDBRANCH  13  24
TORSDOF 3
ENDMDL
MODEL 4
REMARK VINA RESULT:      -7.4      2.681      9.825
REMARK  3 active torsions:
REMARK  status: ('A' for Active; 'I' for Inactive)
REMARK    1  A    between atoms: O_2  and  C_22 
REMARK       I    between atoms: N_7  and  C_14 
REMARK       I    between atoms: N_7  and  C_22 
REMARK    2  A    between atoms: C_10  and  C_15 
REMARK    3  A    between atoms: C_15  and  C_16 
ROOT
HETATM    1  O   UNK N   1      34.553  12.680  13.974  0.00  0.00    -0.238 OA
HETATM    2  N   UNK N   1      36.077  15.669  11.558  0.00  0.00    -0.189 N 
HETATM    3  N   UNK N   1      34.419  14.140  11.792  0.00  0.00    -0.189 N 
ATOM      4  HN  UNK N   1      33.840  13.392  12.171  1.00  0.00     0.184 HD
HETATM    5  N   UNK N   1      36.108  14.251  13.557  0.00  0.00    -0.135 N 
HETATM    6  C   UNK N   1      35.237  15.739  10.508  0.00  0.00     0.077 A 
HETATM    7  C   UNK N   1      34.247  14.819  10.656  0.00  0.00     0.076 A 
HETATM    8  C   UNK N   1      34.273  16.458   8.417  0.00  0.00     0.017 A 
HETATM    9  C   UNK N   1      35.293  16.587   9.398  0.00  0.00     0.048 A 
HETATM   10  C   UNK N   1      33.234  14.657   9.732  0.00  0.00     0.033 A 
HETATM   11  C   UNK N   1      33.256  15.487   8.607  0.00  0.00     0.018 A 
HETATM   12  C   UNK N   1      35.543  14.678  12.324  0.00  0.00     0.687 A 
HETATM   13  C   UNK N   1      35.573  13.262  14.325  0.00  0.00     0.378 C 
HETATM   14  H   UNK N   1      36.883  16.205  11.731  0.00  0.00     0.184 HD
HETATM   15  H   UNK N   1      36.929  14.695  13.873  0.00  0.00     0.189 HD
ENDROOT
BRANCH   8  16
HETATM   16  C   UNK N   1      34.274  17.335   7.204  0.00  0.00     0.192 C 
HETATM   17  O   UNK N   1      34.617  18.502   7.330  0.00  0.00    -0.287 OA
BRANCH  16  18
HETATM   18  C   UNK N   1      33.873  16.852   5.840  0.00  0.00     0.015 A 
HETATM   19  C   UNK N   1      32.997  17.584   5.019  0.00  0.00     0.015 A 
HETATM   20  C   UNK N   1      32.636  17.118   3.754  0.00  0.00     0.001 A 
HETATM   21  C   UNK N   1      33.147  15.908   3.288  0.00  0.00     0.000 A 
HETATM   22  C   UNK N   1      34.019  15.167   4.089  0.00  0.00     0.001 A 
HETATM   23  C   UNK N   1      34.380  15.634   5.357  0.00  0.00     0.015 A 
ENDBRANCH  16  18
ENDBRANCH   8  16
BRANCH  13  24
HETATM   24  O   UNK N   1      36.181  12.922  15.486  0.00  0.00    -0.308 OA
HETATM   25  C   UNK N   1      36.047  11.671  16.043  0.00  0.00     0.215 C 
ENDBRANCH  13  24
TORSDOF 3
ENDMDL
MODEL 5
REMARK VINA RESULT:      -7.4      3.153      9.787
REMARK  3 active torsions:
REMARK  status: ('A' for Active; 'I' for Inactive)
REMARK    1  A    between atoms: O_2  and  C_22 
REMARK       I    between atoms: N_7  and  C_14 
REMARK       I    between atoms: N_7  and  C_22 
REMARK    2  A    between atoms: C_10  and  C_15 
REMARK    3  A    between atoms: C_15  and  C_16 
ROOT
HETATM    1  O   UNK N   1      35.725  12.916  13.416  0.00  0.00    -0.238 OA
HETATM    2  N   UNK N   1      35.690  16.385  11.168  0.00  0.00    -0.189 N 
HETATM    3  N   UNK N   1      34.945  14.247  11.287  0.00  0.00    -0.189 N 
ATOM      4  HN  UNK N   1      34.783  13.297  11.618  1.00  0.00     0.184 HD
HETATM    5  N   UNK N   1      36.361  15.052  13.112  0.00  0.00    -0.135 N 
HETATM    6  C   UNK N   1      34.930  16.105  10.094  0.00  0.00     0.077 A 
HETATM    7  C   UNK N   1      34.488  14.821  10.174  0.00  0.00     0.076 A 
HETATM    8  C   UNK N   1      33.766  16.388   8.001  0.00  0.00     0.017 A 
HETATM    9  C   UNK N   1      34.593  16.933   9.019  0.00  0.00     0.048 A 
HETATM   10  C   UNK N   1      33.682  14.248   9.209  0.00  0.00     0.033 A 
HETATM   11  C   UNK N   1      33.324  15.045   8.118  0.00  0.00     0.018 A 
HETATM   12  C   UNK N   1      35.677  15.224  11.877  0.00  0.00     0.687 A 
HETATM   13  C   UNK N   1      36.347  13.891  13.824  0.00  0.00     0.378 C 
HETATM   14  H   UNK N   1      36.147  17.229  11.389  0.00  0.00     0.184 HD
HETATM   15  H   UNK N   1      36.873  15.813  13.472  0.00  0.00     0.189 HD
ENDROOT
BRANCH   8  16
HETATM   16  C   UNK N   1      33.368  17.222   6.822  0.00  0.00     0.192 C 
HETATM   17  O   UNK N   1      34.231  17.877   6.255  0.00  0.00    -0.287 OA
BRANCH  16  18
HETATM   18  C   UNK N   1      31.961  17.292   6.303  0.00  0.00     0.015 A 
HETATM   19  C   UNK N   1      31.671  17.229   4.928  0.00  0.00     0.015 A 
HETATM   20  C   UNK N   1      30.356  17.298   4.465  0.00  0.00     0.001 A 
HETATM   21  C   UNK N   1      29.306  17.430   5.371  0.00  0.00     0.000 A 
HETATM   22  C   UNK N   1      29.574  17.494   6.741  0.00  0.00     0.001 A 
HETATM   23  C   UNK N   1      30.892  17.426   7.205  0.00  0.00     0.015 A 
ENDBRANCH  16  18
ENDBRANCH   8  16
BRANCH  13  24
HETATM   24  O   UNK N   1      37.029  13.819  14.991  0.00  0.00    -0.308 OA
HETATM   25  C   UNK N   1      37.149  14.899  15.835  0.00  0.00     0.215 C 
ENDBRANCH  13  24
TORSDOF 3
ENDMDL
MODEL 6
REMARK VINA RESULT:      -7.3      6.295     12.910
REMARK  3 active torsions:
REMARK  status: ('A' for Active; 'I' for Inactive)
REMARK    1  A    between atoms: O_2  and  C_22 
REMARK       I    between atoms: N_7  and  C_14 
REMARK       I    between atoms: N_7  and  C_22 
REMARK    2  A    between atoms: C_10  and  C_15 
REMARK    3  A    between atoms: C_15  and  C_16 
ROOT
HETATM    1  O   UNK N   1      34.869  17.406   7.728  0.00  0.00    -0.238 OA
HETATM    2  N   UNK N   1      30.752  17.302   8.091  0.00  0.00    -0.189 N 
HETATM    3  N   UNK N   1      32.485  17.248   6.630  0.00  0.00    -0.189 N 
ATOM      4  HN  UNK N   1      33.432  17.251   6.252  1.00  0.00     0.184 HD
HETATM    5  N   UNK N   1      33.020  17.445   9.008  0.00  0.00    -0.135 N 
HETATM    6  C   UNK N   1      30.287  17.191   6.833  0.00  0.00     0.077 A 
HETATM    7  C   UNK N   1      31.333  17.160   5.963  0.00  0.00     0.076 A 
HETATM    8  C   UNK N   1      28.738  17.000   4.993  0.00  0.00     0.017 A 
HETATM    9  C   UNK N   1      28.963  17.113   6.392  0.00  0.00     0.048 A 
HETATM   10  C   UNK N   1      31.165  17.050   4.597  0.00  0.00     0.033 A 
HETATM   11  C   UNK N   1      29.854  16.971   4.118  0.00  0.00     0.018 A 
HETATM   12  C   UNK N   1      32.103  17.334   7.927  0.00  0.00     0.687 A 
HETATM   13  C   UNK N   1      34.372  17.476   8.846  0.00  0.00     0.378 C 
HETATM   14  H   UNK N   1      30.238  17.348   8.929  0.00  0.00     0.184 HD
HETATM   15  H   UNK N   1      32.659  17.504   9.923  0.00  0.00     0.189 HD
ENDROOT
BRANCH   8  16
HETATM   16  C   UNK N   1      27.344  16.913   4.456  0.00  0.00     0.192 C 
HETATM   17  O   UNK N   1      26.854  15.805   4.284  0.00  0.00    -0.287 OA
BRANCH  16  18
HETATM   18  C   UNK N   1      26.516  18.119   4.117  0.00  0.00     0.015 A 
HETATM   19  C   UNK N   1      27.101  19.362   3.812  0.00  0.00     0.015 A 
HETATM   20  C   UNK N   1      26.315  20.472   3.501  0.00  0.00     0.001 A 
HETATM   21  C   UNK N   1      24.927  20.358   3.489  0.00  0.00     0.000 A 
HETATM   22  C   UNK N   1      24.327  19.132   3.789  0.00  0.00     0.001 A 
HETATM   23  C   UNK N   1      25.115  18.020   4.102  0.00  0.00     0.015 A 
ENDBRANCH  16  18
ENDBRANCH   8  16
BRANCH  13  24
HETATM   24  O   UNK N   1      35.169  17.584   9.935  0.00  0.00    -0.308 OA
HETATM   25  C   UNK N   1      35.342  16.546  10.822  0.00  0.00     0.215 C 
ENDBRANCH  13  24
TORSDOF 3
ENDMDL
MODEL 7
REMARK VINA RESULT:      -7.3      1.651      2.712
REMARK  3 active torsions:
REMARK  status: ('A' for Active; 'I' for Inactive)
REMARK    1  A    between atoms: O_2  and  C_22 
REMARK       I    between atoms: N_7  and  C_14 
REMARK       I    between atoms: N_7  and  C_22 
REMARK    2  A    between atoms: C_10  and  C_15 
REMARK    3  A    between atoms: C_15  and  C_16 
ROOT
HETATM    1  O   UNK N   1      34.351  14.982  10.963  0.00  0.00    -0.238 OA
HETATM    2  N   UNK N   1      36.729  13.725  14.104  0.00  0.00    -0.189 N 
HETATM    3  N   UNK N   1      34.829  13.312  12.937  0.00  0.00    -0.189 N 
ATOM      4  HN  UNK N   1      34.080  13.389  12.251  1.00  0.00     0.184 HD
HETATM    5  N   UNK N   1      36.186  15.224  12.242  0.00  0.00    -0.135 N 
HETATM    6  C   UNK N   1      36.106  12.646  14.611  0.00  0.00     0.077 A 
HETATM    7  C   UNK N   1      34.967  12.406  13.907  0.00  0.00     0.076 A 
HETATM    8  C   UNK N   1      35.644  10.747  16.026  0.00  0.00     0.017 A 
HETATM    9  C   UNK N   1      36.489  11.839  15.686  0.00  0.00     0.048 A 
HETATM   10  C   UNK N   1      34.116  11.358  14.198  0.00  0.00     0.033 A 
HETATM   11  C   UNK N   1      34.466  10.529  15.267  0.00  0.00     0.018 A 
HETATM   12  C   UNK N   1      35.918  14.106  13.079  0.00  0.00     0.687 A 
HETATM   13  C   UNK N   1      35.376  15.605  11.216  0.00  0.00     0.378 C 
HETATM   14  H   UNK N   1      37.571  14.140  14.401  0.00  0.00     0.184 HD
HETATM   15  H   UNK N   1      37.000  15.751  12.414  0.00  0.00     0.189 HD
ENDROOT
BRANCH   8  16
HETATM   16  C   UNK N   1      35.997   9.844  17.166  0.00  0.00     0.192 C 
HETATM   17  O   UNK N   1      36.984   9.129  17.059  0.00  0.00    -0.287 OA
BRANCH  16  18
HETATM   18  C   UNK N   1      35.198   9.772  18.435  0.00  0.00     0.015 A 
HETATM   19  C   UNK N   1      34.183   8.817  18.624  0.00  0.00     0.015 A 
HETATM   20  C   UNK N   1      33.451   8.767  19.810  0.00  0.00     0.001 A 
HETATM   21  C   UNK N   1      33.722   9.674  20.832  0.00  0.00     0.000 A 
HETATM   22  C   UNK N   1      34.726  10.631  20.664  0.00  0.00     0.001 A 
HETATM   23  C   UNK N   1      35.459  10.681  19.474  0.00  0.00     0.015 A 
ENDBRANCH  16  18
ENDBRANCH   8  16
BRANCH  13  24
HETATM   24  O   UNK N   1      35.712  16.685  10.471  0.00  0.00    -0.308 OA
HETATM   25  C   UNK N   1      34.901  17.163   9.468  0.00  0.00     0.215 C 
ENDBRANCH  13  24
TORSDOF 3
ENDMDL
MODEL 8
REMARK VINA RESULT:      -7.1     19.180     22.539
REMARK  3 active torsions:
REMARK  status: ('A' for Active; 'I' for Inactive)
REMARK    1  A    between atoms: O_2  and  C_22 
REMARK       I    between atoms: N_7  and  C_14 
REMARK       I    between atoms: N_7  and  C_22 
REMARK    2  A    between atoms: C_10  and  C_15 
REMARK    3  A    between atoms: C_15  and  C_16 
ROOT
HETATM    1  O   UNK N   1      33.794  19.565  -5.859  0.00  0.00    -0.238 OA
HETATM    2  N   UNK N   1      31.419  21.201  -2.897  0.00  0.00    -0.189 N 
HETATM    3  N   UNK N   1      31.772  21.081  -5.133  0.00  0.00    -0.189 N 
ATOM      4  HN  UNK N   1      32.174  20.833  -6.037  1.00  0.00     0.184 HD
HETATM    5  N   UNK N   1      33.282  19.815  -3.683  0.00  0.00    -0.135 N 
HETATM    6  C   UNK N   1      30.508  21.949  -3.545  0.00  0.00     0.077 A 
HETATM    7  C   UNK N   1      30.727  21.872  -4.885  0.00  0.00     0.076 A 
HETATM    8  C   UNK N   1      28.635  23.421  -3.925  0.00  0.00     0.017 A 
HETATM    9  C   UNK N   1      29.467  22.716  -3.014  0.00  0.00     0.048 A 
HETATM   10  C   UNK N   1      29.946  22.538  -5.809  0.00  0.00     0.033 A 
HETATM   11  C   UNK N   1      28.895  23.316  -5.315  0.00  0.00     0.018 A 
HETATM   12  C   UNK N   1      32.177  20.684  -3.902  0.00  0.00     0.687 A 
HETATM   13  C   UNK N   1      34.039  19.296  -4.688  0.00  0.00     0.378 C 
HETATM   14  H   UNK N   1      31.515  21.061  -1.927  0.00  0.00     0.184 HD
HETATM   15  H   UNK N   1      33.511  19.577  -2.755  0.00  0.00     0.189 HD
ENDROOT
BRANCH   8  16
HETATM   16  C   UNK N   1      27.502  24.261  -3.422  0.00  0.00     0.192 C 
HETATM   17  O   UNK N   1      27.055  24.027  -2.308  0.00  0.00    -0.287 OA
BRANCH  16  18
HETATM   18  C   UNK N   1      26.889  25.376  -4.218  0.00  0.00     0.015 A 
HETATM   19  C   UNK N   1      25.753  25.178  -5.024  0.00  0.00     0.015 A 
HETATM   20  C   UNK N   1      25.198  26.227  -5.758  0.00  0.00     0.001 A 
HETATM   21  C   UNK N   1      25.771  27.496  -5.697  0.00  0.00     0.000 A 
HETATM   22  C   UNK N   1      26.899  27.713  -4.902  0.00  0.00     0.001 A 
HETATM   23  C   UNK N   1      27.455  26.660  -4.168  0.00  0.00     0.015 A 
ENDBRANCH  16  18
ENDBRANCH   8  16
BRANCH  13  24
HETATM   24  O   UNK N   1      35.074  18.477  -4.384  0.00  0.00    -0.308 OA
HETATM   25  C   UNK N   1      34.915  17.117  -4.250  0.00  0.00     0.215 C 
ENDBRANCH  13  24
TORSDOF 3
ENDMDL
MODEL 9
REMARK VINA RESULT:      -7.1      3.057      4.437
REMARK  3 active torsions:
REMARK  status: ('A' for Active; 'I' for Inactive)
REMARK    1  A    between atoms: O_2  and  C_22 
REMARK       I    between atoms: N_7  and  C_14 
REMARK       I    between atoms: N_7  and  C_22 
REMARK    2  A    between atoms: C_10  and  C_15 
REMARK    3  A    between atoms: C_15  and  C_16 
ROOT
HETATM    1  O   UNK N   1      36.163  14.634  12.646  0.00  0.00    -0.238 OA
HETATM    2  N   UNK N   1      36.748  11.262  14.965  0.00  0.00    -0.189 N 
HETATM    3  N   UNK N   1      35.909  13.368  14.936  0.00  0.00    -0.189 N 
ATOM      4  HN  UNK N   1      35.642  14.298  14.616  1.00  0.00     0.184 HD
HETATM    5  N   UNK N   1      36.934  12.534  12.878  0.00  0.00    -0.135 N 
HETATM    6  C   UNK N   1      36.223  11.563  16.167  0.00  0.00     0.077 A 
HETATM    7  C   UNK N   1      35.723  12.827  16.141  0.00  0.00     0.076 A 
HETATM    8  C   UNK N   1      35.545  11.330  18.470  0.00  0.00     0.017 A 
HETATM    9  C   UNK N   1      36.157  10.769  17.317  0.00  0.00     0.048 A 
HETATM   10  C   UNK N   1      35.119  13.414  17.236  0.00  0.00     0.033 A 
HETATM   11  C   UNK N   1      35.035  12.651  18.404  0.00  0.00     0.018 A 
HETATM   12  C   UNK N   1      36.537  12.392  14.236  0.00  0.00     0.687 A 
HETATM   13  C   UNK N   1      36.722  13.664  12.148  0.00  0.00     0.378 C 
HETATM   14  H   UNK N   1      37.181  10.425  14.680  0.00  0.00     0.184 HD
HETATM   15  H   UNK N   1      37.388  11.776  12.443  0.00  0.00     0.189 HD
ENDROOT
BRANCH   8  16
HETATM   16  C   UNK N   1      35.441  10.533  19.734  0.00  0.00     0.192 C 
HETATM   17  O   UNK N   1      36.441  10.411  20.428  0.00  0.00    -0.287 OA
BRANCH  16  18
HETATM   18  C   UNK N   1      34.170   9.878  20.191  0.00  0.00     0.015 A 
HETATM   19  C   UNK N   1      33.546   8.862  19.444  0.00  0.00     0.015 A 
HETATM   20  C   UNK N   1      32.364   8.265  19.885  0.00  0.00     0.001 A 
HETATM   21  C   UNK N   1      31.785   8.676  21.084  0.00  0.00     0.000 A 
HETATM   22  C   UNK N   1      32.389   9.684  21.840  0.00  0.00     0.001 A 
HETATM   23  C   UNK N   1      33.573  10.282  21.396  0.00  0.00     0.015 A 
ENDBRANCH  16  18
ENDBRANCH   8  16
BRANCH  13  24
HETATM   24  O   UNK N   1      37.136  13.708  10.859  0.00  0.00    -0.308 OA
HETATM   25  C   UNK N   1      38.322  13.142  10.452  0.00  0.00     0.215 C 
ENDBRANCH  13  24
TORSDOF 3
ENDMDL
