REMARK WARNING: 32 MAX_TORS EXCEEDED!!!
REMARK  33 active torsions:
REMARK  status: ('A' for Active; 'I' for Inactive)
REMARK    1  A    between atoms: O_12  and  C_75 
REMARK    2  A    between atoms: O_13  and  C_87 
REMARK       I    between atoms: N_14  and  C_37 
REMARK    3  A    between atoms: N_15  and  C_38 
REMARK       I    between atoms: N_15  and  C_43 
REMARK       I    between atoms: N_16  and  C_39 
REMARK    4  A    between atoms: N_16  and  C_46 
REMARK    5  A    between atoms: N_17  and  C_42 
REMARK       I    between atoms: N_17  and  C_51 
REMARK    6  A    between atoms: N_18  and  C_45 
REMARK       I    between atoms: N_20  and  C_50 
REMARK    7  A    between atoms: N_22  and  C_56 
REMARK       I    between atoms: N_22  and  C_59 
REMARK    8  A    between atoms: N_23  and  C_54 
REMARK       I    between atoms: N_23  and  C_67 
REMARK    9  A    between atoms: N_24  and  C_57 
REMARK       I    between atoms: N_24  and  C_63 
REMARK       I    between atoms: N_25  and  C_66 
REMARK   10  A    between atoms: N_25  and  C_69 
REMARK   11  A    between atoms: N_26  and  C_65 
REMARK       I    between atoms: N_26  and  C_74 
REMARK       I    between atoms: N_27  and  C_58 
REMARK       I    between atoms: N_28  and  C_58 
REMARK   12  A    between atoms: C_33  and  C_39 
REMARK   13  A    between atoms: C_37  and  C_38 
REMARK   14  A    between atoms: C_38  and  C_40 
REMARK   15  A    between atoms: C_40  and  C_41 
REMARK   16  A    between atoms: C_41  and  C_45 
REMARK   17  A    between atoms: C_42  and  C_43 
REMARK   18  A    between atoms: C_42  and  C_44 
REMARK   19  A    between atoms: C_44  and  C_47 
REMARK   20  A    between atoms: C_46  and  C_50 
REMARK   21  A    between atoms: C_51  and  C_54 
REMARK   22  A    between atoms: C_52  and  C_59 
REMARK   23  A    between atoms: C_56  and  C_62 
REMARK   24  A    between atoms: C_56  and  C_63 
REMARK   25  A    between atoms: C_57  and  C_60 
REMARK   26  A    between atoms: C_57  and  C_66 
REMARK   27  A    between atoms: C_60  and  C_64 
REMARK   28  A    between atoms: C_62  and  C_70 
REMARK   29  A    between atoms: C_65  and  C_67 
REMARK   30  A    between atoms: C_65  and  C_71 
REMARK   31  A    between atoms: C_69  and  C_74 
REMARK   32  A    between atoms: C_69  and  C_75 
REMARK   33  A    between atoms: C_71  and  C_77 
ROOT
HETATM    1  C   UNK N   1       9.443   2.300  -0.032  0.00  0.00     0.180 C 
ENDROOT
BRANCH   1   2
HETATM    2  N   UNK N   1       9.291   3.080  -1.250  0.00  0.00    -0.346 N 
HETATM    3  C   UNK N   1       8.189   3.081  -2.054  0.00  0.00     0.243 C 
HETATM    4  O   UNK N   1       8.122   3.893  -2.961  0.00  0.00    -0.271 OA
HETATM    5  H   UNK N   1      10.045   3.655  -1.515  0.00  0.00     0.163 HD
BRANCH   3   6
HETATM    6  C   UNK N   1       7.025   2.152  -1.845  0.00  0.00     0.200 C 
BRANCH   6   7
HETATM    7  N   UNK N   1       6.553   2.355  -0.494  0.00  0.00    -0.344 N 
HETATM    8  C   UNK N   1       5.467   1.801   0.088  0.00  0.00     0.241 C 
HETATM    9  O   UNK N   1       4.864   0.889  -0.451  0.00  0.00    -0.271 OA
HETATM   10  H   UNK N   1       7.084   2.967   0.065  0.00  0.00     0.163 HD
BRANCH   8  11
HETATM   11  C   UNK N   1       4.878   2.576   1.249  0.00  0.00     0.181 C 
BRANCH  11  12
HETATM   12  N   UNK N   1       4.766   3.963   0.816  0.00  0.00    -0.346 N 
HETATM   13  C   UNK N   1       4.227   4.311  -0.392  0.00  0.00     0.241 C 
HETATM   14  O   UNK N   1       3.720   3.469  -1.119  0.00  0.00    -0.271 OA
HETATM   15  H   UNK N   1       5.089   4.675   1.415  0.00  0.00     0.163 HD
BRANCH  13  16
HETATM   16  C   UNK N   1       4.265   5.718  -0.879  0.00  0.00     0.182 C 
BRANCH  16  17
HETATM   17  N   UNK N   1       3.399   6.656  -0.191  0.00  0.00    -0.346 N 
HETATM   18  C   UNK N   1       2.314   6.332   0.569  0.00  0.00     0.241 C 
HETATM   19  O   UNK N   1       2.016   5.167   0.788  0.00  0.00    -0.271 OA
HETATM   20  H   UNK N   1       3.614   7.612  -0.282  0.00  0.00     0.163 HD
BRANCH  18  21
HETATM   21  C   UNK N   1       1.433   7.414   1.108  0.00  0.00     0.177 C 
HETATM   22  N   UNK N   1       1.898   8.695   0.664  0.00  0.00    -0.348 N 
HETATM   23  C   UNK N   1       1.058   9.251  -0.205  0.00  0.00     0.218 C 
HETATM   24  H   UNK N   1       2.737   9.113   0.966  0.00  0.00     0.163 HD
HETATM   25  O   UNK N   1       1.289  10.326  -0.732  0.00  0.00    -0.274 OA
HETATM   26  C   UNK N   1      -0.145   8.447  -0.491  0.00  0.00     0.105 C 
HETATM   27  C   UNK N   1       0.035   7.267   0.473  0.00  0.00     0.044 C 
ENDBRANCH  18  21
ENDBRANCH  16  17
BRANCH  16  28
HETATM   28  C   UNK N   1       5.677   6.244  -1.183  0.00  0.00     0.093 C 
BRANCH  28  29
HETATM   29  C   UNK N   1       6.372   7.072  -0.140  0.00  0.00     0.028 A 
HETATM   30  N   UNK N   1       7.677   7.382  -0.208  0.00  0.00    -0.354 N 
HETATM   31  C   UNK N   1       7.910   8.171   0.859  0.00  0.00     0.180 A 
HETATM   32  H   UNK N   1       8.325   7.095  -0.892  0.00  0.00     0.166 HD
HETATM   33  N   UNK N   1       6.791   8.370   1.586  0.00  0.00    -0.360 N 
HETATM   34  C   UNK N   1       5.817   7.681   0.962  0.00  0.00     0.114 A 
ATOM     35  HN  UNK N   1       6.701   8.928   2.435  1.00  0.00     0.166 HD
ENDBRANCH  28  29
ENDBRANCH  16  28
ENDBRANCH  13  16
ENDBRANCH  11  12
BRANCH  11  36
HETATM   36  C   UNK N   1       3.579   2.133   1.960  0.00  0.00     0.075 C 
BRANCH  36  37
HETATM   37  C   UNK N   1       2.859   0.968   1.369  0.00  0.00    -0.028 A 
HETATM   38  C   UNK N   1       1.755   1.020   0.562  0.00  0.00    -0.002 A 
HETATM   39  C   UNK N   1       1.463  -0.265   0.212  0.00  0.00     0.042 A 
HETATM   40  C   UNK N   1       1.008   2.101   0.101  0.00  0.00     0.014 A 
HETATM   41  N   UNK N   1       2.328  -1.130   0.776  0.00  0.00    -0.365 N 
HETATM   42  C   UNK N   1       0.401  -0.572  -0.633  0.00  0.00     0.030 A 
HETATM   43  C   UNK N   1       3.197  -0.376   1.497  0.00  0.00     0.096 A 
HETATM   44  H   UNK N   1       2.330  -2.110   0.683  0.00  0.00     0.165 HD
HETATM   45  C   UNK N   1      -0.377   0.495  -1.120  0.00  0.00     0.002 A 
HETATM   46  C   UNK N   1      -0.077   1.827  -0.752  0.00  0.00     0.001 A 
ENDBRANCH  36  37
ENDBRANCH  11  36
ENDBRANCH   8  11
ENDBRANCH   6   7
BRANCH   6  47
HETATM   47  C   UNK N   1       7.383   0.716  -2.222  0.00  0.00     0.199 C 
BRANCH  47  48
HETATM   48  O   UNK N   1       6.247  -0.067  -2.416  0.00  0.00    -0.398 OA
HETATM   49  H   UNK N   1       5.380   0.346  -2.551  0.00  0.00     0.209 HD
ENDBRANCH  47  48
ENDBRANCH   6  47
ENDBRANCH   3   6
ENDBRANCH   1   2
BRANCH   1  50
HETATM   50  C   UNK N   1       9.292   0.827  -0.076  0.00  0.00     0.241 C 
HETATM   51  O   UNK N   1      10.006   0.152  -0.803  0.00  0.00    -0.271 OA
HETATM   52  N   UNK N   1       8.271   0.275   0.613  0.00  0.00    -0.351 N 
HETATM   53  H   UNK N   1       7.778   0.832   1.259  0.00  0.00     0.163 HD
BRANCH  52  54
HETATM   54  C   UNK N   1       7.877  -1.091   0.438  0.00  0.00     0.225 C 
BRANCH  54  55
HETATM   55  C   UNK N   1       7.944  -1.829   1.728  0.00  0.00     0.236 C 
HETATM   56  O   UNK N   1       7.309  -1.426   2.689  0.00  0.00    -0.272 OA
HETATM   57  N   UNK N   1       8.665  -2.969   1.832  0.00  0.00    -0.346 N 
HETATM   58  H   UNK N   1       8.658  -3.456   2.687  0.00  0.00     0.163 HD
BRANCH  57  59
HETATM   59  C   UNK N   1       9.448  -3.503   0.735  0.00  0.00     0.177 C 
BRANCH  59  60
HETATM   60  C   UNK N   1      10.278  -4.679   1.172  0.00  0.00     0.241 C 
HETATM   61  O   UNK N   1      10.066  -5.208   2.252  0.00  0.00    -0.271 OA
HETATM   62  N   UNK N   1      11.289  -5.140   0.401  0.00  0.00    -0.346 N 
HETATM   63  H   UNK N   1      11.780  -5.943   0.692  0.00  0.00     0.163 HD
BRANCH  62  64
HETATM   64  C   UNK N   1      11.675  -4.496  -0.834  0.00  0.00     0.176 C 
BRANCH  64  65
HETATM   65  C   UNK N   1      12.898  -3.689  -0.539  0.00  0.00     0.243 C 
HETATM   66  O   UNK N   1      12.838  -2.475  -0.696  0.00  0.00    -0.271 OA
HETATM   67  N   UNK N   1      14.040  -4.273  -0.059  0.00  0.00    -0.337 N 
HETATM   68  C   UNK N   1      15.216  -3.586   0.375  0.00  0.00     0.179 C 
HETATM   69  C   UNK N   1      14.184  -5.704   0.052  0.00  0.00     0.127 C 
HETATM   70  C   UNK N   1      16.349  -4.579   0.423  0.00  0.00     0.037 C 
HETATM   71  C   UNK N   1      15.641  -5.936   0.460  0.00  0.00     0.022 C 
BRANCH  68  72
HETATM   72  C   UNK N   1      15.351  -2.081   0.361  0.00  0.00     0.241 C 
HETATM   73  O   UNK N   1      14.595  -1.412   1.047  0.00  0.00    -0.271 OA
HETATM   74  N   UNK N   1      16.310  -1.456  -0.362  0.00  0.00    -0.351 N 
HETATM   75  H   UNK N   1      16.336  -0.471  -0.353  0.00  0.00     0.163 HD
BRANCH  74  76
HETATM   76  C   UNK N   1      17.294  -2.161  -1.143  0.00  0.00     0.225 C 
BRANCH  76  77
HETATM   77  C   UNK N   1      18.572  -2.237  -0.370  0.00  0.00     0.233 C 
HETATM   78  O   UNK N   1      19.066  -3.323  -0.115  0.00  0.00    -0.272 OA
HETATM   79  N   UNK N   1      19.172  -1.110   0.060  0.00  0.00    -0.369 N 
HETATM   80  H   UNK N   1      20.105  -1.078   0.374  0.00  0.00     0.159 HD
HETATM   81  H   UNK N   1      18.651  -0.275   0.060  0.00  0.00     0.159 HD
ENDBRANCH  76  77
ENDBRANCH  74  76
ENDBRANCH  68  72
ENDBRANCH  64  65
BRANCH  64  82
HETATM   82  C   UNK N   1      11.931  -5.509  -1.951  0.00  0.00     0.036 C 
BRANCH  82  83
HETATM   83  C   UNK N   1      10.726  -6.394  -2.266  0.00  0.00     0.023 C 
BRANCH  83  84
HETATM   84  C   UNK N   1      10.464  -7.429  -1.176  0.00  0.00     0.138 C 
BRANCH  84  85
HETATM   85  N   UNK N   1      11.684  -8.120  -0.828  0.00  0.00    -0.227 N 
HETATM   86  C   UNK N   1      11.743  -8.965   0.141  0.00  0.00     0.665 C 
HETATM   87  N   UNK N   1      12.971  -9.590   0.443  0.00  0.00    -0.235 N 
HETATM   88  N   UNK N   1      10.597  -9.266   0.916  0.00  0.00    -0.235 N 
HETATM   89  H   UNK N   1      13.022 -10.551   0.654  0.00  0.00     0.174 HD
HETATM   90  H   UNK N   1      13.797  -9.054   0.443  0.00  0.00     0.174 HD
HETATM   91  H   UNK N   1      10.018  -8.681   1.456  0.00  0.00     0.174 HD
HETATM   92  H   UNK N   1      10.338 -10.216   0.916  0.00  0.00     0.174 HD
ATOM     93  HN  UNK N   1      12.528  -7.931  -1.368  1.00  0.00     0.177 HD
ENDBRANCH  84  85
ENDBRANCH  83  84
ENDBRANCH  82  83
ENDBRANCH  64  82
ENDBRANCH  62  64
ENDBRANCH  59  60
BRANCH  59  94
HETATM   94  C   UNK N   1       8.603  -3.841  -0.516  0.00  0.00     0.038 C 
BRANCH  94  95
HETATM   95  C   UNK N   1       7.388  -4.763  -0.330  0.00  0.00    -0.020 C 
HETATM   96  C   UNK N   1       6.238  -4.088   0.390  0.00  0.00     0.009 C 
HETATM   97  C   UNK N   1       7.723  -6.092   0.319  0.00  0.00     0.009 C 
ENDBRANCH  94  95
ENDBRANCH  59  94
ENDBRANCH  57  59
ENDBRANCH  54  55
ENDBRANCH  52  54
ENDBRANCH   1  50
BRANCH   1  98
HETATM   98  C   UNK N   1       9.830   3.030   1.241  0.00  0.00     0.073 C 
BRANCH  98  99
HETATM   99  C   UNK N   1      11.170   3.609   0.998  0.00  0.00    -0.056 A 
HETATM  100  C   UNK N   1      11.269   4.936   0.576  0.00  0.00     0.010 A 
HETATM  101  C   UNK N   1      12.503   5.446   0.172  0.00  0.00     0.037 A 
HETATM  102  C   UNK N   1      13.635   4.625   0.183  0.00  0.00     0.065 A 
HETATM  103  C   UNK N   1      13.538   3.300   0.621  0.00  0.00     0.037 A 
HETATM  104  C   UNK N   1      12.303   2.788   1.020  0.00  0.00     0.010 A 
BRANCH 102 105
HETATM  105  O   UNK N   1      14.813   5.107  -0.238  0.00  0.00    -0.361 OA
HETATM  106  H   UNK N   1      15.516   4.562  -0.532  0.00  0.00     0.217 HD
ENDBRANCH 102 105
ENDBRANCH  98  99
ENDBRANCH   1  98
TORSDOF 33
