MODEL 1
REMARK VINA RESULT:      -6.3      0.000      0.000
REMARK  8 active torsions:
REMARK  status: ('A' for Active; 'I' for Inactive)
REMARK    1  A    between atoms: O_2  and  C_16 
REMARK    2  A    between atoms: O_2  and  C_19 
REMARK    3  A    between atoms: N_3  and  C_9 
REMARK    4  A    between atoms: C_9  and  C_10 
REMARK    5  A    between atoms: C_10  and  C_11 
REMARK    6  A    between atoms: C_11  and  C_12 
REMARK    7  A    between atoms: C_15  and  C_19 
REMARK    8  A    between atoms: C_15  and  C_20 
ROOT
HETATM    1  C   UNK N   1      34.637  16.812   9.437  0.00  0.00     0.010 A 
HETATM    2  C   UNK N   1      33.746  15.728   9.349  0.00  0.00     0.018 A 
HETATM    3  C   UNK N   1      35.575  16.844  10.475  0.00  0.00     0.018 A 
HETATM    4  C   UNK N   1      34.682  14.763  11.363  0.00  0.00     0.068 A 
HETATM    5  C   UNK N   1      33.786  14.701  10.293  0.00  0.00     0.037 A 
HETATM    6  C   UNK N   1      35.587  15.837  11.444  0.00  0.00     0.037 A 
ENDROOT
BRANCH   1   7
HETATM    7  C   UNK N   1      34.537  17.931   8.479  0.00  0.00     0.161 C 
HETATM    8  O   UNK N   1      35.215  18.942   8.633  0.00  0.00    -0.292 OA
BRANCH   7   9
HETATM    9  C   UNK N   1      33.496  17.902   7.409  0.00  0.00     0.114 C 
BRANCH   9  10
HETATM   10  C   UNK N   1      33.969  17.253   6.125  0.00  0.00     0.280 C 
BRANCH  10  11
HETATM   11  N   UNK N   1      32.950  17.485   5.114  0.00  0.00     0.088 N 
HETATM   12  C   UNK N   1      33.197  16.602   3.978  0.00  0.00     0.272 C 
HETATM   13  C   UNK N   1      32.168  16.884   2.884  0.00  0.00     0.030 C 
HETATM   14  C   UNK N   1      30.759  16.661   3.431  0.00  0.00     0.003 C 
HETATM   15  C   UNK N   1      30.541  17.469   4.706  0.00  0.00     0.030 C 
HETATM   16  C   UNK N   1      31.652  17.154   5.701  0.00  0.00     0.272 C 
ENDBRANCH  10  11
ENDBRANCH   9  10
ENDBRANCH   7   9
ENDBRANCH   1   7
BRANCH   4  17
HETATM   17  O   UNK N   1      34.635  13.809  12.321  0.00  0.00    -0.351 OA
BRANCH  17  18
HETATM   18  C   UNK N   1      35.763  13.427  13.013  0.00  0.00     0.175 C 
BRANCH  18  19
HETATM   19  C   UNK N   1      35.615  13.673  14.496  0.00  0.00     0.026 C 
BRANCH  19  20
HETATM   20  C   UNK N   1      37.008  13.743  15.089  0.00  0.00    -0.002 C 
HETATM   21  C   UNK N   1      37.205  15.061  15.805  0.00  0.00     0.005 C 
ENDBRANCH  19  20
ENDBRANCH  18  19
ENDBRANCH  17  18
ENDBRANCH   4  17
TORSDOF 8
ENDMDL
MODEL 2
REMARK VINA RESULT:      -6.2      3.066      8.309
REMARK  8 active torsions:
REMARK  status: ('A' for Active; 'I' for Inactive)
REMARK    1  A    between atoms: O_2  and  C_16 
REMARK    2  A    between atoms: O_2  and  C_19 
REMARK    3  A    between atoms: N_3  and  C_9 
REMARK    4  A    between atoms: C_9  and  C_10 
REMARK    5  A    between atoms: C_10  and  C_11 
REMARK    6  A    between atoms: C_11  and  C_12 
REMARK    7  A    between atoms: C_15  and  C_19 
REMARK    8  A    between atoms: C_15  and  C_20 
ROOT
HETATM    1  C   UNK N   1      34.290  16.305   9.605  0.00  0.00     0.010 A 
HETATM    2  C   UNK N   1      34.343  17.511   8.884  0.00  0.00     0.018 A 
HETATM    3  C   UNK N   1      33.233  15.417   9.376  0.00  0.00     0.018 A 
HETATM    4  C   UNK N   1      32.261  16.967   7.773  0.00  0.00     0.068 A 
HETATM    5  C   UNK N   1      33.347  17.826   7.958  0.00  0.00     0.037 A 
HETATM    6  C   UNK N   1      32.215  15.752   8.480  0.00  0.00     0.037 A 
ENDROOT
BRANCH   1   7
HETATM    7  C   UNK N   1      35.306  16.016  10.636  0.00  0.00     0.161 C 
HETATM    8  O   UNK N   1      36.380  16.611  10.633  0.00  0.00    -0.292 OA
BRANCH   7   9
HETATM    9  C   UNK N   1      35.096  14.887  11.590  0.00  0.00     0.114 C 
BRANCH   9  10
HETATM   10  C   UNK N   1      36.261  13.921  11.648  0.00  0.00     0.280 C 
BRANCH  10  11
HETATM   11  N   UNK N   1      36.298  13.357  12.987  0.00  0.00     0.088 N 
HETATM   12  C   UNK N   1      36.448  14.439  13.955  0.00  0.00     0.272 C 
HETATM   13  C   UNK N   1      36.552  13.849  15.362  0.00  0.00     0.030 C 
HETATM   14  C   UNK N   1      35.299  13.031  15.672  0.00  0.00     0.003 C 
HETATM   15  C   UNK N   1      35.051  11.991  14.584  0.00  0.00     0.030 C 
HETATM   16  C   UNK N   1      35.024  12.679  13.224  0.00  0.00     0.272 C 
ENDBRANCH  10  11
ENDBRANCH   9  10
ENDBRANCH   7   9
ENDBRANCH   1   7
BRANCH   4  17
HETATM   17  O   UNK N   1      31.257  17.339   6.946  0.00  0.00    -0.351 OA
BRANCH  17  18
HETATM   18  C   UNK N   1      29.962  16.921   7.154  0.00  0.00     0.175 C 
BRANCH  18  19
HETATM   19  C   UNK N   1      29.056  18.076   7.511  0.00  0.00     0.026 C 
BRANCH  19  20
HETATM   20  C   UNK N   1      28.673  17.923   8.969  0.00  0.00    -0.002 C 
HETATM   21  C   UNK N   1      29.672  18.640   9.850  0.00  0.00     0.005 C 
ENDBRANCH  19  20
ENDBRANCH  18  19
ENDBRANCH  17  18
ENDBRANCH   4  17
TORSDOF 8
ENDMDL
MODEL 3
REMARK VINA RESULT:      -6.2     15.681     19.270
REMARK  8 active torsions:
REMARK  status: ('A' for Active; 'I' for Inactive)
REMARK    1  A    between atoms: O_2  and  C_16 
REMARK    2  A    between atoms: O_2  and  C_19 
REMARK    3  A    between atoms: N_3  and  C_9 
REMARK    4  A    between atoms: C_9  and  C_10 
REMARK    5  A    between atoms: C_10  and  C_11 
REMARK    6  A    between atoms: C_11  and  C_12 
REMARK    7  A    between atoms: C_15  and  C_19 
REMARK    8  A    between atoms: C_15  and  C_20 
ROOT
HETATM    1  C   UNK N   1      25.896  25.105  -5.487  0.00  0.00     0.010 A 
HETATM    2  C   UNK N   1      25.314  26.287  -5.978  0.00  0.00     0.018 A 
HETATM    3  C   UNK N   1      26.407  25.083  -4.184  0.00  0.00     0.018 A 
HETATM    4  C   UNK N   1      25.819  27.427  -3.901  0.00  0.00     0.068 A 
HETATM    5  C   UNK N   1      25.256  27.431  -5.179  0.00  0.00     0.037 A 
HETATM    6  C   UNK N   1      26.387  26.240  -3.401  0.00  0.00     0.037 A 
ENDROOT
BRANCH   1   7
HETATM    7  C   UNK N   1      26.021  23.923  -6.364  0.00  0.00     0.161 C 
HETATM    8  O   UNK N   1      25.090  23.590  -7.091  0.00  0.00    -0.292 OA
BRANCH   7   9
HETATM    9  C   UNK N   1      27.218  23.039  -6.252  0.00  0.00     0.114 C 
BRANCH   9  10
HETATM   10  C   UNK N   1      28.521  23.744  -6.564  0.00  0.00     0.280 C 
BRANCH  10  11
HETATM   11  N   UNK N   1      29.581  23.044  -5.857  0.00  0.00     0.088 N 
HETATM   12  C   UNK N   1      29.404  23.238  -4.421  0.00  0.00     0.272 C 
HETATM   13  C   UNK N   1      30.550  22.557  -3.673  0.00  0.00     0.030 C 
HETATM   14  C   UNK N   1      30.570  21.066  -4.006  0.00  0.00     0.003 C 
HETATM   15  C   UNK N   1      30.605  20.852  -5.516  0.00  0.00     0.030 C 
HETATM   16  C   UNK N   1      29.457  21.618  -6.163  0.00  0.00     0.272 C 
ENDBRANCH  10  11
ENDBRANCH   9  10
ENDBRANCH   7   9
ENDBRANCH   1   7
BRANCH   4  17
HETATM   17  O   UNK N   1      25.842  28.574  -3.185  0.00  0.00    -0.351 OA
BRANCH  17  18
HETATM   18  C   UNK N   1      26.310  29.751  -3.726  0.00  0.00     0.175 C 
BRANCH  18  19
HETATM   19  C   UNK N   1      27.806  29.709  -3.934  0.00  0.00     0.026 C 
BRANCH  19  20
HETATM   20  C   UNK N   1      28.095  30.328  -5.288  0.00  0.00    -0.002 C 
HETATM   21  C   UNK N   1      28.078  29.263  -6.362  0.00  0.00     0.005 C 
ENDBRANCH  19  20
ENDBRANCH  18  19
ENDBRANCH  17  18
ENDBRANCH   4  17
TORSDOF 8
ENDMDL
MODEL 4
REMARK VINA RESULT:      -6.2      9.361     13.021
REMARK  8 active torsions:
REMARK  status: ('A' for Active; 'I' for Inactive)
REMARK    1  A    between atoms: O_2  and  C_16 
REMARK    2  A    between atoms: O_2  and  C_19 
REMARK    3  A    between atoms: N_3  and  C_9 
REMARK    4  A    between atoms: C_9  and  C_10 
REMARK    5  A    between atoms: C_10  and  C_11 
REMARK    6  A    between atoms: C_11  and  C_12 
REMARK    7  A    between atoms: C_15  and  C_19 
REMARK    8  A    between atoms: C_15  and  C_20 
ROOT
HETATM    1  C   UNK N   1      23.471  19.810   3.299  0.00  0.00     0.010 A 
HETATM    2  C   UNK N   1      23.650  18.603   3.998  0.00  0.00     0.018 A 
HETATM    3  C   UNK N   1      24.595  20.529   2.876  0.00  0.00     0.018 A 
HETATM    4  C   UNK N   1      26.054  18.880   3.909  0.00  0.00     0.068 A 
HETATM    5  C   UNK N   1      24.934  18.132   4.278  0.00  0.00     0.037 A 
HETATM    6  C   UNK N   1      25.878  20.079   3.194  0.00  0.00     0.037 A 
ENDROOT
BRANCH   1   7
HETATM    7  C   UNK N   1      22.111  20.338   3.074  0.00  0.00     0.161 C 
HETATM    8  O   UNK N   1      21.952  21.458   2.596  0.00  0.00    -0.292 OA
BRANCH   7   9
HETATM    9  C   UNK N   1      20.927  19.579   3.573  0.00  0.00     0.114 C 
BRANCH   9  10
HETATM   10  C   UNK N   1      19.918  19.255   2.491  0.00  0.00     0.280 C 
BRANCH  10  11
HETATM   11  N   UNK N   1      19.625  17.834   2.574  0.00  0.00     0.088 N 
HETATM   12  C   UNK N   1      20.326  17.139   1.498  0.00  0.00     0.272 C 
HETATM   13  C   UNK N   1      19.973  15.653   1.540  0.00  0.00     0.030 C 
HETATM   14  C   UNK N   1      20.370  15.066   2.894  0.00  0.00     0.003 C 
HETATM   15  C   UNK N   1      19.759  15.878   4.032  0.00  0.00     0.030 C 
HETATM   16  C   UNK N   1      20.126  17.347   3.860  0.00  0.00     0.272 C 
ENDBRANCH  10  11
ENDBRANCH   9  10
ENDBRANCH   7   9
ENDBRANCH   1   7
BRANCH   4  17
HETATM   17  O   UNK N   1      27.284  18.455   4.279  0.00  0.00    -0.351 OA
BRANCH  17  18
HETATM   18  C   UNK N   1      28.204  19.314   4.839  0.00  0.00     0.175 C 
BRANCH  18  19
HETATM   19  C   UNK N   1      27.810  19.712   6.242  0.00  0.00     0.026 C 
BRANCH  19  20
HETATM   20  C   UNK N   1      27.619  21.216   6.254  0.00  0.00    -0.002 C 
HETATM   21  C   UNK N   1      26.221  21.561   6.718  0.00  0.00     0.005 C 
ENDBRANCH  19  20
ENDBRANCH  18  19
ENDBRANCH  17  18
ENDBRANCH   4  17
TORSDOF 8
ENDMDL
MODEL 5
REMARK VINA RESULT:      -6.1     14.658     17.634
REMARK  8 active torsions:
REMARK  status: ('A' for Active; 'I' for Inactive)
REMARK    1  A    between atoms: O_2  and  C_16 
REMARK    2  A    between atoms: O_2  and  C_19 
REMARK    3  A    between atoms: N_3  and  C_9 
REMARK    4  A    between atoms: C_9  and  C_10 
REMARK    5  A    between atoms: C_10  and  C_11 
REMARK    6  A    between atoms: C_11  and  C_12 
REMARK    7  A    between atoms: C_15  and  C_19 
REMARK    8  A    between atoms: C_15  and  C_20 
ROOT
HETATM    1  C   UNK N   1      29.123  23.676  -3.328  0.00  0.00     0.010 A 
HETATM    2  C   UNK N   1      27.884  23.671  -2.663  0.00  0.00     0.018 A 
HETATM    3  C   UNK N   1      29.188  24.126  -4.651  0.00  0.00     0.018 A 
HETATM    4  C   UNK N   1      26.783  24.489  -4.659  0.00  0.00     0.068 A 
HETATM    5  C   UNK N   1      26.728  24.098  -3.319  0.00  0.00     0.037 A 
HETATM    6  C   UNK N   1      28.024  24.513  -5.320  0.00  0.00     0.037 A 
ENDROOT
BRANCH   1   7
HETATM    7  C   UNK N   1      30.326  23.152  -2.651  0.00  0.00     0.161 C 
HETATM    8  O   UNK N   1      30.379  23.110  -1.425  0.00  0.00    -0.292 OA
BRANCH   7   9
HETATM    9  C   UNK N   1      31.543  22.822  -3.450  0.00  0.00     0.114 C 
BRANCH   9  10
HETATM   10  C   UNK N   1      31.686  21.344  -3.748  0.00  0.00     0.280 C 
BRANCH  10  11
HETATM   11  N   UNK N   1      31.582  21.174  -5.188  0.00  0.00     0.088 N 
HETATM   12  C   UNK N   1      32.446  20.072  -5.601  0.00  0.00     0.272 C 
HETATM   13  C   UNK N   1      32.392  19.928  -7.121  0.00  0.00     0.030 C 
HETATM   14  C   UNK N   1      30.953  19.664  -7.563  0.00  0.00     0.003 C 
HETATM   15  C   UNK N   1      30.015  20.733  -7.010  0.00  0.00     0.030 C 
HETATM   16  C   UNK N   1      30.194  20.832  -5.500  0.00  0.00     0.272 C 
ENDBRANCH  10  11
ENDBRANCH   9  10
ENDBRANCH   7   9
ENDBRANCH   1   7
BRANCH   4  17
HETATM   17  O   UNK N   1      25.636  24.802  -5.304  0.00  0.00    -0.351 OA
BRANCH  17  18
HETATM   18  C   UNK N   1      25.583  25.826  -6.224  0.00  0.00     0.175 C 
BRANCH  18  19
HETATM   19  C   UNK N   1      24.825  27.016  -5.686  0.00  0.00     0.026 C 
BRANCH  19  20
HETATM   20  C   UNK N   1      25.833  27.948  -5.044  0.00  0.00    -0.002 C 
HETATM   21  C   UNK N   1      25.728  27.872  -3.537  0.00  0.00     0.005 C 
ENDBRANCH  19  20
ENDBRANCH  18  19
ENDBRANCH  17  18
ENDBRANCH   4  17
TORSDOF 8
ENDMDL
MODEL 6
REMARK VINA RESULT:      -6.0      2.647      8.537
REMARK  8 active torsions:
REMARK  status: ('A' for Active; 'I' for Inactive)
REMARK    1  A    between atoms: O_2  and  C_16 
REMARK    2  A    between atoms: O_2  and  C_19 
REMARK    3  A    between atoms: N_3  and  C_9 
REMARK    4  A    between atoms: C_9  and  C_10 
REMARK    5  A    between atoms: C_10  and  C_11 
REMARK    6  A    between atoms: C_11  and  C_12 
REMARK    7  A    between atoms: C_15  and  C_19 
REMARK    8  A    between atoms: C_15  and  C_20 
ROOT
HETATM    1  C   UNK N   1      33.243  17.695   7.713  0.00  0.00     0.010 A 
HETATM    2  C   UNK N   1      33.374  17.529   6.323  0.00  0.00     0.018 A 
HETATM    3  C   UNK N   1      31.979  17.574   8.301  0.00  0.00     0.018 A 
HETATM    4  C   UNK N   1      30.984  17.197   6.113  0.00  0.00     0.068 A 
HETATM    5  C   UNK N   1      32.254  17.257   5.535  0.00  0.00     0.037 A 
HETATM    6  C   UNK N   1      30.853  17.345   7.506  0.00  0.00     0.037 A 
ENDROOT
BRANCH   1   7
HETATM    7  C   UNK N   1      34.420  18.056   8.528  0.00  0.00     0.161 C 
HETATM    8  O   UNK N   1      35.053  19.078   8.284  0.00  0.00    -0.292 OA
BRANCH   7   9
HETATM    9  C   UNK N   1      34.938  17.099   9.550  0.00  0.00     0.114 C 
BRANCH   9  10
HETATM   10  C   UNK N   1      35.032  15.673   9.049  0.00  0.00     0.280 C 
BRANCH  10  11
HETATM   11  N   UNK N   1      35.525  14.853  10.143  0.00  0.00     0.088 N 
HETATM   12  C   UNK N   1      35.393  15.598  11.392  0.00  0.00     0.272 C 
HETATM   13  C   UNK N   1      35.967  14.768  12.540  0.00  0.00     0.030 C 
HETATM   14  C   UNK N   1      35.222  13.437  12.637  0.00  0.00     0.003 C 
HETATM   15  C   UNK N   1      35.227  12.717  11.291  0.00  0.00     0.030 C 
HETATM   16  C   UNK N   1      34.691  13.653  10.214  0.00  0.00     0.272 C 
ENDBRANCH  10  11
ENDBRANCH   9  10
ENDBRANCH   7   9
ENDBRANCH   1   7
BRANCH   4  17
HETATM   17  O   UNK N   1      29.903  17.034   5.317  0.00  0.00    -0.351 OA
BRANCH  17  18
HETATM   18  C   UNK N   1      28.727  17.711   5.554  0.00  0.00     0.175 C 
BRANCH  18  19
HETATM   19  C   UNK N   1      28.176  18.325   4.289  0.00  0.00     0.026 C 
BRANCH  19  20
HETATM   20  C   UNK N   1      27.889  19.786   4.577  0.00  0.00    -0.002 C 
HETATM   21  C   UNK N   1      26.703  20.255   3.763  0.00  0.00     0.005 C 
ENDBRANCH  19  20
ENDBRANCH  18  19
ENDBRANCH  17  18
ENDBRANCH   4  17
TORSDOF 8
ENDMDL
MODEL 7
REMARK VINA RESULT:      -6.0      4.501      7.951
REMARK  8 active torsions:
REMARK  status: ('A' for Active; 'I' for Inactive)
REMARK    1  A    between atoms: O_2  and  C_16 
REMARK    2  A    between atoms: O_2  and  C_19 
REMARK    3  A    between atoms: N_3  and  C_9 
REMARK    4  A    between atoms: C_9  and  C_10 
REMARK    5  A    between atoms: C_10  and  C_11 
REMARK    6  A    between atoms: C_11  and  C_12 
REMARK    7  A    between atoms: C_15  and  C_19 
REMARK    8  A    between atoms: C_15  and  C_20 
ROOT
HETATM    1  C   UNK N   1      30.583  17.120   7.671  0.00  0.00     0.010 A 
HETATM    2  C   UNK N   1      30.143  16.448   6.517  0.00  0.00     0.018 A 
HETATM    3  C   UNK N   1      29.747  18.070   8.270  0.00  0.00     0.018 A 
HETATM    4  C   UNK N   1      28.085  17.723   6.527  0.00  0.00     0.068 A 
HETATM    5  C   UNK N   1      28.893  16.732   5.966  0.00  0.00     0.037 A 
HETATM    6  C   UNK N   1      28.514  18.385   7.693  0.00  0.00     0.037 A 
ENDROOT
BRANCH   1   7
HETATM    7  C   UNK N   1      31.936  16.867   8.203  0.00  0.00     0.161 C 
HETATM    8  O   UNK N   1      32.124  15.968   9.018  0.00  0.00    -0.292 OA
BRANCH   7   9
HETATM    9  C   UNK N   1      33.051  17.803   7.874  0.00  0.00     0.114 C 
BRANCH   9  10
HETATM   10  C   UNK N   1      34.123  17.182   7.004  0.00  0.00     0.280 C 
BRANCH  10  11
HETATM   11  N   UNK N   1      33.472  16.636   5.825  0.00  0.00     0.088 N 
HETATM   12  C   UNK N   1      33.268  17.707   4.854  0.00  0.00     0.272 C 
HETATM   13  C   UNK N   1      32.526  17.155   3.638  0.00  0.00     0.030 C 
HETATM   14  C   UNK N   1      33.337  16.021   3.011  0.00  0.00     0.003 C 
HETATM   15  C   UNK N   1      33.683  14.964   4.056  0.00  0.00     0.030 C 
HETATM   16  C   UNK N   1      34.364  15.632   5.245  0.00  0.00     0.272 C 
ENDBRANCH  10  11
ENDBRANCH   9  10
ENDBRANCH   7   9
ENDBRANCH   1   7
BRANCH   4  17
HETATM   17  O   UNK N   1      26.923  18.054   5.918  0.00  0.00    -0.351 OA
BRANCH  17  18
HETATM   18  C   UNK N   1      26.892  18.475   4.608  0.00  0.00     0.175 C 
BRANCH  18  19
HETATM   19  C   UNK N   1      27.511  19.843   4.449  0.00  0.00     0.026 C 
BRANCH  19  20
HETATM   20  C   UNK N   1      26.590  20.842   5.122  0.00  0.00    -0.002 C 
HETATM   21  C   UNK N   1      27.312  21.536   6.256  0.00  0.00     0.005 C 
ENDBRANCH  19  20
ENDBRANCH  18  19
ENDBRANCH  17  18
ENDBRANCH   4  17
TORSDOF 8
ENDMDL
MODEL 8
REMARK VINA RESULT:      -6.0     17.346     19.499
REMARK  8 active torsions:
REMARK  status: ('A' for Active; 'I' for Inactive)
REMARK    1  A    between atoms: O_2  and  C_16 
REMARK    2  A    between atoms: O_2  and  C_19 
REMARK    3  A    between atoms: N_3  and  C_9 
REMARK    4  A    between atoms: C_9  and  C_10 
REMARK    5  A    between atoms: C_10  and  C_11 
REMARK    6  A    between atoms: C_11  and  C_12 
REMARK    7  A    between atoms: C_15  and  C_19 
REMARK    8  A    between atoms: C_15  and  C_20 
ROOT
HETATM    1  C   UNK N   1      25.990  24.941  -5.532  0.00  0.00     0.010 A 
HETATM    2  C   UNK N   1      26.580  25.011  -4.257  0.00  0.00     0.018 A 
HETATM    3  C   UNK N   1      25.358  26.074  -6.057  0.00  0.00     0.018 A 
HETATM    4  C   UNK N   1      25.843  27.305  -4.016  0.00  0.00     0.068 A 
HETATM    5  C   UNK N   1      26.526  26.194  -3.517  0.00  0.00     0.037 A 
HETATM    6  C   UNK N   1      25.267  27.243  -5.298  0.00  0.00     0.037 A 
ENDROOT
BRANCH   1   7
HETATM    7  C   UNK N   1      25.986  23.665  -6.275  0.00  0.00     0.161 C 
HETATM    8  O   UNK N   1      25.074  22.859  -6.119  0.00  0.00    -0.292 OA
BRANCH   7   9
HETATM    9  C   UNK N   1      27.172  23.281  -7.097  0.00  0.00     0.114 C 
BRANCH   9  10
HETATM   10  C   UNK N   1      28.370  22.863  -6.271  0.00  0.00     0.280 C 
BRANCH  10  11
HETATM   11  N   UNK N   1      29.097  21.858  -7.028  0.00  0.00     0.088 N 
HETATM   12  C   UNK N   1      29.803  20.981  -6.099  0.00  0.00     0.272 C 
HETATM   13  C   UNK N   1      30.622  19.960  -6.889  0.00  0.00     0.030 C 
HETATM   14  C   UNK N   1      29.696  19.142  -7.789  0.00  0.00     0.003 C 
HETATM   15  C   UNK N   1      28.845  20.059  -8.662  0.00  0.00     0.030 C 
HETATM   16  C   UNK N   1      28.121  21.069  -7.780  0.00  0.00     0.272 C 
ENDBRANCH  10  11
ENDBRANCH   9  10
ENDBRANCH   7   9
ENDBRANCH   1   7
BRANCH   4  17
HETATM   17  O   UNK N   1      25.715  28.406  -3.240  0.00  0.00    -0.351 OA
BRANCH  17  18
HETATM   18  C   UNK N   1      26.243  29.620  -3.620  0.00  0.00     0.175 C 
BRANCH  18  19
HETATM   19  C   UNK N   1      27.711  29.505  -3.960  0.00  0.00     0.026 C 
BRANCH  19  20
HETATM   20  C   UNK N   1      27.929  30.208  -5.285  0.00  0.00    -0.002 C 
HETATM   21  C   UNK N   1      28.091  29.192  -6.395  0.00  0.00     0.005 C 
ENDBRANCH  19  20
ENDBRANCH  18  19
ENDBRANCH  17  18
ENDBRANCH   4  17
TORSDOF 8
ENDMDL
MODEL 9
REMARK VINA RESULT:      -5.8     11.924     12.861
REMARK  8 active torsions:
REMARK  status: ('A' for Active; 'I' for Inactive)
REMARK    1  A    between atoms: O_2  and  C_16 
REMARK    2  A    between atoms: O_2  and  C_19 
REMARK    3  A    between atoms: N_3  and  C_9 
REMARK    4  A    between atoms: C_9  and  C_10 
REMARK    5  A    between atoms: C_10  and  C_11 
REMARK    6  A    between atoms: C_11  and  C_12 
REMARK    7  A    between atoms: C_15  and  C_19 
REMARK    8  A    between atoms: C_15  and  C_20 
ROOT
HETATM    1  C   UNK N   1      21.359  15.952   7.657  0.00  0.00     0.010 A 
HETATM    2  C   UNK N   1      22.294  14.969   7.290  0.00  0.00     0.018 A 
HETATM    3  C   UNK N   1      20.566  15.752   8.793  0.00  0.00     0.018 A 
HETATM    4  C   UNK N   1      21.591  13.572   9.139  0.00  0.00     0.068 A 
HETATM    5  C   UNK N   1      22.424  13.799   8.041  0.00  0.00     0.037 A 
HETATM    6  C   UNK N   1      20.667  14.562   9.520  0.00  0.00     0.037 A 
ENDROOT
BRANCH   1   7
HETATM    7  C   UNK N   1      21.176  17.150   6.814  0.00  0.00     0.161 C 
HETATM    8  O   UNK N   1      20.722  18.183   7.296  0.00  0.00    -0.292 OA
BRANCH   7   9
HETATM    9  C   UNK N   1      21.394  17.061   5.340  0.00  0.00     0.114 C 
BRANCH   9  10
HETATM   10  C   UNK N   1      22.373  18.088   4.812  0.00  0.00     0.280 C 
BRANCH  10  11
HETATM   11  N   UNK N   1      21.614  19.072   4.058  0.00  0.00     0.088 N 
HETATM   12  C   UNK N   1      22.527  19.820   3.197  0.00  0.00     0.272 C 
HETATM   13  C   UNK N   1      21.747  20.899   2.447  0.00  0.00     0.030 C 
HETATM   14  C   UNK N   1      20.644  20.251   1.611  0.00  0.00     0.003 C 
HETATM   15  C   UNK N   1      19.771  19.348   2.478  0.00  0.00     0.030 C 
HETATM   16  C   UNK N   1      20.654  18.352   3.221  0.00  0.00     0.272 C 
ENDBRANCH  10  11
ENDBRANCH   9  10
ENDBRANCH   7   9
ENDBRANCH   1   7
BRANCH   4  17
HETATM   17  O   UNK N   1      21.664  12.390   9.792  0.00  0.00    -0.351 OA
BRANCH  17  18
HETATM   18  C   UNK N   1      22.776  11.582   9.695  0.00  0.00     0.175 C 
BRANCH  18  19
HETATM   19  C   UNK N   1      23.511  11.491  11.011  0.00  0.00     0.026 C 
BRANCH  19  20
HETATM   20  C   UNK N   1      22.594  12.040  12.086  0.00  0.00    -0.002 C 
HETATM   21  C   UNK N   1      23.295  12.024  13.427  0.00  0.00     0.005 C 
ENDBRANCH  19  20
ENDBRANCH  18  19
ENDBRANCH  17  18
ENDBRANCH   4  17
TORSDOF 8
ENDMDL
