REMARK  8 active torsions:
REMARK  status: ('A' for Active; 'I' for Inactive)
REMARK    1  A    between atoms: O_2  and  C_16 
REMARK    2  A    between atoms: O_2  and  C_19 
REMARK    3  A    between atoms: N_3  and  C_9 
REMARK    4  A    between atoms: C_9  and  C_10 
REMARK    5  A    between atoms: C_10  and  C_11 
REMARK    6  A    between atoms: C_11  and  C_12 
REMARK    7  A    between atoms: C_15  and  C_19 
REMARK    8  A    between atoms: C_15  and  C_20 
ROOT
HETATM    1  C   UNK N   1       2.424   0.845  -0.045  0.00  0.00     0.010 A 
HETATM    2  C   UNK N   1       3.763   0.429  -0.152  0.00  0.00     0.018 A 
HETATM    3  C   UNK N   1       1.418  -0.117   0.101  0.00  0.00     0.018 A 
HETATM    4  C   UNK N   1       3.077  -1.891  -0.040  0.00  0.00     0.068 A 
HETATM    5  C   UNK N   1       4.086  -0.929  -0.125  0.00  0.00     0.037 A 
HETATM    6  C   UNK N   1       1.738  -1.477   0.085  0.00  0.00     0.037 A 
ENDROOT
BRANCH   1   7
HETATM    7  C   UNK N   1       2.085   2.278  -0.150  0.00  0.00     0.161 C 
HETATM    8  O   UNK N   1       0.954   2.669   0.123  0.00  0.00    -0.292 OA
BRANCH   7   9
HETATM    9  C   UNK N   1       3.069   3.233  -0.740  0.00  0.00     0.114 C 
BRANCH   9  10
HETATM   10  C   UNK N   1       3.730   4.129   0.286  0.00  0.00     0.280 C 
BRANCH  10  11
HETATM   11  N   UNK N   1       5.090   4.381  -0.161  0.00  0.00     0.088 N 
HETATM   12  C   UNK N   1       5.551   5.645   0.406  0.00  0.00     0.272 C 
HETATM   13  C   UNK N   1       6.957   5.949  -0.110  0.00  0.00     0.030 C 
HETATM   14  C   UNK N   1       7.906   4.817   0.282  0.00  0.00     0.003 C 
HETATM   15  C   UNK N   1       7.357   3.470  -0.179  0.00  0.00     0.030 C 
HETATM   16  C   UNK N   1       5.935   3.298   0.342  0.00  0.00     0.272 C 
ENDBRANCH  10  11
ENDBRANCH   9  10
ENDBRANCH   7   9
ENDBRANCH   1   7
BRANCH   4  17
HETATM   17  O   UNK N   1       3.404  -3.201  -0.118  0.00  0.00    -0.351 OA
BRANCH  17  18
HETATM   18  C   UNK N   1       2.537  -4.129  -0.651  0.00  0.00     0.175 C 
BRANCH  18  19
HETATM   19  C   UNK N   1       1.943  -5.013   0.420  0.00  0.00     0.026 C 
BRANCH  19  20
HETATM   20  C   UNK N   1       0.445  -5.062   0.193  0.00  0.00    -0.002 C 
HETATM   21  C   UNK N   1      -0.042  -6.494   0.233  0.00  0.00     0.005 C 
ENDBRANCH  19  20
ENDBRANCH  18  19
ENDBRANCH  17  18
ENDBRANCH   4  17
TORSDOF 8
