REMARK  15 active torsions:
REMARK  status: ('A' for Active; 'I' for Inactive)
REMARK    1  A    between atoms: O_2  and  C_22 
REMARK    2  A    between atoms: O_2  and  C_24 
REMARK    3  A    between atoms: C_20  and  O_3 
REMARK    4  A    between atoms: C_21  and  O_4 
REMARK    5  A    between atoms: O_5  and  C_26 
REMARK    6  A    between atoms: O_6  and  C_29 
REMARK    7  A    between atoms: O_8  and  C_32 
REMARK    8  A    between atoms: O_9  and  C_33 
REMARK    9  A    between atoms: O_10  and  C_36 
REMARK   10  A    between atoms: O_11  and  C_40 
REMARK   11  A    between atoms: O_12  and  C_42 
REMARK   12  A    between atoms: O_13  and  C_43 
REMARK   13  A    between atoms: O_16  and  C_47 
REMARK   14  A    between atoms: C_19  and  N_18 
REMARK   15  A    between atoms: C_27  and  C_40 
ROOT
HETATM    1  O   UNK N   1      10.287  -6.310  -0.626  0.00  0.00    -0.316 OA
HETATM    2  O   UNK N   1       3.501  -0.072   1.548  0.00  0.00    -0.298 OA
HETATM    3  O   UNK N   1      11.813  -5.432  -1.988  0.00  0.00    -0.265 OA
HETATM    4  C   UNK N   1       4.570   2.536  -1.220  0.00  0.00     0.150 C 
HETATM    5  C   UNK N   1       5.963   2.705  -1.795  0.00  0.00     0.068 C 
HETATM    6  C   UNK N   1       7.010   1.813  -1.113  0.00  0.00     0.137 C 
HETATM    7  C   UNK N   1       7.136   2.100   0.408  0.00  0.00     0.141 C 
HETATM    8  C   UNK N   1       5.905   1.568   1.181  0.00  0.00     0.141 C 
HETATM    9  C   UNK N   1       5.840   0.045   1.285  0.00  0.00     0.111 C 
HETATM   10  C   UNK N   1       3.745   1.437  -1.796  0.00  0.00     0.005 C 
HETATM   11  C   UNK N   1       6.384  -1.244  -1.427  0.00  0.00     0.147 C 
HETATM   12  C   UNK N   1       5.582  -2.239  -0.576  0.00  0.00     0.153 C 
HETATM   13  C   UNK N   1       7.848  -1.620  -1.582  0.00  0.00     0.037 C 
HETATM   14  C   UNK N   1       8.569  -1.232  -0.297  0.00  0.00     0.034 C 
HETATM   15  C   UNK N   1       9.799  -2.062   0.022  0.00  0.00     0.120 C 
HETATM   16  C   UNK N   1       4.288  -1.602  -0.067  0.00  0.00     0.112 C 
HETATM   17  C   UNK N   1       8.717  -6.355   1.250  0.00  0.00     0.040 C 
HETATM   18  C   UNK N   1      11.070  -1.244  -0.122  0.00  0.00     0.063 C 
HETATM   19  C   UNK N   1       4.477  -0.499   0.954  0.00  0.00     0.131 C 
HETATM   20  C   UNK N   1      12.022  -1.484   1.054  0.00  0.00     0.123 C 
HETATM   21  C   UNK N   1       7.321  -6.698   0.678  0.00  0.00     0.131 C 
HETATM   22  C   UNK N   1       9.974  -6.917   0.571  0.00  0.00     0.134 C 
HETATM   23  C   UNK N   1      12.247  -2.968   1.373  0.00  0.00     0.064 C 
HETATM   24  C   UNK N   1       6.689  -5.558  -0.140  0.00  0.00     0.033 C 
HETATM   25  C   UNK N   1      12.697  -3.760   0.154  0.00  0.00     0.130 C 
HETATM   26  C   UNK N   1       8.876  -4.934   1.769  0.00  0.00     0.015 C 
HETATM   27  C   UNK N   1       2.522   1.277  -1.308  0.00  0.00    -0.002 C 
HETATM   28  C   UNK N   1      12.365  -5.241   0.294  0.00  0.00     0.142 C 
HETATM   29  C   UNK N   1       9.843  -8.414   0.359  0.00  0.00     0.040 C 
HETATM   30  C   UNK N   1       7.454  -5.282  -1.425  0.00  0.00     0.017 C 
HETATM   31  C   UNK N   1      11.468  -5.669  -0.840  0.00  0.00     0.261 C 
HETATM   32  C   UNK N   1       5.211  -5.735  -0.413  0.00  0.00    -0.020 C 
HETATM   33  C   UNK N   1       1.806   0.031  -1.484  0.00  0.00    -0.000 C 
HETATM   34  C   UNK N   1       4.754  -6.681  -1.239  0.00  0.00    -0.004 C 
HETATM   35  C   UNK N   1       0.831  -0.221  -0.626  0.00  0.00     0.000 C 
HETATM   36  C   UNK N   1       3.319  -6.875  -1.566  0.00  0.00    -0.004 C 
HETATM   37  C   UNK N   1       0.458  -1.603  -0.407  0.00  0.00     0.000 C 
HETATM   38  C   UNK N   1       2.250  -6.555  -0.817  0.00  0.00    -0.026 C 
HETATM   39  C   UNK N   1       2.293  -6.014   0.578  0.00  0.00     0.031 C 
HETATM   40  C   UNK N   1      -0.093  -1.953   0.755  0.00  0.00    -0.000 C 
HETATM   41  C   UNK N   1       0.880  -5.632   0.999  0.00  0.00     0.031 C 
HETATM   42  C   UNK N   1      -0.073  -3.359   1.196  0.00  0.00    -0.004 C 
HETATM   43  C   UNK N   1       0.621  -4.259   0.497  0.00  0.00    -0.026 C 
ENDROOT
BRANCH   4  44
HETATM   44  O   UNK N   1       3.886   3.742  -1.089  0.00  0.00    -0.349 OA
BRANCH  44  45
HETATM   45  C   UNK N   1       3.671   3.848   0.298  0.00  0.00     0.291 C 
HETATM   46  O   UNK N   1       4.742   4.521   0.935  0.00  0.00    -0.351 OA
HETATM   47  C   UNK N   1       4.863   5.883   0.536  0.00  0.00     0.151 C 
HETATM   48  C   UNK N   1       3.694   6.449  -0.295  0.00  0.00     0.171 C 
HETATM   49  C   UNK N   1       6.173   6.074  -0.205  0.00  0.00     0.042 C 
HETATM   50  C   UNK N   1       2.348   6.024   0.294  0.00  0.00     0.139 C 
HETATM   51  C   UNK N   1       2.338   4.519   0.636  0.00  0.00     0.198 C 
BRANCH  48  52
HETATM   52  O   UNK N   1       3.778   7.839  -0.378  0.00  0.00    -0.391 OA
HETATM   53  H   UNK N   1       4.645   8.271  -0.435  0.00  0.00     0.210 HD
ENDBRANCH  48  52
BRANCH  50  54
HETATM   54  N   UNK N   1       1.278   6.373  -0.628  0.00  0.00    -0.421 N 
HETATM   55  H   UNK N   1       1.115   7.145  -1.275  0.00  0.00     0.150 HD
HETATM   56  H   UNK N   1       0.519   5.691  -0.628  0.00  0.00     0.150 HD
ENDBRANCH  50  54
BRANCH  51  57
HETATM   57  O   UNK N   1       1.262   3.828   0.071  0.00  0.00    -0.388 OA
HETATM   58  H   UNK N   1       0.474   4.235  -0.321  0.00  0.00     0.210 HD
ENDBRANCH  51  57
ENDBRANCH  44  45
ENDBRANCH   4  44
BRANCH   6  59
HETATM   59  O   UNK N   1       8.223   2.039  -1.766  0.00  0.00    -0.394 OA
HETATM   60  H   UNK N   1       8.780   1.387  -2.219  0.00  0.00     0.210 HD
ENDBRANCH   6  59
BRANCH   7  61
HETATM   61  C   UNK N   1       8.460   1.659   1.014  0.00  0.00     0.148 C 
HETATM   62  O   UNK N   1       8.494   0.893   1.965  0.00  0.00    -0.650 OA
BRANCH  61  63
HETATM   63  O   UNK N   1       9.616   2.148   0.526  0.00  0.00    -0.776 OA
HETATM   64  H   UNK N   1      10.313   1.621   0.187  0.00  0.00     0.167 HD
ENDBRANCH  61  63
ENDBRANCH   7  61
BRANCH   8  65
HETATM   65  O   UNK N   1       5.850   2.124   2.459  0.00  0.00    -0.394 OA
HETATM   66  H   UNK N   1       6.166   2.350   3.348  0.00  0.00     0.210 HD
ENDBRANCH   8  65
BRANCH  12  67
HETATM   67  O   UNK N   1       6.310  -2.717   0.517  0.00  0.00    -0.393 OA
HETATM   68  H   UNK N   1       6.275  -3.320   1.276  0.00  0.00     0.210 HD
ENDBRANCH  12  67
BRANCH  11  69
HETATM   69  O   UNK N   1       5.792  -1.113  -2.682  0.00  0.00    -0.393 OA
HETATM   70  H   UNK N   1       5.665  -0.710  -3.555  0.00  0.00     0.210 HD
ENDBRANCH  11  69
BRANCH  15  71
HETATM   71  O   UNK N   1       9.871  -3.211  -0.766  0.00  0.00    -0.395 OA
HETATM   72  H   UNK N   1       9.205  -3.654  -1.313  0.00  0.00     0.210 HD
ENDBRANCH  15  71
BRANCH  20  73
HETATM   73  O   UNK N   1      13.236  -0.837   0.817  0.00  0.00    -0.395 OA
HETATM   74  H   UNK N   1      14.047  -1.342   0.652  0.00  0.00     0.210 HD
ENDBRANCH  20  73
BRANCH  25  75
HETATM   75  O   UNK N   1      14.062  -3.585  -0.068  0.00  0.00    -0.395 OA
HETATM   76  H   UNK N   1      14.642  -4.347  -0.222  0.00  0.00     0.210 HD
ENDBRANCH  25  75
BRANCH  21  77
HETATM   77  O   UNK N   1       6.487  -7.008   1.754  0.00  0.00    -0.394 OA
HETATM   78  H   UNK N   1       6.011  -6.613   2.502  0.00  0.00     0.210 HD
ENDBRANCH  21  77
TORSDOF 15
