MODEL 1
REMARK VINA RESULT:      -6.1      0.000      0.000
REMARK  3 active torsions:
REMARK  status: ('A' for Active; 'I' for Inactive)
REMARK    1  A    between atoms: C_5  and  C_6 
REMARK    2  A    between atoms: C_5  and  C_7 
REMARK    3  A    between atoms: C_5  and  C_8 
ROOT
HETATM    1  C   UNK N   1      29.824  16.961   5.387  0.00  0.00     0.086 C 
ENDROOT
BRANCH   1   2
HETATM    2  C   UNK N   1      28.922  18.162   5.661  0.00  0.00    -0.047 A 
HETATM    3  C   UNK N   1      28.538  18.446   6.982  0.00  0.00     0.009 A 
HETATM    4  C   UNK N   1      27.725  19.550   7.264  0.00  0.00     0.024 A 
HETATM    5  C   UNK N   1      27.297  20.386   6.229  0.00  0.00     0.034 A 
HETATM    6 Cl   UNK N   1      26.285  21.770   6.581  0.00  0.00    -0.084 Cl
HETATM    7  C   UNK N   1      27.681  20.121   4.914  0.00  0.00     0.024 A 
HETATM    8  C   UNK N   1      28.488  19.016   4.632  0.00  0.00     0.009 A 
ENDBRANCH   1   2
BRANCH   1   9
HETATM    9  C   UNK N   1      31.261  17.119   5.871  0.00  0.00    -0.025 A 
HETATM   10  C   UNK N   1      32.330  17.245   4.950  0.00  0.00     0.041 A 
HETATM   11 Cl   UNK N   1      32.066  17.226   3.209  0.00  0.00    -0.084 Cl
HETATM   12  C   UNK N   1      33.639  17.401   5.411  0.00  0.00     0.024 A 
HETATM   13  C   UNK N   1      33.907  17.438   6.780  0.00  0.00     0.002 A 
HETATM   14  C   UNK N   1      32.864  17.318   7.697  0.00  0.00     0.001 A 
HETATM   15  C   UNK N   1      31.553  17.159   7.248  0.00  0.00     0.009 A 
ENDBRANCH   1   9
BRANCH   1  16
HETATM   16  C   UNK N   1      29.252  15.604   5.847  0.00  0.00     0.191 C 
HETATM   17 Cl   UNK N   1      30.271  14.226   5.353  0.00  0.00    -0.107 Cl
HETATM   18 Cl   UNK N   1      27.539  15.345   5.405  0.00  0.00    -0.107 Cl
ENDBRANCH   1  16
TORSDOF 3
ENDMDL
MODEL 2
REMARK VINA RESULT:      -5.8      1.687      5.406
REMARK  3 active torsions:
REMARK  status: ('A' for Active; 'I' for Inactive)
REMARK    1  A    between atoms: C_5  and  C_6 
REMARK    2  A    between atoms: C_5  and  C_7 
REMARK    3  A    between atoms: C_5  and  C_8 
ROOT
HETATM    1  C   UNK N   1      28.548  17.043   6.033  0.00  0.00     0.086 C 
ENDROOT
BRANCH   1   2
HETATM    2  C   UNK N   1      30.071  16.942   6.075  0.00  0.00    -0.047 A 
HETATM    3  C   UNK N   1      30.698  16.480   7.243  0.00  0.00     0.009 A 
HETATM    4  C   UNK N   1      32.090  16.362   7.304  0.00  0.00     0.024 A 
HETATM    5  C   UNK N   1      32.870  16.696   6.193  0.00  0.00     0.034 A 
HETATM    6 Cl   UNK N   1      34.612  16.544   6.265  0.00  0.00    -0.084 Cl
HETATM    7  C   UNK N   1      32.258  17.146   5.022  0.00  0.00     0.024 A 
HETATM    8  C   UNK N   1      30.868  17.268   4.963  0.00  0.00     0.009 A 
ENDBRANCH   1   2
BRANCH   1   9
HETATM    9  C   UNK N   1      28.009  18.447   5.790  0.00  0.00    -0.025 A 
HETATM   10  C   UNK N   1      27.815  19.350   6.865  0.00  0.00     0.041 A 
HETATM   11 Cl   UNK N   1      28.182  18.908   8.529  0.00  0.00    -0.084 Cl
HETATM   12  C   UNK N   1      27.331  20.638   6.622  0.00  0.00     0.024 A 
HETATM   13  C   UNK N   1      27.038  21.049   5.321  0.00  0.00     0.002 A 
HETATM   14  C   UNK N   1      27.227  20.172   4.254  0.00  0.00     0.001 A 
HETATM   15  C   UNK N   1      27.707  18.883   4.484  0.00  0.00     0.009 A 
ENDBRANCH   1   9
BRANCH   1  16
HETATM   16  C   UNK N   1      27.857  16.035   5.090  0.00  0.00     0.191 C 
HETATM   17 Cl   UNK N   1      26.115  15.859   5.430  0.00  0.00    -0.107 Cl
HETATM   18 Cl   UNK N   1      28.671  14.446   4.997  0.00  0.00    -0.107 Cl
ENDBRANCH   1  16
TORSDOF 3
ENDMDL
MODEL 3
REMARK VINA RESULT:      -5.7     11.449     13.407
REMARK  3 active torsions:
REMARK  status: ('A' for Active; 'I' for Inactive)
REMARK    1  A    between atoms: C_5  and  C_6 
REMARK    2  A    between atoms: C_5  and  C_7 
REMARK    3  A    between atoms: C_5  and  C_8 
ROOT
HETATM    1  C   UNK N   1      27.768  25.331  -5.203  0.00  0.00     0.086 C 
ENDROOT
BRANCH   1   2
HETATM    2  C   UNK N   1      27.375  26.752  -4.807  0.00  0.00    -0.047 A 
HETATM    3  C   UNK N   1      27.968  27.839  -5.469  0.00  0.00     0.009 A 
HETATM    4  C   UNK N   1      27.615  29.152  -5.137  0.00  0.00     0.024 A 
HETATM    5  C   UNK N   1      26.658  29.390  -4.147  0.00  0.00     0.034 A 
HETATM    6 Cl   UNK N   1      26.211  31.032  -3.735  0.00  0.00    -0.084 Cl
HETATM    7  C   UNK N   1      26.054  28.318  -3.488  0.00  0.00     0.024 A 
HETATM    8  C   UNK N   1      26.410  27.008  -3.816  0.00  0.00     0.009 A 
ENDBRANCH   1   2
BRANCH   1   9
HETATM    9  C   UNK N   1      28.505  24.549  -4.123  0.00  0.00    -0.025 A 
HETATM   10  C   UNK N   1      29.921  24.515  -4.085  0.00  0.00     0.041 A 
HETATM   11 Cl   UNK N   1      30.905  25.365  -5.273  0.00  0.00    -0.084 Cl
HETATM   12  C   UNK N   1      30.580  23.802  -3.080  0.00  0.00     0.024 A 
HETATM   13  C   UNK N   1      29.853  23.122  -2.103  0.00  0.00     0.002 A 
HETATM   14  C   UNK N   1      28.459  23.150  -2.127  0.00  0.00     0.001 A 
HETATM   15  C   UNK N   1      27.790  23.855  -3.126  0.00  0.00     0.009 A 
ENDBRANCH   1   9
BRANCH   1  16
HETATM   16  C   UNK N   1      26.621  24.481  -5.789  0.00  0.00     0.191 C 
HETATM   17 Cl   UNK N   1      27.192  22.941  -6.484  0.00  0.00    -0.107 Cl
HETATM   18 Cl   UNK N   1      25.567  25.365  -6.931  0.00  0.00    -0.107 Cl
ENDBRANCH   1  16
TORSDOF 3
ENDMDL
MODEL 4
REMARK VINA RESULT:      -5.6     12.558     15.207
REMARK  3 active torsions:
REMARK  status: ('A' for Active; 'I' for Inactive)
REMARK    1  A    between atoms: C_5  and  C_6 
REMARK    2  A    between atoms: C_5  and  C_7 
REMARK    3  A    between atoms: C_5  and  C_8 
ROOT
HETATM    1  C   UNK N   1      26.916  26.552  -6.080  0.00  0.00     0.086 C 
ENDROOT
BRANCH   1   2
HETATM    2  C   UNK N   1      27.467  25.612  -5.011  0.00  0.00    -0.047 A 
HETATM    3  C   UNK N   1      28.848  25.592  -4.758  0.00  0.00     0.009 A 
HETATM    4  C   UNK N   1      29.379  24.752  -3.773  0.00  0.00     0.024 A 
HETATM    5  C   UNK N   1      28.532  23.929  -3.025  0.00  0.00     0.034 A 
HETATM    6 Cl   UNK N   1      29.194  22.881  -1.789  0.00  0.00    -0.084 Cl
HETATM    7  C   UNK N   1      27.156  23.946  -3.260  0.00  0.00     0.024 A 
HETATM    8  C   UNK N   1      26.628  24.782  -4.246  0.00  0.00     0.009 A 
ENDBRANCH   1   2
BRANCH   1   9
HETATM    9  C   UNK N   1      27.366  28.002  -5.946  0.00  0.00    -0.025 A 
HETATM   10  C   UNK N   1      26.856  28.832  -4.917  0.00  0.00     0.041 A 
HETATM   11 Cl   UNK N   1      25.682  28.244  -3.743  0.00  0.00    -0.084 Cl
HETATM   12  C   UNK N   1      27.289  30.155  -4.803  0.00  0.00     0.024 A 
HETATM   13  C   UNK N   1      28.229  30.671  -5.695  0.00  0.00     0.002 A 
HETATM   14  C   UNK N   1      28.741  29.865  -6.710  0.00  0.00     0.001 A 
HETATM   15  C   UNK N   1      28.315  28.543  -6.837  0.00  0.00     0.009 A 
ENDBRANCH   1   9
BRANCH   1  16
HETATM   16  C   UNK N   1      27.107  26.065  -7.532  0.00  0.00     0.191 C 
HETATM   17 Cl   UNK N   1      25.648  26.300  -8.532  0.00  0.00    -0.107 Cl
HETATM   18 Cl   UNK N   1      27.732  24.397  -7.666  0.00  0.00    -0.107 Cl
ENDBRANCH   1  16
TORSDOF 3
ENDMDL
MODEL 5
REMARK VINA RESULT:      -5.6      1.888      3.060
REMARK  3 active torsions:
REMARK  status: ('A' for Active; 'I' for Inactive)
REMARK    1  A    between atoms: C_5  and  C_6 
REMARK    2  A    between atoms: C_5  and  C_7 
REMARK    3  A    between atoms: C_5  and  C_8 
ROOT
HETATM    1  C   UNK N   1      30.420  16.486   6.591  0.00  0.00     0.086 C 
ENDROOT
BRANCH   1   2
HETATM    2  C   UNK N   1      29.425  17.645   6.574  0.00  0.00    -0.047 A 
HETATM    3  C   UNK N   1      28.932  18.110   5.344  0.00  0.00     0.009 A 
HETATM    4  C   UNK N   1      28.008  19.159   5.300  0.00  0.00     0.024 A 
HETATM    5  C   UNK N   1      27.561  19.748   6.486  0.00  0.00     0.034 A 
HETATM    6 Cl   UNK N   1      26.401  21.058   6.433  0.00  0.00    -0.084 Cl
HETATM    7  C   UNK N   1      28.036  19.289   7.716  0.00  0.00     0.024 A 
HETATM    8  C   UNK N   1      28.962  18.245   7.759  0.00  0.00     0.009 A 
ENDBRANCH   1   2
BRANCH   1   9
HETATM    9  C   UNK N   1      31.283  16.369   5.341  0.00  0.00    -0.025 A 
HETATM   10  C   UNK N   1      31.248  15.202   4.538  0.00  0.00     0.041 A 
HETATM   11 Cl   UNK N   1      30.217  13.830   4.933  0.00  0.00    -0.084 Cl
HETATM   12  C   UNK N   1      32.038  15.116   3.389  0.00  0.00     0.024 A 
HETATM   13  C   UNK N   1      32.863  16.179   3.017  0.00  0.00     0.002 A 
HETATM   14  C   UNK N   1      32.904  17.334   3.796  0.00  0.00     0.001 A 
HETATM   15  C   UNK N   1      32.122  17.430   4.948  0.00  0.00     0.009 A 
ENDBRANCH   1   9
BRANCH   1  16
HETATM   16  C   UNK N   1      31.299  16.405   7.857  0.00  0.00     0.191 C 
HETATM   17 Cl   UNK N   1      32.204  17.912   8.161  0.00  0.00    -0.107 Cl
HETATM   18 Cl   UNK N   1      32.368  14.974   7.914  0.00  0.00    -0.107 Cl
ENDBRANCH   1  16
TORSDOF 3
ENDMDL
MODEL 6
REMARK VINA RESULT:      -5.6      2.871      5.570
REMARK  3 active torsions:
REMARK  status: ('A' for Active; 'I' for Inactive)
REMARK    1  A    between atoms: C_5  and  C_6 
REMARK    2  A    between atoms: C_5  and  C_7 
REMARK    3  A    between atoms: C_5  and  C_8 
ROOT
HETATM    1  C   UNK N   1      31.169  17.264   6.769  0.00  0.00     0.086 C 
ENDROOT
BRANCH   1   2
HETATM    2  C   UNK N   1      32.341  17.005   7.713  0.00  0.00    -0.047 A 
HETATM    3  C   UNK N   1      33.369  17.958   7.810  0.00  0.00     0.009 A 
HETATM    4  C   UNK N   1      34.447  17.755   8.678  0.00  0.00     0.024 A 
HETATM    5  C   UNK N   1      34.503  16.602   9.465  0.00  0.00     0.034 A 
HETATM    6 Cl   UNK N   1      35.849  16.349  10.556  0.00  0.00    -0.084 Cl
HETATM    7  C   UNK N   1      33.484  15.652   9.386  0.00  0.00     0.024 A 
HETATM    8  C   UNK N   1      32.410  15.853   8.515  0.00  0.00     0.009 A 
ENDBRANCH   1   2
BRANCH   1   9
HETATM    9  C   UNK N   1      31.011  16.238   5.653  0.00  0.00    -0.025 A 
HETATM   10  C   UNK N   1      31.736  16.361   4.442  0.00  0.00     0.041 A 
HETATM   11 Cl   UNK N   1      32.852  17.693   4.156  0.00  0.00    -0.084 Cl
HETATM   12  C   UNK N   1      31.588  15.404   3.435  0.00  0.00     0.024 A 
HETATM   13  C   UNK N   1      30.730  14.318   3.612  0.00  0.00     0.002 A 
HETATM   14  C   UNK N   1      30.013  14.184   4.800  0.00  0.00     0.001 A 
HETATM   15  C   UNK N   1      30.150  15.134   5.812  0.00  0.00     0.009 A 
ENDBRANCH   1   9
BRANCH   1  16
HETATM   16  C   UNK N   1      29.815  17.504   7.469  0.00  0.00     0.191 C 
HETATM   17 Cl   UNK N   1      28.611  18.263   6.394  0.00  0.00    -0.107 Cl
HETATM   18 Cl   UNK N   1      29.942  18.372   9.027  0.00  0.00    -0.107 Cl
ENDBRANCH   1  16
TORSDOF 3
ENDMDL
MODEL 7
REMARK VINA RESULT:      -5.6      2.315      3.119
REMARK  3 active torsions:
REMARK  status: ('A' for Active; 'I' for Inactive)
REMARK    1  A    between atoms: C_5  and  C_6 
REMARK    2  A    between atoms: C_5  and  C_7 
REMARK    3  A    between atoms: C_5  and  C_8 
ROOT
HETATM    1  C   UNK N   1      29.110  17.143   5.695  0.00  0.00     0.086 C 
ENDROOT
BRANCH   1   2
HETATM    2  C   UNK N   1      28.064  17.965   4.947  0.00  0.00    -0.047 A 
HETATM    3  C   UNK N   1      28.202  19.361   4.884  0.00  0.00     0.009 A 
HETATM    4  C   UNK N   1      27.267  20.138   4.192  0.00  0.00     0.024 A 
HETATM    5  C   UNK N   1      26.189  19.526   3.546  0.00  0.00     0.034 A 
HETATM    6 Cl   UNK N   1      25.021  20.496   2.675  0.00  0.00    -0.084 Cl
HETATM    7  C   UNK N   1      26.045  18.138   3.592  0.00  0.00     0.024 A 
HETATM    8  C   UNK N   1      26.976  17.363   4.288  0.00  0.00     0.009 A 
ENDBRANCH   1   2
BRANCH   1   9
HETATM    9  C   UNK N   1      30.319  16.738   4.860  0.00  0.00    -0.025 A 
HETATM   10  C   UNK N   1      30.506  15.394   4.452  0.00  0.00     0.041 A 
HETATM   11 Cl   UNK N   1      29.364  14.124   4.880  0.00  0.00    -0.084 Cl
HETATM   12  C   UNK N   1      31.614  15.044   3.677  0.00  0.00     0.024 A 
HETATM   13  C   UNK N   1      32.544  16.011   3.295  0.00  0.00     0.002 A 
HETATM   14  C   UNK N   1      32.370  17.337   3.688  0.00  0.00     0.001 A 
HETATM   15  C   UNK N   1      31.269  17.699   4.464  0.00  0.00     0.009 A 
ENDBRANCH   1   9
BRANCH   1  16
HETATM   16  C   UNK N   1      29.566  17.746   7.040  0.00  0.00     0.191 C 
HETATM   17 Cl   UNK N   1      30.857  16.791   7.818  0.00  0.00    -0.107 Cl
HETATM   18 Cl   UNK N   1      28.231  18.093   8.176  0.00  0.00    -0.107 Cl
ENDBRANCH   1  16
TORSDOF 3
ENDMDL
MODEL 8
REMARK VINA RESULT:      -5.6     12.776     15.340
REMARK  3 active torsions:
REMARK  status: ('A' for Active; 'I' for Inactive)
REMARK    1  A    between atoms: C_5  and  C_6 
REMARK    2  A    between atoms: C_5  and  C_7 
REMARK    3  A    between atoms: C_5  and  C_8 
ROOT
HETATM    1  C   UNK N   1      35.823  11.182  16.883  0.00  0.00     0.086 C 
ENDROOT
BRANCH   1   2
HETATM    2  C   UNK N   1      35.577  10.218  18.041  0.00  0.00    -0.047 A 
HETATM    3  C   UNK N   1      36.607   9.975  18.964  0.00  0.00     0.009 A 
HETATM    4  C   UNK N   1      36.405   9.109  20.044  0.00  0.00     0.024 A 
HETATM    5  C   UNK N   1      35.167   8.483  20.217  0.00  0.00     0.034 A 
HETATM    6 Cl   UNK N   1      34.911   7.403  21.570  0.00  0.00    -0.084 Cl
HETATM    7  C   UNK N   1      34.132   8.724  19.312  0.00  0.00     0.024 A 
HETATM    8  C   UNK N   1      34.336   9.585  18.232  0.00  0.00     0.009 A 
ENDBRANCH   1   2
BRANCH   1   9
HETATM    9  C   UNK N   1      35.398  10.658  15.517  0.00  0.00    -0.025 A 
HETATM   10  C   UNK N   1      36.231   9.778  14.782  0.00  0.00     0.041 A 
HETATM   11 Cl   UNK N   1      37.791   9.242  15.398  0.00  0.00    -0.084 Cl
HETATM   12  C   UNK N   1      35.820   9.298  13.536  0.00  0.00     0.024 A 
HETATM   13  C   UNK N   1      34.586   9.676  13.005  0.00  0.00     0.002 A 
HETATM   14  C   UNK N   1      33.756  10.539  13.718  0.00  0.00     0.001 A 
HETATM   15  C   UNK N   1      34.157  11.027  14.962  0.00  0.00     0.009 A 
ENDBRANCH   1   9
BRANCH   1  16
HETATM   16  C   UNK N   1      35.277  12.608  17.102  0.00  0.00     0.191 C 
HETATM   17 Cl   UNK N   1      36.155  13.833  16.148  0.00  0.00    -0.107 Cl
HETATM   18 Cl   UNK N   1      35.145  13.085  18.819  0.00  0.00    -0.107 Cl
ENDBRANCH   1  16
TORSDOF 3
ENDMDL
MODEL 9
REMARK VINA RESULT:      -5.5     11.944     14.375
REMARK  3 active torsions:
REMARK  status: ('A' for Active; 'I' for Inactive)
REMARK    1  A    between atoms: C_5  and  C_6 
REMARK    2  A    between atoms: C_5  and  C_7 
REMARK    3  A    between atoms: C_5  and  C_8 
ROOT
HETATM    1  C   UNK N   1      28.432  25.157  -5.015  0.00  0.00     0.086 C 
ENDROOT
BRANCH   1   2
HETATM    2  C   UNK N   1      27.781  24.032  -5.817  0.00  0.00    -0.047 A 
HETATM    3  C   UNK N   1      26.383  23.899  -5.805  0.00  0.00     0.009 A 
HETATM    4  C   UNK N   1      25.759  22.888  -6.543  0.00  0.00     0.024 A 
HETATM    5  C   UNK N   1      26.525  22.005  -7.308  0.00  0.00     0.034 A 
HETATM    6 Cl   UNK N   1      25.745  20.742  -8.236  0.00  0.00    -0.084 Cl
HETATM    7  C   UNK N   1      27.915  22.132  -7.336  0.00  0.00     0.024 A 
HETATM    8  C   UNK N   1      28.538  23.139  -6.595  0.00  0.00     0.009 A 
ENDBRANCH   1   2
BRANCH   1   9
HETATM    9  C   UNK N   1      27.514  26.334  -4.707  0.00  0.00    -0.025 A 
HETATM   10  C   UNK N   1      27.344  27.388  -5.638  0.00  0.00     0.041 A 
HETATM   11 Cl   UNK N   1      28.173  27.402  -7.191  0.00  0.00    -0.084 Cl
HETATM   12  C   UNK N   1      26.489  28.453  -5.344  0.00  0.00     0.024 A 
HETATM   13  C   UNK N   1      25.793  28.488  -4.135  0.00  0.00     0.002 A 
HETATM   14  C   UNK N   1      25.950  27.456  -3.212  0.00  0.00     0.001 A 
HETATM   15  C   UNK N   1      26.802  26.388  -3.493  0.00  0.00     0.009 A 
ENDBRANCH   1   9
BRANCH   1  16
HETATM   16  C   UNK N   1      29.163  24.700  -3.735  0.00  0.00     0.191 C 
HETATM   17 Cl   UNK N   1      30.913  24.464  -3.991  0.00  0.00    -0.107 Cl
HETATM   18 Cl   UNK N   1      28.420  23.285  -2.935  0.00  0.00    -0.107 Cl
ENDBRANCH   1  16
TORSDOF 3
ENDMDL
