MODEL 1
REMARK VINA RESULT:      -6.0      0.000      0.000
REMARK  3 active torsions:
REMARK  status: ('A' for Active; 'I' for Inactive)
REMARK    1  A    between atoms: O_2  and  C_11 
REMARK    2  A    between atoms: C_7  and  N_5 
REMARK    3  A    between atoms: C_8  and  C_11 
ROOT
HETATM    1  O   UNK N   1      19.564  13.080  10.508  0.00  0.00    -0.246 OA
HETATM    2  O   UNK N   1      23.613  11.668  11.768  0.00  0.00    -0.267 OA
HETATM    3  N   UNK N   1      21.331  13.812   9.301  0.00  0.00    -0.278 N 
HETATM    4  N   UNK N   1      21.568  12.337  11.161  0.00  0.00    -0.275 N 
HETATM    5  C   UNK N   1      22.683  13.808   9.127  0.00  0.00     0.111 A 
HETATM    6  C   UNK N   1      20.768  13.072  10.326  0.00  0.00     0.331 A 
HETATM    7  C   UNK N   1      23.508  13.059   9.969  0.00  0.00     0.022 A 
HETATM    8  C   UNK N   1      22.923  12.321  11.004  0.00  0.00     0.256 A 
HETATM    9  C   UNK N   1      24.985  13.066   9.761  0.00  0.00     0.056 C 
HETATM   10  H   UNK N   1      21.158  11.813  11.887  0.00  0.00     0.173 HD
ENDROOT
BRANCH   3  11
HETATM   11  C   UNK N   1      20.464  14.655   8.458  0.00  0.00     0.257 C 
HETATM   12  O   UNK N   1      19.767  15.659   9.177  0.00  0.00    -0.352 OA
HETATM   13  C   UNK N   1      19.589  16.706   8.238  0.00  0.00     0.170 C 
HETATM   14  C   UNK N   1      20.689  16.554   7.256  0.00  0.00     0.007 C 
HETATM   15  C   UNK N   1      21.208  15.366   7.393  0.00  0.00     0.025 C 
BRANCH  13  16
HETATM   16  C   UNK N   1      19.634  18.063   8.913  0.00  0.00     0.200 C 
BRANCH  16  17
HETATM   17  O   UNK N   1      20.435  18.924   8.159  0.00  0.00    -0.398 OA
HETATM   18  H   UNK N   1      20.379  19.883   8.289  0.00  0.00     0.209 HD
ENDBRANCH  16  17
ENDBRANCH  13  16
ENDBRANCH   3  11
TORSDOF 3
ENDMDL
MODEL 2
REMARK VINA RESULT:      -6.0      6.377      7.994
REMARK  3 active torsions:
REMARK  status: ('A' for Active; 'I' for Inactive)
REMARK    1  A    between atoms: O_2  and  C_11 
REMARK    2  A    between atoms: C_7  and  N_5 
REMARK    3  A    between atoms: C_8  and  C_11 
ROOT
HETATM    1  O   UNK N   1      22.523  17.334   5.549  0.00  0.00    -0.246 OA
HETATM    2  O   UNK N   1      26.901  18.207   5.322  0.00  0.00    -0.267 OA
HETATM    3  N   UNK N   1      23.176  18.960   4.119  0.00  0.00    -0.278 N 
HETATM    4  N   UNK N   1      24.721  17.727   5.454  0.00  0.00    -0.275 N 
HETATM    5  C   UNK N   1      24.206  19.683   3.595  0.00  0.00     0.111 A 
HETATM    6  C   UNK N   1      23.434  17.975   5.056  0.00  0.00     0.331 A 
HETATM    7  C   UNK N   1      25.523  19.435   3.989  0.00  0.00     0.022 A 
HETATM    8  C   UNK N   1      25.766  18.440   4.942  0.00  0.00     0.256 A 
HETATM    9  C   UNK N   1      26.637  20.236   3.404  0.00  0.00     0.056 C 
HETATM   10  H   UNK N   1      24.894  17.024   6.120  0.00  0.00     0.173 HD
ENDROOT
BRANCH   3  11
HETATM   11  C   UNK N   1      21.780  19.264   3.756  0.00  0.00     0.257 C 
HETATM   12  O   UNK N   1      21.609  20.537   3.153  0.00  0.00    -0.352 OA
HETATM   13  C   UNK N   1      20.485  20.377   2.304  0.00  0.00     0.170 C 
HETATM   14  C   UNK N   1      20.440  18.934   1.968  0.00  0.00     0.007 C 
HETATM   15  C   UNK N   1      21.204  18.288   2.802  0.00  0.00     0.025 C 
BRANCH  13  16
HETATM   16  C   UNK N   1      20.612  21.230   1.058  0.00  0.00     0.200 C 
BRANCH  16  17
HETATM   17  O   UNK N   1      20.589  20.405  -0.069  0.00  0.00    -0.398 OA
HETATM   18  H   UNK N   1      20.657  20.788  -0.957  0.00  0.00     0.209 HD
ENDBRANCH  16  17
ENDBRANCH  13  16
ENDBRANCH   3  11
TORSDOF 3
ENDMDL
MODEL 3
REMARK VINA RESULT:      -5.8     12.686     13.454
REMARK  3 active torsions:
REMARK  status: ('A' for Active; 'I' for Inactive)
REMARK    1  A    between atoms: O_2  and  C_11 
REMARK    2  A    between atoms: C_7  and  N_5 
REMARK    3  A    between atoms: C_8  and  C_11 
ROOT
HETATM    1  O   UNK N   1      34.948  19.108   8.369  0.00  0.00    -0.246 OA
HETATM    2  O   UNK N   1      35.501  16.003  11.536  0.00  0.00    -0.267 OA
HETATM    3  N   UNK N   1      34.179  17.029   7.917  0.00  0.00    -0.278 N 
HETATM    4  N   UNK N   1      35.229  17.590   9.985  0.00  0.00    -0.275 N 
HETATM    5  C   UNK N   1      34.026  15.744   8.345  0.00  0.00     0.111 A 
HETATM    6  C   UNK N   1      34.785  17.960   8.742  0.00  0.00     0.331 A 
HETATM    7  C   UNK N   1      34.470  15.356   9.611  0.00  0.00     0.022 A 
HETATM    8  C   UNK N   1      35.087  16.308  10.430  0.00  0.00     0.256 A 
HETATM    9  C   UNK N   1      34.293  13.945  10.062  0.00  0.00     0.056 C 
HETATM   10  H   UNK N   1      35.658  18.260  10.565  0.00  0.00     0.173 HD
ENDROOT
BRANCH   3  11
HETATM   11  C   UNK N   1      33.774  17.425   6.557  0.00  0.00     0.257 C 
HETATM   12  O   UNK N   1      34.389  16.663   5.531  0.00  0.00    -0.352 OA
HETATM   13  C   UNK N   1      33.449  16.673   4.471  0.00  0.00     0.170 C 
HETATM   14  C   UNK N   1      32.128  16.878   5.110  0.00  0.00     0.007 C 
HETATM   15  C   UNK N   1      32.315  17.301   6.329  0.00  0.00     0.025 C 
BRANCH  13  16
HETATM   16  C   UNK N   1      33.488  15.375   3.688  0.00  0.00     0.200 C 
BRANCH  16  17
HETATM   17  O   UNK N   1      33.648  15.662   2.331  0.00  0.00    -0.398 OA
HETATM   18  H   UNK N   1      34.291  15.169   1.799  0.00  0.00     0.209 HD
ENDBRANCH  16  17
ENDBRANCH  13  16
ENDBRANCH   3  11
TORSDOF 3
ENDMDL
MODEL 4
REMARK VINA RESULT:      -5.7     16.993     17.957
REMARK  3 active torsions:
REMARK  status: ('A' for Active; 'I' for Inactive)
REMARK    1  A    between atoms: O_2  and  C_11 
REMARK    2  A    between atoms: C_7  and  N_5 
REMARK    3  A    between atoms: C_8  and  C_11 
ROOT
HETATM    1  O   UNK N   1      30.718  22.979  -1.750  0.00  0.00    -0.246 OA
HETATM    2  O   UNK N   1      32.133  19.668  -4.398  0.00  0.00    -0.267 OA
HETATM    3  N   UNK N   1      29.757  22.811  -3.791  0.00  0.00    -0.278 N 
HETATM    4  N   UNK N   1      31.442  21.300  -3.036  0.00  0.00    -0.275 N 
HETATM    5  C   UNK N   1      29.696  22.147  -4.981  0.00  0.00     0.111 A 
HETATM    6  C   UNK N   1      30.636  22.385  -2.811  0.00  0.00     0.331 A 
HETATM    7  C   UNK N   1      30.509  21.036  -5.219  0.00  0.00     0.022 A 
HETATM    8  C   UNK N   1      31.397  20.624  -4.220  0.00  0.00     0.256 A 
HETATM    9  C   UNK N   1      30.427  20.323  -6.526  0.00  0.00     0.056 C 
HETATM   10  H   UNK N   1      32.064  21.005  -2.332  0.00  0.00     0.173 HD
ENDROOT
BRANCH   3  11
HETATM   11  C   UNK N   1      28.951  24.023  -3.561  0.00  0.00     0.257 C 
HETATM   12  O   UNK N   1      28.632  24.732  -4.748  0.00  0.00    -0.352 OA
HETATM   13  C   UNK N   1      27.396  25.363  -4.460  0.00  0.00     0.170 C 
HETATM   14  C   UNK N   1      26.754  24.529  -3.417  0.00  0.00     0.007 C 
HETATM   15  C   UNK N   1      27.654  23.739  -2.903  0.00  0.00     0.025 C 
BRANCH  13  16
HETATM   16  C   UNK N   1      26.528  25.462  -5.699  0.00  0.00     0.200 C 
BRANCH  16  17
HETATM   17  O   UNK N   1      25.286  24.879  -5.437  0.00  0.00    -0.398 OA
HETATM   18  H   UNK N   1      24.695  24.637  -6.167  0.00  0.00     0.209 HD
ENDBRANCH  16  17
ENDBRANCH  13  16
ENDBRANCH   3  11
TORSDOF 3
ENDMDL
MODEL 5
REMARK VINA RESULT:      -5.7      7.605      8.718
REMARK  3 active torsions:
REMARK  status: ('A' for Active; 'I' for Inactive)
REMARK    1  A    between atoms: O_2  and  C_11 
REMARK    2  A    between atoms: C_7  and  N_5 
REMARK    3  A    between atoms: C_8  and  C_11 
ROOT
HETATM    1  O   UNK N   1      22.671  21.405   2.691  0.00  0.00    -0.246 OA
HETATM    2  O   UNK N   1      26.845  20.018   3.488  0.00  0.00    -0.267 OA
HETATM    3  N   UNK N   1      22.923  19.299   3.479  0.00  0.00    -0.278 N 
HETATM    4  N   UNK N   1      24.772  20.757   3.092  0.00  0.00    -0.275 N 
HETATM    5  C   UNK N   1      23.781  18.321   3.887  0.00  0.00     0.111 A 
HETATM    6  C   UNK N   1      23.421  20.526   3.078  0.00  0.00     0.331 A 
HETATM    7  C   UNK N   1      25.160  18.546   3.911  0.00  0.00     0.022 A 
HETATM    8  C   UNK N   1      25.647  19.790   3.496  0.00  0.00     0.256 A 
HETATM    9  C   UNK N   1      26.082  17.464   4.361  0.00  0.00     0.056 C 
HETATM   10  H   UNK N   1      25.117  21.633   2.806  0.00  0.00     0.173 HD
ENDROOT
BRANCH   3  11
HETATM   11  C   UNK N   1      21.475  19.043   3.388  0.00  0.00     0.257 C 
HETATM   12  O   UNK N   1      21.012  18.839   2.063  0.00  0.00    -0.352 OA
HETATM   13  C   UNK N   1      19.892  17.982   2.209  0.00  0.00     0.170 C 
HETATM   14  C   UNK N   1      20.120  17.238   3.470  0.00  0.00     0.007 C 
HETATM   15  C   UNK N   1      21.051  17.846   4.150  0.00  0.00     0.025 C 
BRANCH  13  16
HETATM   16  C   UNK N   1      19.764  17.040   1.028  0.00  0.00     0.200 C 
BRANCH  16  17
HETATM   17  O   UNK N   1      20.288  17.656  -0.110  0.00  0.00    -0.398 OA
HETATM   18  H   UNK N   1      21.125  17.348  -0.491  0.00  0.00     0.209 HD
ENDBRANCH  16  17
ENDBRANCH  13  16
ENDBRANCH   3  11
TORSDOF 3
ENDMDL
MODEL 6
REMARK VINA RESULT:      -5.7     14.497     15.336
REMARK  3 active torsions:
REMARK  status: ('A' for Active; 'I' for Inactive)
REMARK    1  A    between atoms: O_2  and  C_11 
REMARK    2  A    between atoms: C_7  and  N_5 
REMARK    3  A    between atoms: C_8  and  C_11 
ROOT
HETATM    1  O   UNK N   1      35.255  10.019  14.132  0.00  0.00    -0.246 OA
HETATM    2  O   UNK N   1      35.086  11.259  18.422  0.00  0.00    -0.267 OA
HETATM    3  N   UNK N   1      35.385  12.235  14.569  0.00  0.00    -0.278 N 
HETATM    4  N   UNK N   1      35.184  10.595  16.290  0.00  0.00    -0.275 N 
HETATM    5  C   UNK N   1      35.390  13.221  15.510  0.00  0.00     0.111 A 
HETATM    6  C   UNK N   1      35.281  10.912  14.960  0.00  0.00     0.331 A 
HETATM    7  C   UNK N   1      35.296  12.910  16.869  0.00  0.00     0.022 A 
HETATM    8  C   UNK N   1      35.185  11.568  17.247  0.00  0.00     0.256 A 
HETATM    9  C   UNK N   1      35.304  14.003  17.884  0.00  0.00     0.056 C 
HETATM   10  H   UNK N   1      35.111   9.651  16.559  0.00  0.00     0.173 HD
ENDROOT
BRANCH   3  11
HETATM   11  C   UNK N   1      35.415  12.563  13.132  0.00  0.00     0.257 C 
HETATM   12  O   UNK N   1      34.830  13.816  12.819  0.00  0.00    -0.352 OA
HETATM   13  C   UNK N   1      35.521  14.248  11.659  0.00  0.00     0.170 C 
HETATM   14  C   UNK N   1      36.844  13.582  11.711  0.00  0.00     0.007 C 
HETATM   15  C   UNK N   1      36.788  12.611  12.579  0.00  0.00     0.025 C 
BRANCH  13  16
HETATM   16  C   UNK N   1      35.663  15.757  11.634  0.00  0.00     0.200 C 
BRANCH  16  17
HETATM   17  O   UNK N   1      36.845  16.097  10.971  0.00  0.00    -0.398 OA
HETATM   18  H   UNK N   1      37.692  15.722  11.258  0.00  0.00     0.209 HD
ENDBRANCH  16  17
ENDBRANCH  13  16
ENDBRANCH   3  11
TORSDOF 3
ENDMDL
MODEL 7
REMARK VINA RESULT:      -5.7     14.092     15.675
REMARK  3 active torsions:
REMARK  status: ('A' for Active; 'I' for Inactive)
REMARK    1  A    between atoms: O_2  and  C_11 
REMARK    2  A    between atoms: C_7  and  N_5 
REMARK    3  A    between atoms: C_8  and  C_11 
ROOT
HETATM    1  O   UNK N   1      35.213  10.134  16.584  0.00  0.00    -0.246 OA
HETATM    2  O   UNK N   1      35.126  13.025  19.993  0.00  0.00    -0.267 OA
HETATM    3  N   UNK N   1      35.417  12.330  16.078  0.00  0.00    -0.278 N 
HETATM    4  N   UNK N   1      35.182  11.544  18.319  0.00  0.00    -0.275 N 
HETATM    5  C   UNK N   1      35.462  13.614  16.534  0.00  0.00     0.111 A 
HETATM    6  C   UNK N   1      35.275  11.286  16.976  0.00  0.00     0.331 A 
HETATM    7  C   UNK N   1      35.372  13.888  17.901  0.00  0.00     0.022 A 
HETATM    8  C   UNK N   1      35.223  12.823  18.794  0.00  0.00     0.256 A 
HETATM    9  C   UNK N   1      35.425  15.300  18.380  0.00  0.00     0.056 C 
HETATM   10  H   UNK N   1      35.081  10.795  18.949  0.00  0.00     0.173 HD
ENDROOT
BRANCH   3  11
HETATM   11  C   UNK N   1      35.443  12.040  14.633  0.00  0.00     0.257 C 
HETATM   12  O   UNK N   1      34.642  12.919  13.859  0.00  0.00    -0.352 OA
HETATM   13  C   UNK N   1      35.285  12.962  12.597  0.00  0.00     0.170 C 
HETATM   14  C   UNK N   1      36.708  12.643  12.861  0.00  0.00     0.007 C 
HETATM   15  C   UNK N   1      36.803  12.121  14.052  0.00  0.00     0.025 C 
BRANCH  13  16
HETATM   16  C   UNK N   1      35.136  14.326  11.951  0.00  0.00     0.200 C 
BRANCH  16  17
HETATM   17  O   UNK N   1      33.817  14.490  11.523  0.00  0.00    -0.398 OA
HETATM   18  H   UNK N   1      33.233  15.124  11.969  0.00  0.00     0.209 HD
ENDBRANCH  16  17
ENDBRANCH  13  16
ENDBRANCH   3  11
TORSDOF 3
ENDMDL
MODEL 8
REMARK VINA RESULT:      -5.6     13.704     14.856
REMARK  3 active torsions:
REMARK  status: ('A' for Active; 'I' for Inactive)
REMARK    1  A    between atoms: O_2  and  C_11 
REMARK    2  A    between atoms: C_7  and  N_5 
REMARK    3  A    between atoms: C_8  and  C_11 
ROOT
HETATM    1  O   UNK N   1      34.063  11.860  13.851  0.00  0.00    -0.246 OA
HETATM    2  O   UNK N   1      35.881  13.658  17.517  0.00  0.00    -0.267 OA
HETATM    3  N   UNK N   1      35.558  13.530  13.545  0.00  0.00    -0.278 N 
HETATM    4  N   UNK N   1      34.960  12.720  15.709  0.00  0.00    -0.275 N 
HETATM    5  C   UNK N   1      36.398  14.438  14.119  0.00  0.00     0.111 A 
HETATM    6  C   UNK N   1      34.833  12.664  14.345  0.00  0.00     0.331 A 
HETATM    7  C   UNK N   1      36.540  14.501  15.507  0.00  0.00     0.022 A 
HETATM    8  C   UNK N   1      35.795  13.623  16.301  0.00  0.00     0.256 A 
HETATM    9  C   UNK N   1      37.465  15.500  16.115  0.00  0.00     0.056 C 
HETATM   10  H   UNK N   1      34.441  12.099  16.269  0.00  0.00     0.173 HD
ENDROOT
BRANCH   3  11
HETATM   11  C   UNK N   1      35.354  13.506  12.086  0.00  0.00     0.257 C 
HETATM   12  O   UNK N   1      34.463  14.504  11.616  0.00  0.00    -0.352 OA
HETATM   13  C   UNK N   1      34.904  14.779  10.298  0.00  0.00     0.170 C 
HETATM   14  C   UNK N   1      36.344  14.428  10.276  0.00  0.00     0.007 C 
HETATM   15  C   UNK N   1      36.610  13.700  11.324  0.00  0.00     0.025 C 
BRANCH  13  16
HETATM   16  C   UNK N   1      34.686  16.236   9.938  0.00  0.00     0.200 C 
BRANCH  16  17
HETATM   17  O   UNK N   1      35.052  17.037  11.022  0.00  0.00    -0.398 OA
HETATM   18  H   UNK N   1      34.529  17.023  11.839  0.00  0.00     0.209 HD
ENDBRANCH  16  17
ENDBRANCH  13  16
ENDBRANCH   3  11
TORSDOF 3
ENDMDL
MODEL 9
REMARK VINA RESULT:      -5.5      8.948     10.711
REMARK  3 active torsions:
REMARK  status: ('A' for Active; 'I' for Inactive)
REMARK    1  A    between atoms: O_2  and  C_11 
REMARK    2  A    between atoms: C_7  and  N_5 
REMARK    3  A    between atoms: C_8  and  C_11 
ROOT
HETATM    1  O   UNK N   1      28.819  16.761   4.238  0.00  0.00    -0.246 OA
HETATM    2  O   UNK N   1      26.712  20.618   3.425  0.00  0.00    -0.267 OA
HETATM    3  N   UNK N   1      28.554  18.176   5.982  0.00  0.00    -0.278 N 
HETATM    4  N   UNK N   1      27.746  18.670   3.792  0.00  0.00    -0.275 N 
HETATM    5  C   UNK N   1      28.081  19.376   6.426  0.00  0.00     0.111 A 
HETATM    6  C   UNK N   1      28.386  17.820   4.656  0.00  0.00     0.331 A 
HETATM    7  C   UNK N   1      27.423  20.249   5.556  0.00  0.00     0.022 A 
HETATM    8  C   UNK N   1      27.268  19.876   4.217  0.00  0.00     0.256 A 
HETATM    9  C   UNK N   1      26.913  21.556   6.061  0.00  0.00     0.056 C 
HETATM   10  H   UNK N   1      27.631  18.408   2.851  0.00  0.00     0.173 HD
ENDROOT
BRANCH   3  11
HETATM   11  C   UNK N   1      29.308  17.283   6.880  0.00  0.00     0.257 C 
HETATM   12  O   UNK N   1      30.716  17.393   6.746  0.00  0.00    -0.352 OA
HETATM   13  C   UNK N   1      31.219  17.060   8.029  0.00  0.00     0.170 C 
HETATM   14  C   UNK N   1      30.130  17.382   8.981  0.00  0.00     0.007 C 
HETATM   15  C   UNK N   1      29.021  17.527   8.313  0.00  0.00     0.025 C 
BRANCH  13  16
HETATM   16  C   UNK N   1      32.478  17.843   8.345  0.00  0.00     0.200 C 
BRANCH  16  17
HETATM   17  O   UNK N   1      33.240  17.132   9.276  0.00  0.00    -0.398 OA
HETATM   18  H   UNK N   1      33.886  16.474   8.978  0.00  0.00     0.209 HD
ENDBRANCH  16  17
ENDBRANCH  13  16
ENDBRANCH   3  11
TORSDOF 3
ENDMDL
