REMARK  3 active torsions:
REMARK  status: ('A' for Active; 'I' for Inactive)
REMARK    1  A    between atoms: O_2  and  C_11 
REMARK    2  A    between atoms: C_7  and  N_5 
REMARK    3  A    between atoms: C_8  and  C_11 
ROOT
HETATM    1  O   UNK N   1       0.677   1.204  -0.513  0.00  0.00    -0.246 OA
HETATM    2  O   UNK N   1       3.463   4.606   0.288  0.00  0.00    -0.267 OA
HETATM    3  N   UNK N   1       2.874   0.708  -0.304  0.00  0.00    -0.278 N 
HETATM    4  N   UNK N   1       2.033   2.931  -0.096  0.00  0.00    -0.275 N 
HETATM    5  C   UNK N   1       4.140   1.168  -0.093  0.00  0.00     0.111 A 
HETATM    6  C   UNK N   1       1.812   1.595  -0.306  0.00  0.00     0.331 A 
HETATM    7  C   UNK N   1       4.377   2.527   0.127  0.00  0.00     0.022 A 
HETATM    8  C   UNK N   1       3.293   3.411   0.115  0.00  0.00     0.256 A 
HETATM    9  C   UNK N   1       5.769   3.011   0.357  0.00  0.00     0.056 C 
HETATM   10  H   UNK N   1       1.271   3.554  -0.099  0.00  0.00     0.173 HD
ENDROOT
BRANCH   3  11
HETATM   11  C   UNK N   1       2.628  -0.714  -0.604  0.00  0.00     0.257 C 
HETATM   12  O   UNK N   1       3.812  -1.479  -0.762  0.00  0.00    -0.352 OA
HETATM   13  C   UNK N   1       3.444  -2.786  -0.357  0.00  0.00     0.170 C 
HETATM   14  C   UNK N   1       2.311  -2.610   0.582  0.00  0.00     0.007 C 
HETATM   15  C   UNK N   1       1.845  -1.400   0.450  0.00  0.00     0.025 C 
BRANCH  13  16
HETATM   16  C   UNK N   1       4.604  -3.503   0.306  0.00  0.00     0.200 C 
BRANCH  16  17
HETATM   17  O   UNK N   1       4.299  -4.861   0.422  0.00  0.00    -0.398 OA
HETATM   18  H   UNK N   1       3.377  -5.150   0.503  0.00  0.00     0.209 HD
ENDBRANCH  16  17
ENDBRANCH  13  16
ENDBRANCH   3  11
TORSDOF 3
