REMARK  5 active torsions:
REMARK  status: ('A' for Active; 'I' for Inactive)
REMARK    1  A    between atoms: O_1  and  C_13 
REMARK    2  A    between atoms: O_3  and  C_17 
REMARK    3  A    between atoms: N_5  and  C_11 
REMARK    4  A    between atoms: C_11  and  C_13 
REMARK    5  A    between atoms: C_13  and  C_17 
ROOT
HETATM    1  O   UNK N   1       2.637   1.625   0.361  0.00  0.00    -0.265 OA
HETATM    2  O   UNK N   1       0.203  -2.132  -0.331  0.00  0.00    -0.246 OA
HETATM    3  N   UNK N   1       4.996  -0.034   0.380  0.00  0.00    -0.333 N 
HETATM    4  N   UNK N   1       2.449  -2.341  -0.181  0.00  0.00    -0.287 N 
HETATM    5  N   UNK N   1       1.347  -0.206   0.004  0.00  0.00    -0.269 N 
HETATM    6  N   UNK N   1       4.861  -2.250   0.049  0.00  0.00    -0.336 N 
ATOM      7  HN  UNK N   1       5.113  -3.232  -0.069  1.00  0.00     0.168 HD
HETATM    8  C   UNK N   1       3.711  -0.367   0.192  0.00  0.00     0.149 A 
HETATM    9  C   UNK N   1       3.632  -1.700   0.001  0.00  0.00     0.145 A 
HETATM   10  C   UNK N   1       2.568   0.419   0.194  0.00  0.00     0.282 A 
HETATM   11  C   UNK N   1       5.691  -1.197   0.291  0.00  0.00     0.185 A 
HETATM   12  C   UNK N   1       1.286  -1.585  -0.178  0.00  0.00     0.332 A 
HETATM   13  C   UNK N   1       2.410  -3.788  -0.359  0.00  0.00     0.163 C 
HETATM   14  C   UNK N   1       0.121   0.587   0.003  0.00  0.00     0.164 C 
ENDROOT
BRANCH   3  15
HETATM   15  C   UNK N   1       5.510   1.291   0.716  0.00  0.00     0.164 C 
BRANCH  15  16
HETATM   16  C   UNK N   1       6.526   1.816  -0.281  0.00  0.00     0.160 C 
BRANCH  16  17
HETATM   17  O   UNK N   1       7.734   1.136  -0.113  0.00  0.00    -0.392 OA
HETATM   18  H   UNK N   1       7.745   0.174   0.004  0.00  0.00     0.210 HD
ENDBRANCH  16  17
BRANCH  16  19
HETATM   19  C   UNK N   1       6.727   3.290   0.026  0.00  0.00     0.197 C 
BRANCH  19  20
HETATM   20  O   UNK N   1       7.732   3.830  -0.776  0.00  0.00    -0.398 OA
HETATM   21  H   UNK N   1       8.407   3.412  -1.334  0.00  0.00     0.209 HD
ENDBRANCH  19  20
ENDBRANCH  16  19
ENDBRANCH  15  16
ENDBRANCH   3  15
TORSDOF 5
