MODEL 1
REMARK VINA RESULT:      -5.5      0.000      0.000
REMARK  5 active torsions:
REMARK  status: ('A' for Active; 'I' for Inactive)
REMARK    1  A    between atoms: O_1  and  C_13 
REMARK    2  A    between atoms: O_3  and  C_17 
REMARK    3  A    between atoms: N_5  and  C_11 
REMARK    4  A    between atoms: C_11  and  C_13 
REMARK    5  A    between atoms: C_13  and  C_17 
ROOT
HETATM    1  O   UNK N   1      31.917  18.551   8.528  0.00  0.00    -0.265 OA
HETATM    2  O   UNK N   1      35.045  16.217   6.229  0.00  0.00    -0.246 OA
HETATM    3  N   UNK N   1      29.905  17.122   7.035  0.00  0.00    -0.333 N 
HETATM    4  N   UNK N   1      32.869  15.783   5.792  0.00  0.00    -0.287 N 
HETATM    5  N   UNK N   1      33.544  17.418   7.428  0.00  0.00    -0.269 N 
HETATM    6  N   UNK N   1      30.470  15.559   5.526  0.00  0.00    -0.336 N 
ATOM      7  HN  UNK N   1      30.412  14.830   4.814  1.00  0.00     0.168 HD
HETATM    8  C   UNK N   1      31.241  17.019   6.996  0.00  0.00     0.149 A 
HETATM    9  C   UNK N   1      31.578  16.085   6.083  0.00  0.00     0.145 A 
HETATM   10  C   UNK N   1      32.218  17.710   7.699  0.00  0.00     0.282 A 
HETATM   11  C   UNK N   1      29.444  16.223   6.129  0.00  0.00     0.185 A 
HETATM   12  C   UNK N   1      33.871  16.459   6.473  0.00  0.00     0.332 A 
HETATM   13  C   UNK N   1      33.186  14.782   4.779  0.00  0.00     0.163 C 
HETATM   14  C   UNK N   1      34.601  18.126   8.145  0.00  0.00     0.164 C 
ENDROOT
BRANCH   3  15
HETATM   15  C   UNK N   1      29.130  18.082   7.816  0.00  0.00     0.164 C 
BRANCH  15  16
HETATM   16  C   UNK N   1      28.301  17.440   8.912  0.00  0.00     0.160 C 
BRANCH  16  17
HETATM   17  O   UNK N   1      27.265  18.303   9.276  0.00  0.00    -0.392 OA
HETATM   18  H   UNK N   1      27.322  19.250   9.079  0.00  0.00     0.210 HD
ENDBRANCH  16  17
BRANCH  16  19
HETATM   19  C   UNK N   1      29.225  17.228  10.100  0.00  0.00     0.197 C 
BRANCH  19  20
HETATM   20  O   UNK N   1      29.757  18.441  10.535  0.00  0.00    -0.398 OA
HETATM   21  H   UNK N   1      29.871  19.294  10.087  0.00  0.00     0.209 HD
ENDBRANCH  19  20
ENDBRANCH  16  19
ENDBRANCH  15  16
ENDBRANCH   3  15
TORSDOF 5
ENDMDL
MODEL 2
REMARK VINA RESULT:      -5.5     10.724     12.179
REMARK  5 active torsions:
REMARK  status: ('A' for Active; 'I' for Inactive)
REMARK    1  A    between atoms: O_1  and  C_13 
REMARK    2  A    between atoms: O_3  and  C_17 
REMARK    3  A    between atoms: N_5  and  C_11 
REMARK    4  A    between atoms: C_11  and  C_13 
REMARK    5  A    between atoms: C_13  and  C_17 
ROOT
HETATM    1  O   UNK N   1      19.862  17.462   1.355  0.00  0.00    -0.265 OA
HETATM    2  O   UNK N   1      20.798  13.423   3.181  0.00  0.00    -0.246 OA
HETATM    3  N   UNK N   1      20.805  18.667   3.799  0.00  0.00    -0.333 N 
HETATM    4  N   UNK N   1      21.252  15.268   4.407  0.00  0.00    -0.287 N 
HETATM    5  N   UNK N   1      20.311  15.402   2.192  0.00  0.00    -0.269 N 
HETATM    6  N   UNK N   1      21.601  17.413   5.482  0.00  0.00    -0.336 N 
ATOM      7  HN  UNK N   1      22.002  17.129   6.376  1.00  0.00     0.168 HD
HETATM    8  C   UNK N   1      20.747  17.376   3.443  0.00  0.00     0.149 A 
HETATM    9  C   UNK N   1      21.219  16.624   4.459  0.00  0.00     0.145 A 
HETATM   10  C   UNK N   1      20.284  16.784   2.277  0.00  0.00     0.282 A 
HETATM   11  C   UNK N   1      21.329  18.677   5.052  0.00  0.00     0.185 A 
HETATM   12  C   UNK N   1      20.790  14.644   3.257  0.00  0.00     0.332 A 
HETATM   13  C   UNK N   1      21.748  14.495   5.540  0.00  0.00     0.163 C 
HETATM   14  C   UNK N   1      19.829  14.742   0.983  0.00  0.00     0.164 C 
ENDROOT
BRANCH   3  15
HETATM   15  C   UNK N   1      20.304  19.804   3.031  0.00  0.00     0.164 C 
BRANCH  15  16
HETATM   16  C   UNK N   1      21.371  20.485   2.194  0.00  0.00     0.160 C 
BRANCH  16  17
HETATM   17  O   UNK N   1      21.841  21.612   2.870  0.00  0.00    -0.392 OA
HETATM   18  H   UNK N   1      22.254  21.526   3.743  0.00  0.00     0.210 HD
ENDBRANCH  16  17
BRANCH  16  19
HETATM   19  C   UNK N   1      20.709  20.912   0.895  0.00  0.00     0.197 C 
BRANCH  19  20
HETATM   20  O   UNK N   1      20.642  19.846  -0.001  0.00  0.00    -0.398 OA
HETATM   21  H   UNK N   1      20.197  19.749  -0.858  0.00  0.00     0.209 HD
ENDBRANCH  19  20
ENDBRANCH  16  19
ENDBRANCH  15  16
ENDBRANCH   3  15
TORSDOF 5
ENDMDL
MODEL 3
REMARK VINA RESULT:      -5.4     13.416     14.623
REMARK  5 active torsions:
REMARK  status: ('A' for Active; 'I' for Inactive)
REMARK    1  A    between atoms: O_1  and  C_13 
REMARK    2  A    between atoms: O_3  and  C_17 
REMARK    3  A    between atoms: N_5  and  C_11 
REMARK    4  A    between atoms: C_11  and  C_13 
REMARK    5  A    between atoms: C_13  and  C_17 
ROOT
HETATM    1  O   UNK N   1      29.037  25.011  -3.477  0.00  0.00    -0.265 OA
HETATM    2  O   UNK N   1      24.993  24.804  -5.507  0.00  0.00    -0.246 OA
HETATM    3  N   UNK N   1      29.905  22.888  -5.226  0.00  0.00    -0.333 N 
HETATM    4  N   UNK N   1      26.614  23.408  -6.238  0.00  0.00    -0.287 N 
HETATM    5  N   UNK N   1      26.987  24.978  -4.448  0.00  0.00    -0.269 N 
HETATM    6  N   UNK N   1      28.532  22.027  -6.779  0.00  0.00    -0.336 N 
ATOM      7  HN  UNK N   1      28.165  21.461  -7.545  1.00  0.00     0.168 HD
HETATM    8  C   UNK N   1      28.724  23.519  -5.159  0.00  0.00     0.149 A 
HETATM    9  C   UNK N   1      27.899  22.995  -6.088  0.00  0.00     0.145 A 
HETATM   10  C   UNK N   1      28.291  24.531  -4.315  0.00  0.00     0.282 A 
HETATM   11  C   UNK N   1      29.774  21.975  -6.222  0.00  0.00     0.185 A 
HETATM   12  C   UNK N   1      26.147  24.414  -5.405  0.00  0.00     0.332 A 
HETATM   13  C   UNK N   1      25.750  22.794  -7.240  0.00  0.00     0.163 C 
HETATM   14  C   UNK N   1      26.494  26.039  -3.575  0.00  0.00     0.164 C 
ENDROOT
BRANCH   3  15
HETATM   15  C   UNK N   1      31.045  23.081  -4.334  0.00  0.00     0.164 C 
BRANCH  15  16
HETATM   16  C   UNK N   1      31.035  22.158  -3.130  0.00  0.00     0.160 C 
BRANCH  16  17
HETATM   17  O   UNK N   1      30.985  22.921  -1.962  0.00  0.00    -0.392 OA
HETATM   18  H   UNK N   1      30.166  22.982  -1.448  0.00  0.00     0.210 HD
ENDBRANCH  16  17
BRANCH  16  19
HETATM   19  C   UNK N   1      32.332  21.368  -3.166  0.00  0.00     0.197 C 
BRANCH  19  20
HETATM   20  O   UNK N   1      32.861  21.227  -1.883  0.00  0.00    -0.398 OA
HETATM   21  H   UNK N   1      33.122  20.442  -1.376  0.00  0.00     0.209 HD
ENDBRANCH  19  20
ENDBRANCH  16  19
ENDBRANCH  15  16
ENDBRANCH   3  15
TORSDOF 5
ENDMDL
MODEL 4
REMARK VINA RESULT:      -5.3      9.014     11.011
REMARK  5 active torsions:
REMARK  status: ('A' for Active; 'I' for Inactive)
REMARK    1  A    between atoms: O_1  and  C_13 
REMARK    2  A    between atoms: O_3  and  C_17 
REMARK    3  A    between atoms: N_5  and  C_11 
REMARK    4  A    between atoms: C_11  and  C_13 
REMARK    5  A    between atoms: C_13  and  C_17 
ROOT
HETATM    1  O   UNK N   1      23.187  18.674   4.472  0.00  0.00    -0.265 OA
HETATM    2  O   UNK N   1      23.532  14.198   3.868  0.00  0.00    -0.246 OA
HETATM    3  N   UNK N   1      20.601  18.539   3.203  0.00  0.00    -0.333 N 
HETATM    4  N   UNK N   1      21.637  15.215   3.171  0.00  0.00    -0.287 N 
HETATM    5  N   UNK N   1      23.434  16.434   4.216  0.00  0.00    -0.269 N 
HETATM    6  N   UNK N   1      19.749  16.583   2.506  0.00  0.00    -0.336 N 
ATOM      7  HN  UNK N   1      19.122  15.883   2.108  1.00  0.00     0.168 HD
HETATM    8  C   UNK N   1      21.474  17.561   3.483  0.00  0.00     0.149 A 
HETATM    9  C   UNK N   1      20.963  16.388   3.057  0.00  0.00     0.145 A 
HETATM   10  C   UNK N   1      22.725  17.615   4.080  0.00  0.00     0.282 A 
HETATM   11  C   UNK N   1      19.548  17.927   2.603  0.00  0.00     0.185 A 
HETATM   12  C   UNK N   1      22.894  15.235   3.758  0.00  0.00     0.332 A 
HETATM   13  C   UNK N   1      21.055  13.974   2.673  0.00  0.00     0.163 C 
HETATM   14  C   UNK N   1      24.756  16.451   4.837  0.00  0.00     0.164 C 
ENDROOT
BRANCH   3  15
HETATM   15  C   UNK N   1      20.804  19.971   3.408  0.00  0.00     0.164 C 
BRANCH  15  16
HETATM   16  C   UNK N   1      21.582  20.638   2.289  0.00  0.00     0.160 C 
BRANCH  16  17
HETATM   17  O   UNK N   1      22.215  21.780   2.783  0.00  0.00    -0.392 OA
HETATM   18  H   UNK N   1      22.848  21.715   3.514  0.00  0.00     0.210 HD
ENDBRANCH  16  17
BRANCH  16  19
HETATM   19  C   UNK N   1      20.573  21.037   1.226  0.00  0.00     0.197 C 
BRANCH  19  20
HETATM   20  O   UNK N   1      20.754  20.285   0.065  0.00  0.00    -0.398 OA
HETATM   21  H   UNK N   1      21.349  20.402  -0.693  0.00  0.00     0.209 HD
ENDBRANCH  19  20
ENDBRANCH  16  19
ENDBRANCH  15  16
ENDBRANCH   3  15
TORSDOF 5
ENDMDL
MODEL 5
REMARK VINA RESULT:      -5.2      1.974      3.013
REMARK  5 active torsions:
REMARK  status: ('A' for Active; 'I' for Inactive)
REMARK    1  A    between atoms: O_1  and  C_13 
REMARK    2  A    between atoms: O_3  and  C_17 
REMARK    3  A    between atoms: N_5  and  C_11 
REMARK    4  A    between atoms: C_11  and  C_13 
REMARK    5  A    between atoms: C_13  and  C_17 
ROOT
HETATM    1  O   UNK N   1      30.503  17.487   4.909  0.00  0.00    -0.265 OA
HETATM    2  O   UNK N   1      34.799  16.250   5.636  0.00  0.00    -0.246 OA
HETATM    3  N   UNK N   1      30.090  17.345   7.759  0.00  0.00    -0.333 N 
HETATM    4  N   UNK N   1      33.451  16.495   7.435  0.00  0.00    -0.287 N 
HETATM    5  N   UNK N   1      32.671  16.881   5.188  0.00  0.00    -0.269 N 
HETATM    6  N   UNK N   1      31.768  16.811   9.151  0.00  0.00    -0.336 N 
ATOM      7  HN  UNK N   1      32.303  16.612   9.998  1.00  0.00     0.168 HD
HETATM    8  C   UNK N   1      31.201  17.133   7.039  0.00  0.00     0.149 A 
HETATM    9  C   UNK N   1      32.206  16.805   7.877  0.00  0.00     0.145 A 
HETATM   10  C   UNK N   1      31.408  17.185   5.668  0.00  0.00     0.282 A 
HETATM   11  C   UNK N   1      30.451  17.144   9.053  0.00  0.00     0.185 A 
HETATM   12  C   UNK N   1      33.690  16.531   6.069  0.00  0.00     0.332 A 
HETATM   13  C   UNK N   1      34.500  16.122   8.376  0.00  0.00     0.163 C 
HETATM   14  C   UNK N   1      32.927  16.921   3.751  0.00  0.00     0.164 C 
ENDROOT
BRANCH   3  15
HETATM   15  C   UNK N   1      28.756  17.628   7.237  0.00  0.00     0.164 C 
BRANCH  15  16
HETATM   16  C   UNK N   1      28.270  19.031   7.547  0.00  0.00     0.160 C 
BRANCH  16  17
HETATM   17  O   UNK N   1      27.407  18.990   8.644  0.00  0.00    -0.392 OA
HETATM   18  H   UNK N   1      27.746  18.786   9.529  0.00  0.00     0.210 HD
ENDBRANCH  16  17
BRANCH  16  19
HETATM   19  C   UNK N   1      27.512  19.518   6.324  0.00  0.00     0.197 C 
BRANCH  19  20
HETATM   20  O   UNK N   1      28.242  19.276   5.161  0.00  0.00    -0.398 OA
HETATM   21  H   UNK N   1      28.919  19.799   4.703  0.00  0.00     0.209 HD
ENDBRANCH  19  20
ENDBRANCH  16  19
ENDBRANCH  15  16
ENDBRANCH   3  15
TORSDOF 5
ENDMDL
MODEL 6
REMARK VINA RESULT:      -5.2      4.374      6.376
REMARK  5 active torsions:
REMARK  status: ('A' for Active; 'I' for Inactive)
REMARK    1  A    between atoms: O_1  and  C_13 
REMARK    2  A    between atoms: O_3  and  C_17 
REMARK    3  A    between atoms: N_5  and  C_11 
REMARK    4  A    between atoms: C_11  and  C_13 
REMARK    5  A    between atoms: C_13  and  C_17 
ROOT
HETATM    1  O   UNK N   1      35.997  13.275   8.574  0.00  0.00    -0.265 OA
HETATM    2  O   UNK N   1      34.347  16.560   5.927  0.00  0.00    -0.246 OA
HETATM    3  N   UNK N   1      35.792  15.105  10.793  0.00  0.00    -0.333 N 
HETATM    4  N   UNK N   1      34.583  16.998   8.132  0.00  0.00    -0.287 N 
HETATM    5  N   UNK N   1      35.167  14.862   7.182  0.00  0.00    -0.269 N 
HETATM    6  N   UNK N   1      34.973  17.177  10.518  0.00  0.00    -0.336 N 
ATOM      7  HN  UNK N   1      34.657  18.130  10.704  1.00  0.00     0.168 HD
HETATM    8  C   UNK N   1      35.458  15.273   9.505  0.00  0.00     0.149 A 
HETATM    9  C   UNK N   1      34.973  16.521   9.342  0.00  0.00     0.145 A 
HETATM   10  C   UNK N   1      35.564  14.405   8.428  0.00  0.00     0.282 A 
HETATM   11  C   UNK N   1      35.491  16.280  11.403  0.00  0.00     0.185 A 
HETATM   12  C   UNK N   1      34.682  16.158   7.032  0.00  0.00     0.332 A 
HETATM   13  C   UNK N   1      34.088  18.364   7.998  0.00  0.00     0.163 C 
HETATM   14  C   UNK N   1      35.267  13.980   6.023  0.00  0.00     0.164 C 
ENDROOT
BRANCH   3  15
HETATM   15  C   UNK N   1      36.442  13.935  11.377  0.00  0.00     0.164 C 
BRANCH  15  16
HETATM   16  C   UNK N   1      35.546  13.153  12.318  0.00  0.00     0.160 C 
BRANCH  16  17
HETATM   17  O   UNK N   1      34.212  13.347  11.956  0.00  0.00    -0.392 OA
HETATM   18  H   UNK N   1      33.508  12.829  12.375  0.00  0.00     0.210 HD
ENDBRANCH  16  17
BRANCH  16  19
HETATM   19  C   UNK N   1      35.779  13.705  13.713  0.00  0.00     0.197 C 
BRANCH  19  20
HETATM   20  O   UNK N   1      34.800  13.251  14.596  0.00  0.00    -0.398 OA
HETATM   21  H   UNK N   1      34.289  12.426  14.624  0.00  0.00     0.209 HD
ENDBRANCH  19  20
ENDBRANCH  16  19
ENDBRANCH  15  16
ENDBRANCH   3  15
TORSDOF 5
ENDMDL
MODEL 7
REMARK VINA RESULT:      -5.2     10.063     11.200
REMARK  5 active torsions:
REMARK  status: ('A' for Active; 'I' for Inactive)
REMARK    1  A    between atoms: O_1  and  C_13 
REMARK    2  A    between atoms: O_3  and  C_17 
REMARK    3  A    between atoms: N_5  and  C_11 
REMARK    4  A    between atoms: C_11  and  C_13 
REMARK    5  A    between atoms: C_13  and  C_17 
ROOT
HETATM    1  O   UNK N   1      21.030  18.760   6.886  0.00  0.00    -0.265 OA
HETATM    2  O   UNK N   1      19.816  14.581   8.144  0.00  0.00    -0.246 OA
HETATM    3  N   UNK N   1      22.046  17.615   4.442  0.00  0.00    -0.333 N 
HETATM    4  N   UNK N   1      20.791  14.834   6.120  0.00  0.00    -0.287 N 
HETATM    5  N   UNK N   1      20.382  16.702   7.586  0.00  0.00    -0.269 N 
HETATM    6  N   UNK N   1      21.876  15.415   4.031  0.00  0.00    -0.336 N 
ATOM      7  HN  UNK N   1      21.940  14.504   3.576  1.00  0.00     0.168 HD
HETATM    8  C   UNK N   1      21.431  17.026   5.478  0.00  0.00     0.149 A 
HETATM    9  C   UNK N   1      21.337  15.704   5.232  0.00  0.00     0.145 A 
HETATM   10  C   UNK N   1      20.951  17.564   6.663  0.00  0.00     0.282 A 
HETATM   11  C   UNK N   1      22.314  16.617   3.562  0.00  0.00     0.185 A 
HETATM   12  C   UNK N   1      20.307  15.338   7.318  0.00  0.00     0.332 A 
HETATM   13  C   UNK N   1      20.733  13.408   5.821  0.00  0.00     0.163 C 
HETATM   14  C   UNK N   1      19.868  17.230   8.847  0.00  0.00     0.164 C 
ENDROOT
BRANCH   3  15
HETATM   15  C   UNK N   1      22.434  19.020   4.346  0.00  0.00     0.164 C 
BRANCH  15  16
HETATM   16  C   UNK N   1      21.994  19.681   3.053  0.00  0.00     0.160 C 
BRANCH  16  17
HETATM   17  O   UNK N   1      22.628  20.919   2.927  0.00  0.00    -0.392 OA
HETATM   18  H   UNK N   1      22.468  21.477   2.151  0.00  0.00     0.210 HD
ENDBRANCH  16  17
BRANCH  16  19
HETATM   19  C   UNK N   1      20.492  19.889   3.150  0.00  0.00     0.197 C 
BRANCH  19  20
HETATM   20  O   UNK N   1      20.199  21.071   3.829  0.00  0.00    -0.398 OA
HETATM   21  H   UNK N   1      20.003  21.248   4.763  0.00  0.00     0.209 HD
ENDBRANCH  19  20
ENDBRANCH  16  19
ENDBRANCH  15  16
ENDBRANCH   3  15
TORSDOF 5
ENDMDL
MODEL 8
REMARK VINA RESULT:      -5.1      2.692      4.319
REMARK  5 active torsions:
REMARK  status: ('A' for Active; 'I' for Inactive)
REMARK    1  A    between atoms: O_1  and  C_13 
REMARK    2  A    between atoms: O_3  and  C_17 
REMARK    3  A    between atoms: N_5  and  C_11 
REMARK    4  A    between atoms: C_11  and  C_13 
REMARK    5  A    between atoms: C_13  and  C_17 
ROOT
HETATM    1  O   UNK N   1      30.983  17.362   8.792  0.00  0.00    -0.265 OA
HETATM    2  O   UNK N   1      29.488  17.451   4.517  0.00  0.00    -0.246 OA
HETATM    3  N   UNK N   1      33.594  16.710   7.754  0.00  0.00    -0.333 N 
HETATM    4  N   UNK N   1      31.679  17.012   4.861  0.00  0.00    -0.287 N 
HETATM    5  N   UNK N   1      30.157  17.436   6.681  0.00  0.00    -0.269 N 
HETATM    6  N   UNK N   1      33.958  16.546   5.545  0.00  0.00    -0.336 N 
ATOM      7  HN  UNK N   1      34.416  16.411   4.643  1.00  0.00     0.168 HD
HETATM    8  C   UNK N   1      32.446  16.958   7.105  0.00  0.00     0.149 A 
HETATM    9  C   UNK N   1      32.666  16.851   5.779  0.00  0.00     0.145 A 
HETATM   10  C   UNK N   1      31.183  17.259   7.594  0.00  0.00     0.282 A 
HETATM   11  C   UNK N   1      34.512  16.458   6.786  0.00  0.00     0.185 A 
HETATM   12  C   UNK N   1      30.402  17.308   5.317  0.00  0.00     0.332 A 
HETATM   13  C   UNK N   1      31.958  16.863   3.438  0.00  0.00     0.163 C 
HETATM   14  C   UNK N   1      28.813  17.750   7.157  0.00  0.00     0.164 C 
ENDROOT
BRANCH   3  15
HETATM   15  C   UNK N   1      33.773  16.628   9.201  0.00  0.00     0.164 C 
BRANCH  15  16
HETATM   16  C   UNK N   1      33.561  15.232   9.757  0.00  0.00     0.160 C 
BRANCH  16  17
HETATM   17  O   UNK N   1      32.245  15.109  10.209  0.00  0.00    -0.392 OA
HETATM   18  H   UNK N   1      31.879  14.239  10.429  0.00  0.00     0.210 HD
ENDBRANCH  16  17
BRANCH  16  19
HETATM   19  C   UNK N   1      34.515  15.072  10.928  0.00  0.00     0.197 C 
BRANCH  19  20
HETATM   20  O   UNK N   1      34.096  14.044  11.771  0.00  0.00    -0.398 OA
HETATM   21  H   UNK N   1      34.276  13.090  11.765  0.00  0.00     0.209 HD
ENDBRANCH  19  20
ENDBRANCH  16  19
ENDBRANCH  15  16
ENDBRANCH   3  15
TORSDOF 5
ENDMDL
MODEL 9
REMARK VINA RESULT:      -5.1      1.762      2.244
REMARK  5 active torsions:
REMARK  status: ('A' for Active; 'I' for Inactive)
REMARK    1  A    between atoms: O_1  and  C_13 
REMARK    2  A    between atoms: O_3  and  C_17 
REMARK    3  A    between atoms: N_5  and  C_11 
REMARK    4  A    between atoms: C_11  and  C_13 
REMARK    5  A    between atoms: C_13  and  C_17 
ROOT
HETATM    1  O   UNK N   1      30.661  17.260   8.482  0.00  0.00    -0.265 OA
HETATM    2  O   UNK N   1      34.432  16.981   5.988  0.00  0.00    -0.246 OA
HETATM    3  N   UNK N   1      29.173  17.454   6.019  0.00  0.00    -0.333 N 
HETATM    4  N   UNK N   1      32.457  17.149   4.901  0.00  0.00    -0.287 N 
HETATM    5  N   UNK N   1      32.595  17.105   7.307  0.00  0.00    -0.269 N 
HETATM    6  N   UNK N   1      30.206  17.364   4.027  0.00  0.00    -0.336 N 
ATOM      7  HN  UNK N   1      30.377  17.353   3.021  1.00  0.00     0.168 HD
HETATM    8  C   UNK N   1      30.491  17.305   6.219  0.00  0.00     0.149 A 
HETATM    9  C   UNK N   1      31.109  17.259   5.021  0.00  0.00     0.145 A 
HETATM   10  C   UNK N   1      31.218  17.224   7.398  0.00  0.00     0.282 A 
HETATM   11  C   UNK N   1      29.011  17.490   4.671  0.00  0.00     0.185 A 
HETATM   12  C   UNK N   1      33.215  17.072   6.061  0.00  0.00     0.332 A 
HETATM   13  C   UNK N   1      33.085  17.128   3.585  0.00  0.00     0.163 C 
HETATM   14  C   UNK N   1      33.395  17.020   8.525  0.00  0.00     0.164 C 
ENDROOT
BRANCH   3  15
HETATM   15  C   UNK N   1      28.154  17.644   7.047  0.00  0.00     0.164 C 
BRANCH  15  16
HETATM   16  C   UNK N   1      28.144  19.042   7.637  0.00  0.00     0.160 C 
BRANCH  16  17
HETATM   17  O   UNK N   1      27.524  19.013   8.888  0.00  0.00    -0.392 OA
HETATM   18  H   UNK N   1      27.742  19.675   9.561  0.00  0.00     0.210 HD
ENDBRANCH  16  17
BRANCH  16  19
HETATM   19  C   UNK N   1      27.337  19.916   6.692  0.00  0.00     0.197 C 
BRANCH  19  20
HETATM   20  O   UNK N   1      26.351  20.616   7.385  0.00  0.00    -0.398 OA
HETATM   21  H   UNK N   1      25.382  20.554   7.369  0.00  0.00     0.209 HD
ENDBRANCH  19  20
ENDBRANCH  16  19
ENDBRANCH  15  16
ENDBRANCH   3  15
TORSDOF 5
ENDMDL
