REMARK  1 active torsions:
REMARK  status: ('A' for Active; 'I' for Inactive)
REMARK    1  A    between atoms: O_2  and  C_20 
ROOT
HETATM    1  O   UNK N   1       9.145   2.923   0.376  0.00  0.00    -0.297 OA
HETATM    2  C   UNK N   1       7.396  -0.005  -0.316  0.00  0.00     0.006 C 
HETATM    3  C   UNK N   1       7.324   1.388   0.316  0.00  0.00     0.021 C 
HETATM    4  C   UNK N   1       6.085  -0.769  -0.094  0.00  0.00    -0.000 C 
HETATM    5  C   UNK N   1       4.935   0.023  -0.772  0.00  0.00     0.024 C 
HETATM    6  C   UNK N   1       6.282   2.192  -0.460  0.00  0.00     0.018 C 
HETATM    7  C   UNK N   1       8.708  -0.581   0.200  0.00  0.00     0.013 C 
HETATM    8  C   UNK N   1       4.911   1.503  -0.309  0.00  0.00     0.011 C 
HETATM    9  C   UNK N   1       6.119  -2.167  -0.707  0.00  0.00     0.010 C 
HETATM   10  C   UNK N   1       8.746   1.785   0.190  0.00  0.00     0.135 C 
HETATM   11  C   UNK N   1       9.669   0.614   0.063  0.00  0.00     0.079 C 
HETATM   12  C   UNK N   1       6.987   1.387   1.812  0.00  0.00     0.024 C 
HETATM   13  C   UNK N   1       3.621  -0.678  -0.495  0.00  0.00    -0.047 A 
HETATM   14  C   UNK N   1       4.829  -2.936  -0.392  0.00  0.00     0.039 C 
HETATM   15  C   UNK N   1       3.584  -2.083  -0.313  0.00  0.00    -0.049 A 
HETATM   16  C   UNK N   1       2.433   0.061  -0.375  0.00  0.00     0.011 A 
HETATM   17  C   UNK N   1       2.373  -2.706   0.005  0.00  0.00     0.044 A 
HETATM   18  C   UNK N   1       1.231  -0.575  -0.064  0.00  0.00     0.037 A 
HETATM   19  C   UNK N   1       1.203  -1.956   0.136  0.00  0.00     0.066 A 
ENDROOT
BRANCH  19  20
HETATM   20  O   UNK N   1       0.050  -2.561   0.463  0.00  0.00    -0.361 OA
HETATM   21  H   UNK N   1      -0.718  -2.076   0.692  0.00  0.00     0.217 HD
ENDBRANCH  19  20
TORSDOF 1
