MODEL 1
REMARK VINA RESULT:      -7.0      0.000      0.000
REMARK  1 active torsions:
REMARK  status: ('A' for Active; 'I' for Inactive)
REMARK    1  A    between atoms: O_2  and  C_20 
ROOT
HETATM    1  O   UNK N   1      36.298  12.318   9.850  0.00  0.00    -0.297 OA
HETATM    2  C   UNK N   1      35.376  10.823  12.855  0.00  0.00     0.006 C 
HETATM    3  C   UNK N   1      36.067  12.025  12.203  0.00  0.00     0.021 C 
HETATM    4  C   UNK N   1      35.490  10.896  14.382  0.00  0.00    -0.000 C 
HETATM    5  C   UNK N   1      34.787  12.193  14.865  0.00  0.00     0.024 C 
HETATM    6  C   UNK N   1      35.273  13.273  12.582  0.00  0.00     0.018 C 
HETATM    7  C   UNK N   1      35.937   9.621  12.107  0.00  0.00     0.013 C 
HETATM    8  C   UNK N   1      35.316  13.442  14.114  0.00  0.00     0.011 C 
HETATM    9  C   UNK N   1      34.816   9.711  15.070  0.00  0.00     0.010 C 
HETATM   10  C   UNK N   1      36.038  11.583  10.789  0.00  0.00     0.135 C 
HETATM   11  C   UNK N   1      35.908  10.099  10.644  0.00  0.00     0.079 C 
HETATM   12  C   UNK N   1      37.541  12.195  12.592  0.00  0.00     0.024 C 
HETATM   13  C   UNK N   1      34.959  12.320  16.365  0.00  0.00    -0.047 A 
HETATM   14  C   UNK N   1      35.024   9.767  16.589  0.00  0.00     0.039 C 
HETATM   15  C   UNK N   1      35.074  11.161  17.173  0.00  0.00    -0.049 A 
HETATM   16  C   UNK N   1      35.047  13.586  16.965  0.00  0.00     0.011 A 
HETATM   17  C   UNK N   1      35.295  11.296  18.547  0.00  0.00     0.044 A 
HETATM   18  C   UNK N   1      35.262  13.706  18.339  0.00  0.00     0.037 A 
HETATM   19  C   UNK N   1      35.396  12.562  19.127  0.00  0.00     0.066 A 
ENDROOT
BRANCH  19  20
HETATM   20  O   UNK N   1      35.631  12.681  20.443  0.00  0.00    -0.361 OA
HETATM   21  H   UNK N   1      36.491  12.594  20.805  0.00  0.00     0.217 HD
ENDBRANCH  19  20
TORSDOF 1
ENDMDL
MODEL 2
REMARK VINA RESULT:      -6.9      1.431      3.139
REMARK  1 active torsions:
REMARK  status: ('A' for Active; 'I' for Inactive)
REMARK    1  A    between atoms: O_2  and  C_20 
ROOT
HETATM    1  O   UNK N   1      35.549  10.665  11.271  0.00  0.00    -0.297 OA
HETATM    2  C   UNK N   1      35.744  12.299  14.338  0.00  0.00     0.006 C 
HETATM    3  C   UNK N   1      35.320  11.016  13.617  0.00  0.00     0.021 C 
HETATM    4  C   UNK N   1      35.367  12.235  15.823  0.00  0.00    -0.000 C 
HETATM    5  C   UNK N   1      36.112  11.035  16.467  0.00  0.00     0.024 C 
HETATM    6  C   UNK N   1      36.167   9.873  14.173  0.00  0.00     0.018 C 
HETATM    7  C   UNK N   1      35.197  13.418  13.462  0.00  0.00     0.013 C 
HETATM    8  C   UNK N   1      35.869   9.722  15.678  0.00  0.00     0.011 C 
HETATM    9  C   UNK N   1      35.770  13.500  16.577  0.00  0.00     0.010 C 
HETATM   10  C   UNK N   1      35.553  11.438  12.215  0.00  0.00     0.135 C 
HETATM   11  C   UNK N   1      35.541  12.925  12.044  0.00  0.00     0.079 C 
HETATM   12  C   UNK N   1      33.829  10.682  13.745  0.00  0.00     0.024 C 
HETATM   13  C   UNK N   1      35.689  10.911  17.917  0.00  0.00    -0.047 A 
HETATM   14  C   UNK N   1      35.301  13.442  18.037  0.00  0.00     0.039 C 
HETATM   15  C   UNK N   1      35.303  12.060  18.650  0.00  0.00    -0.049 A 
HETATM   16  C   UNK N   1      35.636   9.652  18.536  0.00  0.00     0.011 A 
HETATM   17  C   UNK N   1      34.854  11.920  19.968  0.00  0.00     0.044 A 
HETATM   18  C   UNK N   1      35.193   9.528  19.853  0.00  0.00     0.037 A 
HETATM   19  C   UNK N   1      34.793  10.660  20.565  0.00  0.00     0.066 A 
ENDROOT
BRANCH  19  20
HETATM   20  O   UNK N   1      34.340  10.533  21.822  0.00  0.00    -0.361 OA
HETATM   21  H   UNK N   1      34.146  11.277  22.358  0.00  0.00     0.217 HD
ENDBRANCH  19  20
TORSDOF 1
ENDMDL
MODEL 3
REMARK VINA RESULT:      -6.8      9.897     12.405
REMARK  1 active torsions:
REMARK  status: ('A' for Active; 'I' for Inactive)
REMARK    1  A    between atoms: O_2  and  C_20 
ROOT
HETATM    1  O   UNK N   1      25.203  16.860   4.752  0.00  0.00    -0.297 OA
HETATM    2  C   UNK N   1      28.639  16.365   4.509  0.00  0.00     0.006 C 
HETATM    3  C   UNK N   1      27.523  17.142   5.213  0.00  0.00     0.021 C 
HETATM    4  C   UNK N   1      30.016  16.858   4.969  0.00  0.00    -0.000 C 
HETATM    5  C   UNK N   1      30.137  16.620   6.498  0.00  0.00     0.024 C 
HETATM    6  C   UNK N   1      27.578  16.782   6.697  0.00  0.00     0.018 C 
HETATM    7  C   UNK N   1      28.263  16.426   3.034  0.00  0.00     0.013 C 
HETATM    8  C   UNK N   1      28.938  17.233   7.267  0.00  0.00     0.011 C 
HETATM    9  C   UNK N   1      31.157  16.109   4.284  0.00  0.00     0.010 C 
HETATM   10  C   UNK N   1      26.362  16.668   4.423  0.00  0.00     0.135 C 
HETATM   11  C   UNK N   1      26.747  16.160   3.070  0.00  0.00     0.079 C 
HETATM   12  C   UNK N   1      27.601  18.663   5.033  0.00  0.00     0.024 C 
HETATM   13  C   UNK N   1      31.462  17.174   6.982  0.00  0.00    -0.047 A 
HETATM   14  C   UNK N   1      32.518  16.685   4.698  0.00  0.00     0.039 C 
HETATM   15  C   UNK N   1      32.584  17.202   6.117  0.00  0.00    -0.049 A 
HETATM   16  C   UNK N   1      31.580  17.702   8.277  0.00  0.00     0.011 A 
HETATM   17  C   UNK N   1      33.781  17.775   6.558  0.00  0.00     0.044 A 
HETATM   18  C   UNK N   1      32.783  18.264   8.706  0.00  0.00     0.037 A 
HETATM   19  C   UNK N   1      33.879  18.310   7.844  0.00  0.00     0.066 A 
ENDROOT
BRANCH  19  20
HETATM   20  O   UNK N   1      35.026  18.877   8.250  0.00  0.00    -0.361 OA
HETATM   21  H   UNK N   1      35.056  19.480   8.966  0.00  0.00     0.217 HD
ENDBRANCH  19  20
TORSDOF 1
ENDMDL
MODEL 4
REMARK VINA RESULT:      -6.8     21.249     24.392
REMARK  1 active torsions:
REMARK  status: ('A' for Active; 'I' for Inactive)
REMARK    1  A    between atoms: O_2  and  C_20 
ROOT
HETATM    1  O   UNK N   1      32.567  21.738  -2.340  0.00  0.00    -0.297 OA
HETATM    2  C   UNK N   1      30.146  22.413  -4.748  0.00  0.00     0.006 C 
HETATM    3  C   UNK N   1      30.647  22.737  -3.338  0.00  0.00     0.021 C 
HETATM    4  C   UNK N   1      28.835  23.153  -5.040  0.00  0.00    -0.000 C 
HETATM    5  C   UNK N   1      29.104  24.680  -4.950  0.00  0.00     0.024 C 
HETATM    6  C   UNK N   1      31.035  24.215  -3.316  0.00  0.00     0.018 C 
HETATM    7  C   UNK N   1      30.192  20.892  -4.819  0.00  0.00     0.013 C 
HETATM    8  C   UNK N   1      29.780  25.061  -3.608  0.00  0.00     0.011 C 
HETATM    9  C   UNK N   1      28.300  22.852  -6.438  0.00  0.00     0.010 C 
HETATM   10  C   UNK N   1      31.730  21.731  -3.228  0.00  0.00     0.135 C 
HETATM   11  C   UNK N   1      31.544  20.572  -4.156  0.00  0.00     0.079 C 
HETATM   12  C   UNK N   1      29.638  22.438  -2.223  0.00  0.00     0.024 C 
HETATM   13  C   UNK N   1      27.801  25.424  -5.159  0.00  0.00    -0.047 A 
HETATM   14  C   UNK N   1      26.946  23.536  -6.667  0.00  0.00     0.039 C 
HETATM   15  C   UNK N   1      26.783  24.870  -5.974  0.00  0.00    -0.049 A 
HETATM   16  C   UNK N   1      27.573  26.652  -4.516  0.00  0.00     0.011 A 
HETATM   17  C   UNK N   1      25.562  25.540  -6.105  0.00  0.00     0.044 A 
HETATM   18  C   UNK N   1      26.353  27.312  -4.662  0.00  0.00     0.037 A 
HETATM   19  C   UNK N   1      25.345  26.752  -5.447  0.00  0.00     0.066 A 
ENDROOT
BRANCH  19  20
HETATM   20  O   UNK N   1      24.162  27.376  -5.563  0.00  0.00    -0.361 OA
HETATM   21  H   UNK N   1      23.350  26.929  -5.434  0.00  0.00     0.217 HD
ENDBRANCH  19  20
TORSDOF 1
ENDMDL
MODEL 5
REMARK VINA RESULT:      -6.8     24.286     26.069
REMARK  1 active torsions:
REMARK  status: ('A' for Active; 'I' for Inactive)
REMARK    1  A    between atoms: O_2  and  C_20 
ROOT
HETATM    1  O   UNK N   1      27.573  20.940  -9.906  0.00  0.00    -0.297 OA
HETATM    2  C   UNK N   1      27.789  22.384  -6.747  0.00  0.00     0.006 C 
HETATM    3  C   UNK N   1      27.399  22.605  -8.211  0.00  0.00     0.021 C 
HETATM    4  C   UNK N   1      27.649  23.685  -5.947  0.00  0.00    -0.000 C 
HETATM    5  C   UNK N   1      26.164  24.136  -6.000  0.00  0.00     0.024 C 
HETATM    6  C   UNK N   1      25.902  22.911  -8.247  0.00  0.00     0.018 C 
HETATM    7  C   UNK N   1      29.138  21.681  -6.823  0.00  0.00     0.013 C 
HETATM    8  C   UNK N   1      25.643  24.211  -7.459  0.00  0.00     0.011 C 
HETATM    9  C   UNK N   1      28.034  23.506  -4.480  0.00  0.00     0.010 C 
HETATM   10  C   UNK N   1      27.861  21.319  -8.782  0.00  0.00     0.135 C 
HETATM   11  C   UNK N   1      28.911  20.655  -7.948  0.00  0.00     0.079 C 
HETATM   12  C   UNK N   1      28.185  23.719  -8.914  0.00  0.00     0.024 C 
HETATM   13  C   UNK N   1      26.023  25.461  -5.280  0.00  0.00    -0.047 A 
HETATM   14  C   UNK N   1      27.967  24.842  -3.728  0.00  0.00     0.039 C 
HETATM   15  C   UNK N   1      26.887  25.786  -4.205  0.00  0.00    -0.049 A 
HETATM   16  C   UNK N   1      25.062  26.397  -5.696  0.00  0.00     0.011 A 
HETATM   17  C   UNK N   1      26.785  27.040  -3.593  0.00  0.00     0.044 A 
HETATM   18  C   UNK N   1      24.968  27.640  -5.071  0.00  0.00     0.037 A 
HETATM   19  C   UNK N   1      25.835  27.965  -4.027  0.00  0.00     0.066 A 
ENDROOT
BRANCH  19  20
HETATM   20  O   UNK N   1      25.760  29.174  -3.447  0.00  0.00    -0.361 OA
HETATM   21  H   UNK N   1      26.524  29.644  -3.177  0.00  0.00     0.217 HD
ENDBRANCH  19  20
TORSDOF 1
ENDMDL
MODEL 6
REMARK VINA RESULT:      -6.8      9.283     12.071
REMARK  1 active torsions:
REMARK  status: ('A' for Active; 'I' for Inactive)
REMARK    1  A    between atoms: O_2  and  C_20 
ROOT
HETATM    1  O   UNK N   1      34.453  14.727   6.425  0.00  0.00    -0.297 OA
HETATM    2  C   UNK N   1      31.570  16.129   7.779  0.00  0.00     0.006 C 
HETATM    3  C   UNK N   1      32.591  16.198   6.640  0.00  0.00     0.021 C 
HETATM    4  C   UNK N   1      30.561  17.279   7.672  0.00  0.00    -0.000 C 
HETATM    5  C   UNK N   1      29.807  17.147   6.322  0.00  0.00     0.024 C 
HETATM    6  C   UNK N   1      31.845  15.927   5.335  0.00  0.00     0.018 C 
HETATM    7  C   UNK N   1      32.419  15.976   9.033  0.00  0.00     0.013 C 
HETATM    8  C   UNK N   1      30.790  17.032   5.128  0.00  0.00     0.011 C 
HETATM    9  C   UNK N   1      29.526  17.247   8.795  0.00  0.00     0.010 C 
HETATM   10  C   UNK N   1      33.555  15.178   7.117  0.00  0.00     0.135 C 
HETATM   11  C   UNK N   1      33.476  14.946   8.593  0.00  0.00     0.079 C 
HETATM   12  C   UNK N   1      33.350  17.528   6.551  0.00  0.00     0.024 C 
HETATM   13  C   UNK N   1      28.862  18.320   6.166  0.00  0.00    -0.047 A 
HETATM   14  C   UNK N   1      28.588  18.458   8.711  0.00  0.00     0.039 C 
HETATM   15  C   UNK N   1      28.292  18.937   7.308  0.00  0.00    -0.049 A 
HETATM   16  C   UNK N   1      28.573  18.836   4.892  0.00  0.00     0.011 A 
HETATM   17  C   UNK N   1      27.472  20.059   7.150  0.00  0.00     0.044 A 
HETATM   18  C   UNK N   1      27.748  19.951   4.749  0.00  0.00     0.037 A 
HETATM   19  C   UNK N   1      27.206  20.569   5.878  0.00  0.00     0.066 A 
ENDROOT
BRANCH  19  20
HETATM   20  O   UNK N   1      26.436  21.659   5.739  0.00  0.00    -0.361 OA
HETATM   21  H   UNK N   1      25.677  21.665   5.189  0.00  0.00     0.217 HD
ENDBRANCH  19  20
TORSDOF 1
ENDMDL
MODEL 7
REMARK VINA RESULT:      -6.7     20.400     22.982
REMARK  1 active torsions:
REMARK  status: ('A' for Active; 'I' for Inactive)
REMARK    1  A    between atoms: O_2  and  C_20 
ROOT
HETATM    1  O   UNK N   1      26.919  25.482  -3.422  0.00  0.00    -0.297 OA
HETATM    2  C   UNK N   1      28.602  22.866  -4.983  0.00  0.00     0.006 C 
HETATM    3  C   UNK N   1      28.719  24.030  -3.994  0.00  0.00     0.021 C 
HETATM    4  C   UNK N   1      29.966  22.199  -5.199  0.00  0.00    -0.000 C 
HETATM    5  C   UNK N   1      30.462  21.644  -3.837  0.00  0.00     0.024 C 
HETATM    6  C   UNK N   1      29.073  23.441  -2.630  0.00  0.00     0.018 C 
HETATM    7  C   UNK N   1      27.849  23.457  -6.167  0.00  0.00     0.013 C 
HETATM    8  C   UNK N   1      30.439  22.734  -2.734  0.00  0.00     0.011 C 
HETATM    9  C   UNK N   1      29.892  21.034  -6.183  0.00  0.00     0.010 C 
HETATM   10  C   UNK N   1      27.376  24.630  -4.167  0.00  0.00     0.135 C 
HETATM   11  C   UNK N   1      26.744  24.279  -5.478  0.00  0.00     0.079 C 
HETATM   12  C   UNK N   1      29.745  25.097  -4.394  0.00  0.00     0.024 C 
HETATM   13  C   UNK N   1      31.844  21.051  -4.018  0.00  0.00    -0.047 A 
HETATM   14  C   UNK N   1      31.285  20.447  -6.445  0.00  0.00     0.039 C 
HETATM   15  C   UNK N   1      32.224  20.489  -5.262  0.00  0.00    -0.049 A 
HETATM   16  C   UNK N   1      32.777  21.090  -2.969  0.00  0.00     0.011 A 
HETATM   17  C   UNK N   1      33.525  20.004  -5.431  0.00  0.00     0.044 A 
HETATM   18  C   UNK N   1      34.069  20.596  -3.150  0.00  0.00     0.037 A 
HETATM   19  C   UNK N   1      34.446  20.063  -4.384  0.00  0.00     0.066 A 
ENDROOT
BRANCH  19  20
HETATM   20  O   UNK N   1      35.698  19.614  -4.564  0.00  0.00    -0.361 OA
HETATM   21  H   UNK N   1      36.087  19.553  -5.414  0.00  0.00     0.217 HD
ENDBRANCH  19  20
TORSDOF 1
ENDMDL
MODEL 8
REMARK VINA RESULT:      -6.7      9.622     11.034
REMARK  1 active torsions:
REMARK  status: ('A' for Active; 'I' for Inactive)
REMARK    1  A    between atoms: O_2  and  C_20 
ROOT
HETATM    1  O   UNK N   1      35.749  13.885   4.531  0.00  0.00    -0.297 OA
HETATM    2  C   UNK N   1      32.852  15.809   4.397  0.00  0.00     0.006 C 
HETATM    3  C   UNK N   1      33.740  14.926   5.278  0.00  0.00     0.021 C 
HETATM    4  C   UNK N   1      31.590  16.236   5.156  0.00  0.00    -0.000 C 
HETATM    5  C   UNK N   1      32.020  17.054   6.403  0.00  0.00     0.024 C 
HETATM    6  C   UNK N   1      34.262  15.794   6.422  0.00  0.00     0.018 C 
HETATM    7  C   UNK N   1      32.729  15.031   3.093  0.00  0.00     0.013 C 
HETATM    8  C   UNK N   1      33.063  16.287   7.256  0.00  0.00     0.011 C 
HETATM    9  C   UNK N   1      30.674  17.116   4.308  0.00  0.00     0.010 C 
HETATM   10  C   UNK N   1      34.709  14.462   4.257  0.00  0.00     0.135 C 
HETATM   11  C   UNK N   1      34.171  14.544   2.863  0.00  0.00     0.079 C 
HETATM   12  C   UNK N   1      33.040  13.680   5.834  0.00  0.00     0.024 C 
HETATM   13  C   UNK N   1      30.787  17.416   7.206  0.00  0.00    -0.047 A 
HETATM   14  C   UNK N   1      29.382  17.452   5.063  0.00  0.00     0.039 C 
HETATM   15  C   UNK N   1      29.540  17.599   6.559  0.00  0.00    -0.049 A 
HETATM   16  C   UNK N   1      30.860  17.534   8.603  0.00  0.00     0.011 A 
HETATM   17  C   UNK N   1      28.400  17.871   7.322  0.00  0.00     0.044 A 
HETATM   18  C   UNK N   1      29.715  17.812   9.351  0.00  0.00     0.037 A 
HETATM   19  C   UNK N   1      28.485  17.970   8.712  0.00  0.00     0.066 A 
ENDROOT
BRANCH  19  20
HETATM   20  O   UNK N   1      27.380  18.209   9.437  0.00  0.00    -0.361 OA
HETATM   21  H   UNK N   1      27.182  17.725  10.214  0.00  0.00     0.217 HD
ENDBRANCH  19  20
TORSDOF 1
ENDMDL
MODEL 9
REMARK VINA RESULT:      -6.6     14.207     15.464
REMARK  1 active torsions:
REMARK  status: ('A' for Active; 'I' for Inactive)
REMARK    1  A    between atoms: O_2  and  C_20 
ROOT
HETATM    1  O   UNK N   1      19.887  17.078   4.127  0.00  0.00    -0.297 OA
HETATM    2  C   UNK N   1      22.541  15.291   5.496  0.00  0.00     0.006 C 
HETATM    3  C   UNK N   1      21.185  15.947   5.774  0.00  0.00     0.021 C 
HETATM    4  C   UNK N   1      23.152  14.741   6.791  0.00  0.00    -0.000 C 
HETATM    5  C   UNK N   1      22.191  13.668   7.369  0.00  0.00     0.024 C 
HETATM    6  C   UNK N   1      20.221  14.845   6.209  0.00  0.00     0.018 C 
HETATM    7  C   UNK N   1      23.298  16.330   4.680  0.00  0.00     0.013 C 
HETATM    8  C   UNK N   1      20.746  14.213   7.513  0.00  0.00     0.011 C 
HETATM    9  C   UNK N   1      24.509  14.082   6.556  0.00  0.00     0.010 C 
HETATM   10  C   UNK N   1      20.957  16.595   4.461  0.00  0.00     0.135 C 
HETATM   11  C   UNK N   1      22.222  16.823   3.695  0.00  0.00     0.079 C 
HETATM   12  C   UNK N   1      21.226  17.062   6.826  0.00  0.00     0.024 C 
HETATM   13  C   UNK N   1      22.743  13.171   8.690  0.00  0.00    -0.047 A 
HETATM   14  C   UNK N   1      25.132  13.622   7.881  0.00  0.00     0.039 C 
HETATM   15  C   UNK N   1      24.141  13.157   8.922  0.00  0.00    -0.049 A 
HETATM   16  C   UNK N   1      21.873  12.758   9.712  0.00  0.00     0.011 A 
HETATM   17  C   UNK N   1      24.629  12.756  10.170  0.00  0.00     0.044 A 
HETATM   18  C   UNK N   1      22.375  12.353  10.949  0.00  0.00     0.037 A 
HETATM   19  C   UNK N   1      23.751  12.362  11.181  0.00  0.00     0.066 A 
ENDROOT
BRANCH  19  20
HETATM   20  O   UNK N   1      24.230  11.999  12.382  0.00  0.00    -0.361 OA
HETATM   21  H   UNK N   1      23.665  11.816  13.107  0.00  0.00     0.217 HD
ENDBRANCH  19  20
TORSDOF 1
ENDMDL
