MODEL 1
REMARK VINA RESULT:      -7.5      0.000      0.000
REMARK  5 active torsions:
REMARK  status: ('A' for Active; 'I' for Inactive)
REMARK    1  A    between atoms: N_3  and  C_13 
REMARK    2  A    between atoms: N_4  and  C_16 
REMARK    3  A    between atoms: N_5  and  C_15 
REMARK    4  A    between atoms: C_13  and  C_14 
REMARK    5  A    between atoms: C_14  and  C_15 
ROOT
HETATM    1  C   UNK N   1      34.339  15.108  10.799  0.00  0.00     0.274 C 
ENDROOT
BRANCH   1   2
HETATM    2  N   UNK N   1      34.049  15.602   9.444  0.00  0.00     0.091 N 
HETATM    3  C   UNK N   1      32.622  15.350   9.168  0.00  0.00     0.292 C 
HETATM    4  C   UNK N   1      31.903  16.534   8.528  0.00  0.00     0.153 C 
HETATM    5  N   UNK N   1      32.761  17.138   7.533  0.00  0.00    -0.377 N 
HETATM    6  C   UNK N   1      34.103  17.545   7.905  0.00  0.00     0.153 C 
HETATM    7  C   UNK N   1      34.483  17.002   9.275  0.00  0.00     0.292 C 
BRANCH   5   8
HETATM    8  C   UNK N   1      32.355  17.206   6.171  0.00  0.00     0.031 A 
HETATM    9  C   UNK N   1      30.998  17.102   5.822  0.00  0.00     0.053 A 
HETATM   10  C   UNK N   1      30.612  17.109   4.480  0.00  0.00     0.036 A 
HETATM   11 Cl   UNK N   1      28.925  16.936   4.054  0.00  0.00    -0.084 Cl
HETATM   12  C   UNK N   1      31.576  17.229   3.475  0.00  0.00     0.024 A 
HETATM   13  C   UNK N   1      32.926  17.345   3.811  0.00  0.00     0.004 A 
HETATM   14  C   UNK N   1      33.314  17.324   5.152  0.00  0.00     0.029 A 
ENDBRANCH   5   8
ENDBRANCH   1   2
BRANCH   1  15
HETATM   15  C   UNK N   1      35.775  15.369  11.285  0.00  0.00     0.052 C 
BRANCH  15  16
HETATM   16  C   UNK N   1      36.437  14.119  11.855  0.00  0.00     0.156 C 
BRANCH  16  17
HETATM   17  N   UNK N   1      36.236  14.056  13.288  0.00  0.00    -0.240 N 
HETATM   18  N   UNK N   1      36.922  14.764  14.183  0.00  0.00    -0.279 N 
HETATM   19  C   UNK N   1      36.420  14.428  15.391  0.00  0.00     0.130 A 
ATOM     20  HN  UNK N   1      37.675  15.426  13.993  1.00  0.00     0.189 HD
HETATM   21  N   UNK N   1      35.434  13.518  15.282  0.00  0.00    -0.258 N 
HETATM   22  C   UNK N   1      36.811  14.921  16.629  0.00  0.00     0.050 A 
HETATM   23  C   UNK N   1      35.336  13.296  13.957  0.00  0.00     0.349 A 
HETATM   24  C   UNK N   1      34.755  13.015  16.339  0.00  0.00     0.103 A 
HETATM   25  O   UNK N   1      34.547  12.526  13.435  0.00  0.00    -0.244 OA
HETATM   26  C   UNK N   1      35.104  13.473  17.619  0.00  0.00     0.018 A 
HETATM   27  C   UNK N   1      36.133  14.429  17.760  0.00  0.00     0.005 A 
ENDBRANCH  16  17
ENDBRANCH  15  16
ENDBRANCH   1  15
TORSDOF 5
ENDMDL
MODEL 2
REMARK VINA RESULT:      -7.5      3.937      9.417
REMARK  5 active torsions:
REMARK  status: ('A' for Active; 'I' for Inactive)
REMARK    1  A    between atoms: N_3  and  C_13 
REMARK    2  A    between atoms: N_4  and  C_16 
REMARK    3  A    between atoms: N_5  and  C_15 
REMARK    4  A    between atoms: C_13  and  C_14 
REMARK    5  A    between atoms: C_14  and  C_15 
ROOT
HETATM    1  C   UNK N   1      34.242  15.634   9.161  0.00  0.00     0.274 C 
ENDROOT
BRANCH   1   2
HETATM    2  N   UNK N   1      34.612  15.063  10.465  0.00  0.00     0.091 N 
HETATM    3  C   UNK N   1      35.100  13.691  10.235  0.00  0.00     0.292 C 
HETATM    4  C   UNK N   1      36.378  13.358  11.000  0.00  0.00     0.153 C 
HETATM    5  N   UNK N   1      36.296  13.907  12.335  0.00  0.00    -0.377 N 
HETATM    6  C   UNK N   1      35.995  15.315  12.507  0.00  0.00     0.153 C 
HETATM    7  C   UNK N   1      35.541  15.945  11.198  0.00  0.00     0.292 C 
BRANCH   5   8
HETATM    8  C   UNK N   1      36.366  13.057  13.474  0.00  0.00     0.031 A 
HETATM    9  C   UNK N   1      35.666  13.374  14.650  0.00  0.00     0.053 A 
HETATM   10  C   UNK N   1      35.789  12.567  15.783  0.00  0.00     0.036 A 
HETATM   11 Cl   UNK N   1      34.948  12.994  17.255  0.00  0.00    -0.084 Cl
HETATM   12  C   UNK N   1      36.602  11.432  15.750  0.00  0.00     0.024 A 
HETATM   13  C   UNK N   1      37.293  11.101  14.583  0.00  0.00     0.004 A 
HETATM   14  C   UNK N   1      37.183  11.914  13.453  0.00  0.00     0.029 A 
ENDBRANCH   5   8
ENDBRANCH   1   2
BRANCH   1  15
HETATM   15  C   UNK N   1      34.596  17.122   8.986  0.00  0.00     0.052 C 
BRANCH  15  16
HETATM   16  C   UNK N   1      33.903  17.751   7.782  0.00  0.00     0.156 C 
BRANCH  16  17
HETATM   17  N   UNK N   1      32.465  17.706   7.954  0.00  0.00    -0.240 N 
HETATM   18  N   UNK N   1      31.811  18.179   9.012  0.00  0.00    -0.279 N 
HETATM   19  C   UNK N   1      30.501  17.957   8.772  0.00  0.00     0.130 A 
ATOM     20  HN  UNK N   1      32.219  18.620   9.837  1.00  0.00     0.189 HD
HETATM   21  N   UNK N   1      30.309  17.349   7.587  0.00  0.00    -0.258 N 
HETATM   22  C   UNK N   1      29.429  18.294   9.590  0.00  0.00     0.050 A 
HETATM   23  C   UNK N   1      31.553  17.197   7.091  0.00  0.00     0.349 A 
HETATM   24  C   UNK N   1      29.092  17.017   7.100  0.00  0.00     0.103 A 
HETATM   25  O   UNK N   1      31.818  16.681   6.017  0.00  0.00    -0.244 OA
HETATM   26  C   UNK N   1      27.967  17.330   7.879  0.00  0.00     0.018 A 
HETATM   27  C   UNK N   1      28.140  17.971   9.125  0.00  0.00     0.005 A 
ENDBRANCH  16  17
ENDBRANCH  15  16
ENDBRANCH   1  15
TORSDOF 5
ENDMDL
MODEL 3
REMARK VINA RESULT:      -7.4      1.628      2.438
REMARK  5 active torsions:
REMARK  status: ('A' for Active; 'I' for Inactive)
REMARK    1  A    between atoms: N_3  and  C_13 
REMARK    2  A    between atoms: N_4  and  C_16 
REMARK    3  A    between atoms: N_5  and  C_15 
REMARK    4  A    between atoms: C_13  and  C_14 
REMARK    5  A    between atoms: C_14  and  C_15 
ROOT
HETATM    1  C   UNK N   1      35.515  15.177   9.899  0.00  0.00     0.274 C 
ENDROOT
BRANCH   1   2
HETATM    2  N   UNK N   1      34.636  15.764   8.877  0.00  0.00     0.091 N 
HETATM    3  C   UNK N   1      33.433  14.917   8.775  0.00  0.00     0.292 C 
HETATM    4  C   UNK N   1      32.128  15.707   8.727  0.00  0.00     0.153 C 
HETATM    5  N   UNK N   1      32.299  16.866   7.880  0.00  0.00    -0.377 N 
HETATM    6  C   UNK N   1      33.396  17.779   8.138  0.00  0.00     0.153 C 
HETATM    7  C   UNK N   1      34.377  17.193   9.142  0.00  0.00     0.292 C 
BRANCH   5   8
HETATM    8  C   UNK N   1      31.494  17.040   6.720  0.00  0.00     0.031 A 
HETATM    9  C   UNK N   1      32.060  16.967   5.436  0.00  0.00     0.053 A 
HETATM   10  C   UNK N   1      31.276  17.200   4.305  0.00  0.00     0.036 A 
HETATM   11 Cl   UNK N   1      31.999  17.149   2.713  0.00  0.00    -0.084 Cl
HETATM   12  C   UNK N   1      29.918  17.498   4.443  0.00  0.00     0.024 A 
HETATM   13  C   UNK N   1      29.342  17.562   5.713  0.00  0.00     0.004 A 
HETATM   14  C   UNK N   1      30.128  17.344   6.846  0.00  0.00     0.029 A 
ENDBRANCH   5   8
ENDBRANCH   1   2
BRANCH   1  15
HETATM   15  C   UNK N   1      34.932  15.171  11.324  0.00  0.00     0.052 C 
BRANCH  15  16
HETATM   16  C   UNK N   1      36.005  15.013  12.395  0.00  0.00     0.156 C 
BRANCH  16  17
HETATM   17  N   UNK N   1      35.662  13.924  13.288  0.00  0.00    -0.240 N 
HETATM   18  N   UNK N   1      34.807  12.947  13.000  0.00  0.00    -0.279 N 
HETATM   19  C   UNK N   1      34.784  12.138  14.081  0.00  0.00     0.130 A 
ATOM     20  HN  UNK N   1      34.276  12.831  12.136  1.00  0.00     0.189 HD
HETATM   21  N   UNK N   1      35.603  12.584  15.052  0.00  0.00    -0.258 N 
HETATM   22  C   UNK N   1      34.045  10.972  14.243  0.00  0.00     0.050 A 
HETATM   23  C   UNK N   1      36.142  13.707  14.537  0.00  0.00     0.349 A 
HETATM   24  C   UNK N   1      35.774  11.958  16.239  0.00  0.00     0.103 A 
HETATM   25  O   UNK N   1      36.948  14.420  15.109  0.00  0.00    -0.244 OA
HETATM   26  C   UNK N   1      35.054  10.775  16.464  0.00  0.00     0.018 A 
HETATM   27  C   UNK N   1      34.191  10.283  15.461  0.00  0.00     0.005 A 
ENDBRANCH  16  17
ENDBRANCH  15  16
ENDBRANCH   1  15
TORSDOF 5
ENDMDL
MODEL 4
REMARK VINA RESULT:      -7.3      2.092      3.129
REMARK  5 active torsions:
REMARK  status: ('A' for Active; 'I' for Inactive)
REMARK    1  A    between atoms: N_3  and  C_13 
REMARK    2  A    between atoms: N_4  and  C_16 
REMARK    3  A    between atoms: N_5  and  C_15 
REMARK    4  A    between atoms: C_13  and  C_14 
REMARK    5  A    between atoms: C_14  and  C_15 
ROOT
HETATM    1  C   UNK N   1      35.631  15.087   9.253  0.00  0.00     0.274 C 
ENDROOT
BRANCH   1   2
HETATM    2  N   UNK N   1      34.240  15.479   8.983  0.00  0.00     0.091 N 
HETATM    3  C   UNK N   1      34.115  16.922   9.262  0.00  0.00     0.292 C 
HETATM    4  C   UNK N   1      33.346  17.690   8.191  0.00  0.00     0.153 C 
HETATM    5  N   UNK N   1      32.205  16.910   7.766  0.00  0.00    -0.377 N 
HETATM    6  C   UNK N   1      32.404  15.545   7.318  0.00  0.00     0.153 C 
HETATM    7  C   UNK N   1      33.812  15.062   7.634  0.00  0.00     0.292 C 
BRANCH   5   8
HETATM    8  C   UNK N   1      30.884  17.418   7.916  0.00  0.00     0.031 A 
HETATM    9  C   UNK N   1      29.875  17.070   7.004  0.00  0.00     0.053 A 
HETATM   10  C   UNK N   1      28.596  17.621   7.122  0.00  0.00     0.036 A 
HETATM   11 Cl   UNK N   1      27.358  17.215   5.955  0.00  0.00    -0.084 Cl
HETATM   12  C   UNK N   1      28.312  18.515   8.157  0.00  0.00     0.024 A 
HETATM   13  C   UNK N   1      29.305  18.858   9.077  0.00  0.00     0.004 A 
HETATM   14  C   UNK N   1      30.587  18.319   8.952  0.00  0.00     0.029 A 
ENDBRANCH   5   8
ENDBRANCH   1   2
BRANCH   1  15
HETATM   15  C   UNK N   1      35.805  14.078  10.402  0.00  0.00     0.052 C 
BRANCH  15  16
HETATM   16  C   UNK N   1      35.828  14.749  11.772  0.00  0.00     0.156 C 
BRANCH  16  17
HETATM   17  N   UNK N   1      35.526  13.781  12.807  0.00  0.00    -0.240 N 
HETATM   18  N   UNK N   1      34.735  12.723  12.649  0.00  0.00    -0.279 N 
HETATM   19  C   UNK N   1      34.732  12.077  13.835  0.00  0.00     0.130 A 
ATOM     20  HN  UNK N   1      34.233  12.453  11.802  1.00  0.00     0.189 HD
HETATM   21  N   UNK N   1      35.500  12.706  14.744  0.00  0.00    -0.258 N 
HETATM   22  C   UNK N   1      34.057  10.904  14.152  0.00  0.00     0.050 A 
HETATM   23  C   UNK N   1      35.986  13.774  14.082  0.00  0.00     0.349 A 
HETATM   24  C   UNK N   1      35.677  12.268  16.012  0.00  0.00     0.103 A 
HETATM   25  O   UNK N   1      36.736  14.609  14.558  0.00  0.00    -0.244 OA
HETATM   26  C   UNK N   1      35.021  11.088  16.394  0.00  0.00     0.018 A 
HETATM   27  C   UNK N   1      34.212  10.407  15.459  0.00  0.00     0.005 A 
ENDBRANCH  16  17
ENDBRANCH  15  16
ENDBRANCH   1  15
TORSDOF 5
ENDMDL
MODEL 5
REMARK VINA RESULT:      -7.3      3.890      9.972
REMARK  5 active torsions:
REMARK  status: ('A' for Active; 'I' for Inactive)
REMARK    1  A    between atoms: N_3  and  C_13 
REMARK    2  A    between atoms: N_4  and  C_16 
REMARK    3  A    between atoms: N_5  and  C_15 
REMARK    4  A    between atoms: C_13  and  C_14 
REMARK    5  A    between atoms: C_14  and  C_15 
ROOT
HETATM    1  C   UNK N   1      34.316  14.819   9.959  0.00  0.00     0.274 C 
ENDROOT
BRANCH   1   2
HETATM    2  N   UNK N   1      34.640  14.325  11.306  0.00  0.00     0.091 N 
HETATM    3  C   UNK N   1      34.879  12.873  11.209  0.00  0.00     0.292 C 
HETATM    4  C   UNK N   1      36.114  12.403  11.972  0.00  0.00     0.153 C 
HETATM    5  N   UNK N   1      36.183  13.087  13.244  0.00  0.00    -0.377 N 
HETATM    6  C   UNK N   1      36.132  14.536  13.275  0.00  0.00     0.153 C 
HETATM    7  C   UNK N   1      35.735  15.102  11.919  0.00  0.00     0.292 C 
BRANCH   5   8
HETATM    8  C   UNK N   1      36.157  12.354  14.463  0.00  0.00     0.031 A 
HETATM    9  C   UNK N   1      35.646  12.933  15.637  0.00  0.00     0.053 A 
HETATM   10  C   UNK N   1      35.681  12.230  16.843  0.00  0.00     0.036 A 
HETATM   11 Cl   UNK N   1      35.082  12.975  18.307  0.00  0.00    -0.084 Cl
HETATM   12  C   UNK N   1      36.216  10.940  16.887  0.00  0.00     0.024 A 
HETATM   13  C   UNK N   1      36.716  10.351  15.724  0.00  0.00     0.004 A 
HETATM   14  C   UNK N   1      36.695  11.058  14.520  0.00  0.00     0.029 A 
ENDBRANCH   5   8
ENDBRANCH   1   2
BRANCH   1  15
HETATM   15  C   UNK N   1      35.278  15.893   9.420  0.00  0.00     0.052 C 
BRANCH  15  16
HETATM   16  C   UNK N   1      34.634  17.274   9.350  0.00  0.00     0.156 C 
BRANCH  16  17
HETATM   17  N   UNK N   1      33.525  17.261   8.417  0.00  0.00    -0.240 N 
HETATM   18  N   UNK N   1      32.244  17.157   8.762  0.00  0.00    -0.279 N 
HETATM   19  C   UNK N   1      31.541  17.201   7.610  0.00  0.00     0.130 A 
ATOM     20  HN  UNK N   1      31.869  17.064   9.707  1.00  0.00     0.189 HD
HETATM   21  N   UNK N   1      32.349  17.325   6.541  0.00  0.00    -0.258 N 
HETATM   22  C   UNK N   1      30.160  17.141   7.466  0.00  0.00     0.050 A 
HETATM   23  C   UNK N   1      33.589  17.358   7.067  0.00  0.00     0.349 A 
HETATM   24  C   UNK N   1      31.903  17.399   5.266  0.00  0.00     0.103 A 
HETATM   25  O   UNK N   1      34.618  17.465   6.422  0.00  0.00    -0.244 OA
HETATM   26  C   UNK N   1      30.517  17.344   5.052  0.00  0.00     0.018 A 
HETATM   27  C   UNK N   1      29.647  17.217   6.157  0.00  0.00     0.005 A 
ENDBRANCH  16  17
ENDBRANCH  15  16
ENDBRANCH   1  15
TORSDOF 5
ENDMDL
MODEL 6
REMARK VINA RESULT:      -7.1      3.132      4.758
REMARK  5 active torsions:
REMARK  status: ('A' for Active; 'I' for Inactive)
REMARK    1  A    between atoms: N_3  and  C_13 
REMARK    2  A    between atoms: N_4  and  C_16 
REMARK    3  A    between atoms: N_5  and  C_15 
REMARK    4  A    between atoms: C_13  and  C_14 
REMARK    5  A    between atoms: C_14  and  C_15 
ROOT
HETATM    1  C   UNK N   1      32.301  16.206   8.713  0.00  0.00     0.274 C 
ENDROOT
BRANCH   1   2
HETATM    2  N   UNK N   1      31.290  17.144   8.203  0.00  0.00     0.091 N 
HETATM    3  C   UNK N   1      31.030  16.804   6.791  0.00  0.00     0.292 C 
HETATM    4  C   UNK N   1      29.548  16.779   6.429  0.00  0.00     0.153 C 
HETATM    5  N   UNK N   1      28.879  17.893   7.064  0.00  0.00    -0.377 N 
HETATM    6  C   UNK N   1      29.013  18.079   8.496  0.00  0.00     0.153 C 
HETATM    7  C   UNK N   1      30.096  17.178   9.070  0.00  0.00     0.292 C 
BRANCH   5   8
HETATM    8  C   UNK N   1      28.214  18.879   6.283  0.00  0.00     0.031 A 
HETATM    9  C   UNK N   1      27.546  19.950   6.898  0.00  0.00     0.053 A 
HETATM   10  C   UNK N   1      26.843  20.880   6.128  0.00  0.00     0.036 A 
HETATM   11 Cl   UNK N   1      25.978  22.185   6.907  0.00  0.00    -0.084 Cl
HETATM   12  C   UNK N   1      26.811  20.754   4.737  0.00  0.00     0.024 A 
HETATM   13  C   UNK N   1      27.482  19.701   4.114  0.00  0.00     0.004 A 
HETATM   14  C   UNK N   1      28.173  18.763   4.883  0.00  0.00     0.029 A 
ENDBRANCH   5   8
ENDBRANCH   1   2
BRANCH   1  15
HETATM   15  C   UNK N   1      33.306  15.707   7.660  0.00  0.00     0.052 C 
BRANCH  15  16
HETATM   16  C   UNK N   1      34.754  15.961   8.067  0.00  0.00     0.156 C 
BRANCH  16  17
HETATM   17  N   UNK N   1      35.027  15.347   9.350  0.00  0.00    -0.240 N 
HETATM   18  N   UNK N   1      34.898  14.049   9.614  0.00  0.00    -0.279 N 
HETATM   19  C   UNK N   1      35.263  13.891  10.905  0.00  0.00     0.130 A 
ATOM     20  HN  UNK N   1      34.585  13.321   8.971  1.00  0.00     0.189 HD
HETATM   21  N   UNK N   1      35.617  15.061  11.467  0.00  0.00    -0.258 N 
HETATM   22  C   UNK N   1      35.305  12.704  11.626  0.00  0.00     0.050 A 
HETATM   23  C   UNK N   1      35.459  15.962  10.478  0.00  0.00     0.349 A 
HETATM   24  C   UNK N   1      36.031  15.185  12.749  0.00  0.00     0.103 A 
HETATM   25  O   UNK N   1      35.680  17.157  10.580  0.00  0.00    -0.244 OA
HETATM   26  C   UNK N   1      36.094  14.022  13.532  0.00  0.00     0.018 A 
HETATM   27  C   UNK N   1      35.731  12.781  12.965  0.00  0.00     0.005 A 
ENDBRANCH  16  17
ENDBRANCH  15  16
ENDBRANCH   1  15
TORSDOF 5
ENDMDL
MODEL 7
REMARK VINA RESULT:      -6.8      2.116      2.988
REMARK  5 active torsions:
REMARK  status: ('A' for Active; 'I' for Inactive)
REMARK    1  A    between atoms: N_3  and  C_13 
REMARK    2  A    between atoms: N_4  and  C_16 
REMARK    3  A    between atoms: N_5  and  C_15 
REMARK    4  A    between atoms: C_13  and  C_14 
REMARK    5  A    between atoms: C_14  and  C_15 
ROOT
HETATM    1  C   UNK N   1      36.375  14.810  10.845  0.00  0.00     0.274 C 
ENDROOT
BRANCH   1   2
HETATM    2  N   UNK N   1      35.186  15.121  10.038  0.00  0.00     0.091 N 
HETATM    3  C   UNK N   1      34.866  16.546  10.237  0.00  0.00     0.292 C 
HETATM    4  C   UNK N   1      34.543  17.289   8.944  0.00  0.00     0.153 C 
HETATM    5  N   UNK N   1      33.721  16.449   8.100  0.00  0.00    -0.377 N 
HETATM    6  C   UNK N   1      34.172  15.110   7.776  0.00  0.00     0.153 C 
HETATM    7  C   UNK N   1      35.364  14.708   8.632  0.00  0.00     0.292 C 
BRANCH   5   8
HETATM    8  C   UNK N   1      32.421  16.871   7.705  0.00  0.00     0.031 A 
HETATM    9  C   UNK N   1      31.541  17.448   8.636  0.00  0.00     0.053 A 
HETATM   10  C   UNK N   1      30.245  17.803   8.255  0.00  0.00     0.036 A 
HETATM   11 Cl   UNK N   1      29.143  18.481   9.432  0.00  0.00    -0.084 Cl
HETATM   12  C   UNK N   1      29.819  17.595   6.941  0.00  0.00     0.024 A 
HETATM   13  C   UNK N   1      30.689  17.033   6.005  0.00  0.00     0.004 A 
HETATM   14  C   UNK N   1      31.980  16.665   6.387  0.00  0.00     0.029 A 
ENDBRANCH   5   8
ENDBRANCH   1   2
BRANCH   1  15
HETATM   15  C   UNK N   1      36.148  13.762  11.950  0.00  0.00     0.052 C 
BRANCH  15  16
HETATM   16  C   UNK N   1      36.246  14.358  13.351  0.00  0.00     0.156 C 
BRANCH  16  17
HETATM   17  N   UNK N   1      35.898  13.361  14.343  0.00  0.00    -0.240 N 
HETATM   18  N   UNK N   1      35.358  12.176  14.071  0.00  0.00    -0.279 N 
HETATM   19  C   UNK N   1      35.208  11.551  15.259  0.00  0.00     0.130 A 
ATOM     20  HN  UNK N   1      35.108  11.813  13.151  1.00  0.00     0.189 HD
HETATM   21  N   UNK N   1      35.636  12.317  16.279  0.00  0.00    -0.258 N 
HETATM   22  C   UNK N   1      34.695  10.279  15.480  0.00  0.00     0.050 A 
HETATM   23  C   UNK N   1      36.062  13.449  15.685  0.00  0.00     0.349 A 
HETATM   24  C   UNK N   1      35.605  11.930  17.575  0.00  0.00     0.103 A 
HETATM   25  O   UNK N   1      36.533  14.410  16.270  0.00  0.00    -0.244 OA
HETATM   26  C   UNK N   1      35.097  10.654  17.865  0.00  0.00     0.018 A 
HETATM   27  C   UNK N   1      34.644   9.829  16.813  0.00  0.00     0.005 A 
ENDBRANCH  16  17
ENDBRANCH  15  16
ENDBRANCH   1  15
TORSDOF 5
ENDMDL
MODEL 8
REMARK VINA RESULT:      -6.7      4.095     10.499
REMARK  5 active torsions:
REMARK  status: ('A' for Active; 'I' for Inactive)
REMARK    1  A    between atoms: N_3  and  C_13 
REMARK    2  A    between atoms: N_4  and  C_16 
REMARK    3  A    between atoms: N_5  and  C_15 
REMARK    4  A    between atoms: C_13  and  C_14 
REMARK    5  A    between atoms: C_14  and  C_15 
ROOT
HETATM    1  C   UNK N   1      35.093  13.094  10.449  0.00  0.00     0.274 C 
ENDROOT
BRANCH   1   2
HETATM    2  N   UNK N   1      35.113  13.144  11.919  0.00  0.00     0.091 N 
HETATM    3  C   UNK N   1      35.352  11.775  12.413  0.00  0.00     0.292 C 
HETATM    4  C   UNK N   1      36.389  11.698  13.531  0.00  0.00     0.153 C 
HETATM    5  N   UNK N   1      36.190  12.800  14.447  0.00  0.00    -0.377 N 
HETATM    6  C   UNK N   1      36.150  14.154  13.932  0.00  0.00     0.153 C 
HETATM    7  C   UNK N   1      36.060  14.163  12.413  0.00  0.00     0.292 C 
BRANCH   5   8
HETATM    8  C   UNK N   1      35.895  12.557  15.818  0.00  0.00     0.031 A 
HETATM    9  C   UNK N   1      35.882  11.248  16.327  0.00  0.00     0.053 A 
HETATM   10  C   UNK N   1      35.531  11.013  17.659  0.00  0.00     0.036 A 
HETATM   11 Cl   UNK N   1      35.476   9.376  18.272  0.00  0.00    -0.084 Cl
HETATM   12  C   UNK N   1      35.200  12.082  18.495  0.00  0.00     0.024 A 
HETATM   13  C   UNK N   1      35.221  13.387  18.002  0.00  0.00     0.004 A 
HETATM   14  C   UNK N   1      35.557  13.623  16.668  0.00  0.00     0.029 A 
ENDBRANCH   5   8
ENDBRANCH   1   2
BRANCH   1  15
HETATM   15  C   UNK N   1      34.576  14.375   9.769  0.00  0.00     0.052 C 
BRANCH  15  16
HETATM   16  C   UNK N   1      35.605  14.996   8.831  0.00  0.00     0.156 C 
BRANCH  16  17
HETATM   17  N   UNK N   1      34.971  15.404   7.594  0.00  0.00    -0.240 N 
HETATM   18  N   UNK N   1      34.431  16.600   7.375  0.00  0.00    -0.279 N 
HETATM   19  C   UNK N   1      33.969  16.576   6.106  0.00  0.00     0.130 A 
ATOM     20  HN  UNK N   1      34.377  17.378   8.034  1.00  0.00     0.189 HD
HETATM   21  N   UNK N   1      34.200  15.389   5.517  0.00  0.00    -0.258 N 
HETATM   22  C   UNK N   1      33.335  17.607   5.424  0.00  0.00     0.050 A 
HETATM   23  C   UNK N   1      34.826  14.666   6.466  0.00  0.00     0.349 A 
HETATM   24  C   UNK N   1      33.844  15.099   4.244  0.00  0.00     0.103 A 
HETATM   25  O   UNK N   1      35.212  13.517   6.329  0.00  0.00    -0.244 OA
HETATM   26  C   UNK N   1      33.199  16.099   3.501  0.00  0.00     0.018 A 
HETATM   27  C   UNK N   1      32.947  17.355   4.095  0.00  0.00     0.005 A 
ENDBRANCH  16  17
ENDBRANCH  15  16
ENDBRANCH   1  15
TORSDOF 5
ENDMDL
MODEL 9
REMARK VINA RESULT:      -6.6      1.836      2.254
REMARK  5 active torsions:
REMARK  status: ('A' for Active; 'I' for Inactive)
REMARK    1  A    between atoms: N_3  and  C_13 
REMARK    2  A    between atoms: N_4  and  C_16 
REMARK    3  A    between atoms: N_5  and  C_15 
REMARK    4  A    between atoms: C_13  and  C_14 
REMARK    5  A    between atoms: C_14  and  C_15 
ROOT
HETATM    1  C   UNK N   1      35.418  13.086   8.930  0.00  0.00     0.274 C 
ENDROOT
BRANCH   1   2
HETATM    2  N   UNK N   1      34.489  14.075   8.363  0.00  0.00     0.091 N 
HETATM    3  C   UNK N   1      33.135  13.753   8.850  0.00  0.00     0.292 C 
HETATM    4  C   UNK N   1      32.351  14.971   9.332  0.00  0.00     0.153 C 
HETATM    5  N   UNK N   1      32.576  16.076   8.427  0.00  0.00    -0.377 N 
HETATM    6  C   UNK N   1      33.935  16.480   8.123  0.00  0.00     0.153 C 
HETATM    7  C   UNK N   1      34.940  15.455   8.629  0.00  0.00     0.292 C 
BRANCH   5   8
HETATM    8  C   UNK N   1      31.490  16.675   7.730  0.00  0.00     0.031 A 
HETATM    9  C   UNK N   1      30.473  17.347   8.428  0.00  0.00     0.053 A 
HETATM   10  C   UNK N   1      29.379  17.879   7.742  0.00  0.00     0.036 A 
HETATM   11 Cl   UNK N   1      28.097  18.677   8.625  0.00  0.00    -0.084 Cl
HETATM   12  C   UNK N   1      29.294  17.752   6.354  0.00  0.00     0.024 A 
HETATM   13  C   UNK N   1      30.304  17.096   5.649  0.00  0.00     0.004 A 
HETATM   14  C   UNK N   1      31.392  16.552   6.334  0.00  0.00     0.029 A 
ENDBRANCH   5   8
ENDBRANCH   1   2
BRANCH   1  15
HETATM   15  C   UNK N   1      35.064  12.610  10.350  0.00  0.00     0.052 C 
BRANCH  15  16
HETATM   16  C   UNK N   1      36.292  12.181  11.147  0.00  0.00     0.156 C 
BRANCH  16  17
HETATM   17  N   UNK N   1      36.132  12.540  12.541  0.00  0.00    -0.240 N 
HETATM   18  N   UNK N   1      36.904  13.404  13.196  0.00  0.00    -0.279 N 
HETATM   19  C   UNK N   1      36.414  13.466  14.453  0.00  0.00     0.130 A 
ATOM     20  HN  UNK N   1      37.705  13.916  12.824  1.00  0.00     0.189 HD
HETATM   21  N   UNK N   1      35.351  12.656  14.611  0.00  0.00    -0.258 N 
HETATM   22  C   UNK N   1      36.885  14.247  15.501  0.00  0.00     0.050 A 
HETATM   23  C   UNK N   1      35.191  12.082  13.403  0.00  0.00     0.349 A 
HETATM   24  C   UNK N   1      34.665  12.532  15.771  0.00  0.00     0.103 A 
HETATM   25  O   UNK N   1      34.323  11.273  13.123  0.00  0.00    -0.244 OA
HETATM   26  C   UNK N   1      35.092  13.295  16.869  0.00  0.00     0.018 A 
HETATM   27  C   UNK N   1      36.203  14.155  16.729  0.00  0.00     0.005 A 
ENDBRANCH  16  17
ENDBRANCH  15  16
ENDBRANCH   1  15
TORSDOF 5
ENDMDL
