MODEL 1
REMARK VINA RESULT:      -4.6      0.000      0.000
REMARK  1 active torsions:
REMARK  status: ('A' for Active; 'I' for Inactive)
REMARK    1  A    between atoms: N_1  and  C_3 
ROOT
HETATM    1  C   UNK N   1      26.879  27.218  -6.310  0.00  0.00    -0.019 C 
HETATM    2  C   UNK N   1      27.552  26.150  -5.364  0.00  0.00     0.032 C 
HETATM    3  C   UNK N   1      25.428  27.275  -5.780  0.00  0.00    -0.004 C 
HETATM    4  C   UNK N   1      26.408  25.844  -4.368  0.00  0.00     0.014 C 
HETATM    5  C   UNK N   1      25.218  25.861  -5.297  0.00  0.00     0.012 C 
HETATM    6  C   UNK N   1      25.396  28.012  -4.440  0.00  0.00     0.006 C 
HETATM    7  C   UNK N   1      26.112  27.061  -3.492  0.00  0.00     0.007 C 
HETATM    8  C   UNK N   1      27.521  28.608  -6.284  0.00  0.00     0.018 C 
HETATM    9  C   UNK N   1      26.852  26.783  -7.774  0.00  0.00     0.018 C 
HETATM   10  C   UNK N   1      28.817  26.666  -4.658  0.00  0.00     0.039 C 
ENDROOT
BRANCH   2  11
HETATM   11  N   UNK N   1      27.880  24.922  -6.110  0.00  0.00    -0.416 N 
HETATM   12  C   UNK N   1      28.398  23.875  -5.228  0.00  0.00     0.140 C 
HETATM   13  H   UNK N   1      27.761  24.814  -7.117  0.00  0.00     0.153 HD
ENDBRANCH   2  11
TORSDOF 1
ENDMDL
MODEL 2
REMARK VINA RESULT:      -4.6      1.611      2.896
REMARK  1 active torsions:
REMARK  status: ('A' for Active; 'I' for Inactive)
REMARK    1  A    between atoms: N_1  and  C_3 
ROOT
HETATM    1  C   UNK N   1      26.383  26.805  -5.673  0.00  0.00    -0.019 C 
HETATM    2  C   UNK N   1      27.045  26.842  -4.242  0.00  0.00     0.032 C 
HETATM    3  C   UNK N   1      26.665  25.359  -6.141  0.00  0.00    -0.004 C 
HETATM    4  C   UNK N   1      27.506  25.375  -4.069  0.00  0.00     0.014 C 
HETATM    5  C   UNK N   1      27.983  25.067  -5.468  0.00  0.00     0.012 C 
HETATM    6  C   UNK N   1      25.765  24.385  -5.379  0.00  0.00     0.006 C 
HETATM    7  C   UNK N   1      26.304  24.439  -3.957  0.00  0.00     0.007 C 
HETATM    8  C   UNK N   1      24.881  27.102  -5.704  0.00  0.00     0.018 C 
HETATM    9  C   UNK N   1      27.035  27.776  -6.656  0.00  0.00     0.018 C 
HETATM   10  C   UNK N   1      26.080  27.284  -3.130  0.00  0.00     0.039 C 
ENDROOT
BRANCH   2  11
HETATM   11  N   UNK N   1      28.228  27.721  -4.234  0.00  0.00    -0.416 N 
HETATM   12  C   UNK N   1      28.145  28.731  -3.179  0.00  0.00     0.140 C 
HETATM   13  H   UNK N   1      29.009  27.636  -4.884  0.00  0.00     0.153 HD
ENDBRANCH   2  11
TORSDOF 1
ENDMDL
MODEL 3
REMARK VINA RESULT:      -4.5     16.469     18.001
REMARK  1 active torsions:
REMARK  status: ('A' for Active; 'I' for Inactive)
REMARK    1  A    between atoms: N_1  and  C_3 
ROOT
HETATM    1  C   UNK N   1      32.165  17.007   7.617  0.00  0.00    -0.019 C 
HETATM    2  C   UNK N   1      33.025  15.854   8.263  0.00  0.00     0.032 C 
HETATM    3  C   UNK N   1      33.230  17.856   6.885  0.00  0.00    -0.004 C 
HETATM    4  C   UNK N   1      34.436  16.161   7.706  0.00  0.00     0.014 C 
HETATM    5  C   UNK N   1      34.438  17.670   7.770  0.00  0.00     0.012 C 
HETATM    6  C   UNK N   1      33.710  17.116   5.635  0.00  0.00     0.006 C 
HETATM    7  C   UNK N   1      34.484  15.932   6.196  0.00  0.00     0.007 C 
HETATM    8  C   UNK N   1      31.078  16.543   6.643  0.00  0.00     0.018 C 
HETATM    9  C   UNK N   1      31.468  17.884   8.656  0.00  0.00     0.018 C 
HETATM   10  C   UNK N   1      32.543  14.444   7.886  0.00  0.00     0.039 C 
ENDROOT
BRANCH   2  11
HETATM   11  N   UNK N   1      33.051  15.979   9.732  0.00  0.00    -0.416 N 
HETATM   12  C   UNK N   1      33.887  14.949  10.348  0.00  0.00     0.140 C 
HETATM   13  H   UNK N   1      32.548  16.696  10.254  0.00  0.00     0.153 HD
ENDBRANCH   2  11
TORSDOF 1
ENDMDL
MODEL 4
REMARK VINA RESULT:      -4.5      1.232      2.733
REMARK  1 active torsions:
REMARK  status: ('A' for Active; 'I' for Inactive)
REMARK    1  A    between atoms: N_1  and  C_3 
ROOT
HETATM    1  C   UNK N   1      27.296  26.094  -4.729  0.00  0.00    -0.019 C 
HETATM    2  C   UNK N   1      26.674  25.513  -6.057  0.00  0.00     0.032 C 
HETATM    3  C   UNK N   1      26.894  27.585  -4.790  0.00  0.00    -0.004 C 
HETATM    4  C   UNK N   1      25.917  26.741  -6.616  0.00  0.00     0.014 C 
HETATM    5  C   UNK N   1      26.890  27.845  -6.277  0.00  0.00     0.012 C 
HETATM    6  C   UNK N   1      25.399  27.730  -4.499  0.00  0.00     0.006 C 
HETATM    7  C   UNK N   1      24.736  27.105  -5.718  0.00  0.00     0.007 C 
HETATM    8  C   UNK N   1      26.791  25.448  -3.436  0.00  0.00     0.018 C 
HETATM    9  C   UNK N   1      28.820  25.996  -4.693  0.00  0.00     0.018 C 
HETATM   10  C   UNK N   1      25.744  24.311  -5.825  0.00  0.00     0.039 C 
ENDROOT
BRANCH   2  11
HETATM   11  N   UNK N   1      27.733  25.128  -7.008  0.00  0.00    -0.416 N 
HETATM   12  C   UNK N   1      27.194  24.390  -8.150  0.00  0.00     0.140 C 
HETATM   13  H   UNK N   1      28.721  25.349  -6.885  0.00  0.00     0.153 HD
ENDBRANCH   2  11
TORSDOF 1
ENDMDL
MODEL 5
REMARK VINA RESULT:      -4.4     16.105     17.771
REMARK  1 active torsions:
REMARK  status: ('A' for Active; 'I' for Inactive)
REMARK    1  A    between atoms: N_1  and  C_3 
ROOT
HETATM    1  C   UNK N   1      33.461  17.131   7.256  0.00  0.00    -0.019 C 
HETATM    2  C   UNK N   1      32.014  16.840   7.813  0.00  0.00     0.032 C 
HETATM    3  C   UNK N   1      34.210  15.812   7.551  0.00  0.00    -0.004 C 
HETATM    4  C   UNK N   1      32.132  15.357   8.240  0.00  0.00     0.014 C 
HETATM    5  C   UNK N   1      33.529  15.343   8.813  0.00  0.00     0.012 C 
HETATM    6  C   UNK N   1      33.740  14.723   6.584  0.00  0.00     0.006 C 
HETATM    7  C   UNK N   1      32.307  14.454   7.020  0.00  0.00     0.007 C 
HETATM    8  C   UNK N   1      33.528  17.472   5.764  0.00  0.00     0.018 C 
HETATM    9  C   UNK N   1      34.163  18.271   7.991  0.00  0.00     0.018 C 
HETATM   10  C   UNK N   1      30.901  17.061   6.776  0.00  0.00     0.039 C 
ENDROOT
BRANCH   2  11
HETATM   11  N   UNK N   1      31.736  17.662   9.005  0.00  0.00    -0.416 N 
HETATM   12  C   UNK N   1      30.435  18.324   8.914  0.00  0.00     0.140 C 
HETATM   13  H   UNK N   1      32.372  17.757   9.796  0.00  0.00     0.153 HD
ENDBRANCH   2  11
TORSDOF 1
ENDMDL
MODEL 6
REMARK VINA RESULT:      -4.4     26.223     27.664
REMARK  1 active torsions:
REMARK  status: ('A' for Active; 'I' for Inactive)
REMARK    1  A    between atoms: N_1  and  C_3 
ROOT
HETATM    1  C   UNK N   1      35.031  10.781  14.920  0.00  0.00    -0.019 C 
HETATM    2  C   UNK N   1      35.615  11.990  15.747  0.00  0.00     0.032 C 
HETATM    3  C   UNK N   1      35.434   9.557  15.774  0.00  0.00    -0.004 C 
HETATM    4  C   UNK N   1      36.165  11.276  17.005  0.00  0.00     0.014 C 
HETATM    5  C   UNK N   1      36.733  10.021  16.387  0.00  0.00     0.012 C 
HETATM    6  C   UNK N   1      34.564   9.496  17.031  0.00  0.00     0.006 C 
HETATM    7  C   UNK N   1      35.024  10.698  17.843  0.00  0.00     0.007 C 
HETATM    8  C   UNK N   1      33.516  10.812  14.699  0.00  0.00     0.018 C 
HETATM    9  C   UNK N   1      35.665  10.645  13.536  0.00  0.00     0.018 C 
HETATM   10  C   UNK N   1      34.565  13.058  16.096  0.00  0.00     0.039 C 
ENDROOT
BRANCH   2  11
HETATM   11  N   UNK N   1      36.733  12.626  15.029  0.00  0.00    -0.416 N 
HETATM   12  C   UNK N   1      36.793  14.065  15.286  0.00  0.00     0.140 C 
HETATM   13  H   UNK N   1      37.386  12.125  14.427  0.00  0.00     0.153 HD
ENDBRANCH   2  11
TORSDOF 1
ENDMDL
MODEL 7
REMARK VINA RESULT:      -4.3     24.640     26.519
REMARK  1 active torsions:
REMARK  status: ('A' for Active; 'I' for Inactive)
REMARK    1  A    between atoms: N_1  and  C_3 
ROOT
HETATM    1  C   UNK N   1      35.893  12.943  14.602  0.00  0.00    -0.019 C 
HETATM    2  C   UNK N   1      36.346  11.466  14.283  0.00  0.00     0.032 C 
HETATM    3  C   UNK N   1      34.686  12.731  15.545  0.00  0.00    -0.004 C 
HETATM    4  C   UNK N   1      35.395  10.641  15.183  0.00  0.00     0.014 C 
HETATM    5  C   UNK N   1      34.117  11.431  15.034  0.00  0.00     0.012 C 
HETATM    6  C   UNK N   1      35.179  12.274  16.920  0.00  0.00     0.006 C 
HETATM    7  C   UNK N   1      35.712  10.873  16.660  0.00  0.00     0.007 C 
HETATM    8  C   UNK N   1      36.955  13.821  15.269  0.00  0.00     0.018 C 
HETATM    9  C   UNK N   1      35.422  13.702  13.363  0.00  0.00     0.018 C 
HETATM   10  C   UNK N   1      37.826  11.196  14.598  0.00  0.00     0.039 C 
ENDROOT
BRANCH   2  11
HETATM   11  N   UNK N   1      36.082  11.130  12.872  0.00  0.00    -0.416 N 
HETATM   12  C   UNK N   1      37.281  10.626  12.202  0.00  0.00     0.140 C 
HETATM   13  H   UNK N   1      35.175  11.236  12.418  0.00  0.00     0.153 HD
ENDBRANCH   2  11
TORSDOF 1
ENDMDL
MODEL 8
REMARK VINA RESULT:      -4.3     16.011     17.614
REMARK  1 active torsions:
REMARK  status: ('A' for Active; 'I' for Inactive)
REMARK    1  A    between atoms: N_1  and  C_3 
ROOT
HETATM    1  C   UNK N   1      33.498  16.391   6.455  0.00  0.00    -0.019 C 
HETATM    2  C   UNK N   1      33.713  16.880   7.939  0.00  0.00     0.032 C 
HETATM    3  C   UNK N   1      32.132  15.673   6.528  0.00  0.00    -0.004 C 
HETATM    4  C   UNK N   1      32.381  16.461   8.606  0.00  0.00     0.014 C 
HETATM    5  C   UNK N   1      32.141  15.129   7.936  0.00  0.00     0.012 C 
HETATM    6  C   UNK N   1      31.011  16.706   6.659  0.00  0.00     0.006 C 
HETATM    7  C   UNK N   1      31.216  17.281   8.053  0.00  0.00     0.007 C 
HETATM    8  C   UNK N   1      33.472  17.501   5.400  0.00  0.00     0.018 C 
HETATM    9  C   UNK N   1      34.557  15.389   6.000  0.00  0.00     0.018 C 
HETATM   10  C   UNK N   1      33.973  18.391   8.056  0.00  0.00     0.039 C 
ENDROOT
BRANCH   2  11
HETATM   11  N   UNK N   1      34.821  16.147   8.578  0.00  0.00    -0.416 N 
HETATM   12  C   UNK N   1      35.049  16.599   9.950  0.00  0.00     0.140 C 
HETATM   13  H   UNK N   1      35.362  15.415   8.119  0.00  0.00     0.153 HD
ENDBRANCH   2  11
TORSDOF 1
ENDMDL
MODEL 9
REMARK VINA RESULT:      -4.3     25.858     27.254
REMARK  1 active torsions:
REMARK  status: ('A' for Active; 'I' for Inactive)
REMARK    1  A    between atoms: N_1  and  C_3 
ROOT
HETATM    1  C   UNK N   1      35.762  10.849  16.102  0.00  0.00    -0.019 C 
HETATM    2  C   UNK N   1      36.046  12.019  15.083  0.00  0.00     0.032 C 
HETATM    3  C   UNK N   1      34.512  10.169  15.498  0.00  0.00    -0.004 C 
HETATM    4  C   UNK N   1      34.979  11.757  13.994  0.00  0.00     0.014 C 
HETATM    5  C   UNK N   1      33.807  11.335  14.849  0.00  0.00     0.012 C 
HETATM    6  C   UNK N   1      34.906   9.378  14.249  0.00  0.00     0.006 C 
HETATM    7  C   UNK N   1      35.276  10.460  13.244  0.00  0.00     0.007 C 
HETATM    8  C   UNK N   1      36.901   9.839  16.269  0.00  0.00     0.018 C 
HETATM    9  C   UNK N   1      35.421  11.349  17.504  0.00  0.00     0.018 C 
HETATM   10  C   UNK N   1      37.474  12.005  14.515  0.00  0.00     0.039 C 
ENDROOT
BRANCH   2  11
HETATM   11  N   UNK N   1      35.786  13.330  15.705  0.00  0.00    -0.416 N 
HETATM   12  C   UNK N   1      36.864  14.281  15.435  0.00  0.00     0.140 C 
HETATM   13  H   UNK N   1      34.956  13.548  16.256  0.00  0.00     0.153 HD
ENDBRANCH   2  11
TORSDOF 1
ENDMDL
