MODEL 1
REMARK VINA RESULT:      -2.8      0.000      0.000
REMARK  3 active torsions:
REMARK  status: ('A' for Active; 'I' for Inactive)
REMARK    1  A    between atoms: N_3  and  C_7 
REMARK    2  A    between atoms: C_4  and  C_6 
REMARK    3  A    between atoms: C_7  and  C_8 
ROOT
HETATM    1  O   UNK N   1      20.166  13.042  10.308  0.00  0.00    -0.380 OA
HETATM    2  C   UNK N   1      21.182  12.318  11.021  0.00  0.00     0.159 A 
HETATM    3  C   UNK N   1      21.427  13.441  10.030  0.00  0.00     0.201 A 
ENDROOT
BRANCH   2   4
HETATM    4  C   UNK N   1      22.681  12.232  11.193  0.00  0.00     0.148 C 
HETATM    5 Cl   UNK N   1      23.060  11.850  12.888  0.00  0.00    -0.128 Cl
ENDBRANCH   2   4
TORSDOF 3
ENDMDL
MODEL 2
REMARK VINA RESULT:      -2.7     18.851     19.288
REMARK  3 active torsions:
REMARK  status: ('A' for Active; 'I' for Inactive)
REMARK    1  A    between atoms: N_3  and  C_7 
REMARK    2  A    between atoms: C_4  and  C_6 
REMARK    3  A    between atoms: C_7  and  C_8 
ROOT
HETATM    1  O   UNK N   1      30.563  22.911  -1.495  0.00  0.00    -0.380 OA
HETATM    2  C   UNK N   1      29.317  23.151  -2.170  0.00  0.00     0.159 A 
HETATM    3  C   UNK N   1      30.698  23.378  -2.757  0.00  0.00     0.201 A 
ENDROOT
BRANCH   2   4
HETATM    4  C   UNK N   1      28.751  23.633  -3.485  0.00  0.00     0.148 C 
HETATM    5 Cl   UNK N   1      27.059  24.128  -3.254  0.00  0.00    -0.128 Cl
ENDBRANCH   2   4
TORSDOF 3
ENDMDL
MODEL 3
REMARK VINA RESULT:      -2.7      2.826      3.290
REMARK  3 active torsions:
REMARK  status: ('A' for Active; 'I' for Inactive)
REMARK    1  A    between atoms: N_3  and  C_7 
REMARK    2  A    between atoms: C_4  and  C_6 
REMARK    3  A    between atoms: C_7  and  C_8 
ROOT
HETATM    1  O   UNK N   1      24.414  11.950  12.038  0.00  0.00    -0.380 OA
HETATM    2  C   UNK N   1      23.289  12.167  11.170  0.00  0.00     0.159 A 
HETATM    3  C   UNK N   1      23.216  11.890  12.660  0.00  0.00     0.201 A 
ENDROOT
BRANCH   2   4
HETATM    4  C   UNK N   1      21.780  12.238  11.176  0.00  0.00     0.148 C 
HETATM    5 Cl   UNK N   1      21.244  13.516  10.061  0.00  0.00    -0.128 Cl
ENDBRANCH   2   4
TORSDOF 3
ENDMDL
MODEL 4
REMARK VINA RESULT:      -2.6     18.923     19.287
REMARK  3 active torsions:
REMARK  status: ('A' for Active; 'I' for Inactive)
REMARK    1  A    between atoms: N_3  and  C_7 
REMARK    2  A    between atoms: C_4  and  C_6 
REMARK    3  A    between atoms: C_7  and  C_8 
ROOT
HETATM    1  O   UNK N   1      30.468  23.057  -1.402  0.00  0.00    -0.380 OA
HETATM    2  C   UNK N   1      30.824  22.469  -2.664  0.00  0.00     0.159 A 
HETATM    3  C   UNK N   1      29.433  22.923  -2.261  0.00  0.00     0.201 A 
ENDROOT
BRANCH   2   4
HETATM    4  C   UNK N   1      30.232  22.052  -3.990  0.00  0.00     0.148 C 
HETATM    5 Cl   UNK N   1      31.038  20.572  -4.557  0.00  0.00    -0.128 Cl
ENDBRANCH   2   4
TORSDOF 3
ENDMDL
MODEL 5
REMARK VINA RESULT:      -2.6     12.829     13.155
REMARK  3 active torsions:
REMARK  status: ('A' for Active; 'I' for Inactive)
REMARK    1  A    between atoms: N_3  and  C_7 
REMARK    2  A    between atoms: C_4  and  C_6 
REMARK    3  A    between atoms: C_7  and  C_8 
ROOT
HETATM    1  O   UNK N   1      34.619  18.316   7.179  0.00  0.00    -0.380 OA
HETATM    2  C   UNK N   1      33.440  18.210   7.994  0.00  0.00     0.159 A 
HETATM    3  C   UNK N   1      33.810  17.284   6.850  0.00  0.00     0.201 A 
ENDROOT
BRANCH   2   4
HETATM    4  C   UNK N   1      32.196  17.373   8.182  0.00  0.00     0.148 C 
HETATM    5 Cl   UNK N   1      30.897  18.387   8.852  0.00  0.00    -0.128 Cl
ENDBRANCH   2   4
TORSDOF 3
ENDMDL
MODEL 6
REMARK VINA RESULT:      -2.5     14.513     15.042
REMARK  3 active torsions:
REMARK  status: ('A' for Active; 'I' for Inactive)
REMARK    1  A    between atoms: N_3  and  C_7 
REMARK    2  A    between atoms: C_4  and  C_6 
REMARK    3  A    between atoms: C_7  and  C_8 
ROOT
HETATM    1  O   UNK N   1      34.990  13.567  13.403  0.00  0.00    -0.380 OA
HETATM    2  C   UNK N   1      36.126  14.134  14.077  0.00  0.00     0.159 A 
HETATM    3  C   UNK N   1      35.245  13.021  14.613  0.00  0.00     0.201 A 
ENDROOT
BRANCH   2   4
HETATM    4  C   UNK N   1      36.927  14.025  15.353  0.00  0.00     0.148 C 
HETATM    5 Cl   UNK N   1      37.443  15.648  15.867  0.00  0.00    -0.128 Cl
ENDBRANCH   2   4
TORSDOF 3
ENDMDL
MODEL 7
REMARK VINA RESULT:      -2.4     11.358     11.688
REMARK  3 active torsions:
REMARK  status: ('A' for Active; 'I' for Inactive)
REMARK    1  A    between atoms: N_3  and  C_7 
REMARK    2  A    between atoms: C_4  and  C_6 
REMARK    3  A    between atoms: C_7  and  C_8 
ROOT
HETATM    1  O   UNK N   1      24.882  20.759   1.941  0.00  0.00    -0.380 OA
HETATM    2  C   UNK N   1      25.778  20.483   3.029  0.00  0.00     0.159 A 
HETATM    3  C   UNK N   1      24.263  20.493   3.113  0.00  0.00     0.201 A 
ENDROOT
BRANCH   2   4
HETATM    4  C   UNK N   1      25.791  20.134   4.499  0.00  0.00     0.148 C 
HETATM    5 Cl   UNK N   1      27.189  20.910   5.278  0.00  0.00    -0.128 Cl
ENDBRANCH   2   4
TORSDOF 3
ENDMDL
MODEL 8
REMARK VINA RESULT:      -2.4     21.552     21.979
REMARK  3 active torsions:
REMARK  status: ('A' for Active; 'I' for Inactive)
REMARK    1  A    between atoms: N_3  and  C_7 
REMARK    2  A    between atoms: C_4  and  C_6 
REMARK    3  A    between atoms: C_7  and  C_8 
ROOT
HETATM    1  O   UNK N   1      26.565  28.325  -2.560  0.00  0.00    -0.380 OA
HETATM    2  C   UNK N   1      25.849  27.565  -3.548  0.00  0.00     0.159 A 
HETATM    3  C   UNK N   1      26.247  29.024  -3.672  0.00  0.00     0.201 A 
ENDROOT
BRANCH   2   4
HETATM    4  C   UNK N   1      25.225  27.688  -4.919  0.00  0.00     0.148 C 
HETATM    5 Cl   UNK N   1      25.085  26.073  -5.650  0.00  0.00    -0.128 Cl
ENDBRANCH   2   4
TORSDOF 3
ENDMDL
MODEL 9
REMARK VINA RESULT:      -2.3     20.139     20.508
REMARK  3 active torsions:
REMARK  status: ('A' for Active; 'I' for Inactive)
REMARK    1  A    between atoms: N_3  and  C_7 
REMARK    2  A    between atoms: C_4  and  C_6 
REMARK    3  A    between atoms: C_7  and  C_8 
ROOT
HETATM    1  O   UNK N   1      26.621  24.136  -2.942  0.00  0.00    -0.380 OA
HETATM    2  C   UNK N   1      26.611  25.510  -3.365  0.00  0.00     0.159 A 
HETATM    3  C   UNK N   1      26.179  24.323  -4.206  0.00  0.00     0.201 A 
ENDROOT
BRANCH   2   4
HETATM    4  C   UNK N   1      26.270  26.388  -4.547  0.00  0.00     0.148 C 
HETATM    5 Cl   UNK N   1      25.516  27.891  -3.968  0.00  0.00    -0.128 Cl
ENDBRANCH   2   4
TORSDOF 3
ENDMDL
