REMARK  5 active torsions:
REMARK  status: ('A' for Active; 'I' for Inactive)
REMARK    1  A    between atoms: S_1  and  O_2 
REMARK    2  A    between atoms: S_1  and  C_8 
REMARK    3  A    between atoms: N_6  and  C_9 
REMARK       I    between atoms: N_6  and  C_10 
REMARK    4  A    between atoms: C_7  and  C_8 
REMARK    5  A    between atoms: C_7  and  C_9 
ROOT
HETATM    1  C   UNK N   1       4.384   0.292   0.438  0.00  0.00     0.036 C 
ENDROOT
BRANCH   1   2
HETATM    2  C   UNK N   1       3.011   0.437  -0.202  0.00  0.00     0.157 C 
BRANCH   2   3
HETATM    3  S   UNK N   1       1.776  -0.602   0.645  0.00  0.00     0.094 S 
HETATM    4  O   UNK N   1       1.047   0.515  -0.118  0.00  0.00    -0.601 OA
HETATM    5  O   UNK N   1       2.312  -1.423  -0.539  0.00  0.00    -0.601 OA
BRANCH   3   6
HETATM    6  O   UNK N   1       0.371  -1.404   0.073  0.00  0.00    -0.296 OA
HETATM    7  H   UNK N   1      -0.419  -0.943  -0.250  0.00  0.00     0.232 HD
ENDBRANCH   3   6
ENDBRANCH   2   3
ENDBRANCH   1   2
BRANCH   1   8
HETATM    8  C   UNK N   1       5.196  -0.710  -0.367  0.00  0.00     0.123 C 
BRANCH   8   9
HETATM    9  N   UNK N   1       6.565  -0.774   0.089  0.00  0.00    -0.361 N 
HETATM   10  C   UNK N   1       7.420   0.273  -0.002  0.00  0.00     0.213 C 
HETATM   11  O   UNK N   1       7.045   1.351  -0.443  0.00  0.00    -0.274 OA
HETATM   12  C   UNK N   1       8.835   0.108   0.427  0.00  0.00     0.117 C 
HETATM   13  H   UNK N   1       6.892  -1.616   0.482  0.00  0.00     0.162 HD
ENDBRANCH   8   9
ENDBRANCH   1   8
TORSDOF 5
