MODEL 1
REMARK VINA RESULT:      -4.7      0.000      0.000
REMARK  5 active torsions:
REMARK  status: ('A' for Active; 'I' for Inactive)
REMARK    1  A    between atoms: S_1  and  O_2 
REMARK    2  A    between atoms: S_1  and  C_8 
REMARK    3  A    between atoms: N_6  and  C_9 
REMARK       I    between atoms: N_6  and  C_10 
REMARK    4  A    between atoms: C_7  and  C_8 
REMARK    5  A    between atoms: C_7  and  C_9 
ROOT
HETATM    1  C   UNK N   1      19.947  17.755   3.483  0.00  0.00     0.036 C 
ENDROOT
BRANCH   1   2
HETATM    2  C   UNK N   1      19.793  19.112   2.813  0.00  0.00     0.157 C 
BRANCH   2   3
HETATM    3  S   UNK N   1      21.345  20.065   2.892  0.00  0.00     0.094 S 
HETATM    4  O   UNK N   1      20.652  20.352   1.550  0.00  0.00    -0.601 OA
HETATM    5  O   UNK N   1      20.354  20.747   3.850  0.00  0.00    -0.601 OA
BRANCH   3   6
HETATM    6  O   UNK N   1      21.676  21.733   2.656  0.00  0.00    -0.296 OA
HETATM    7  H   UNK N   1      21.225  22.445   3.137  0.00  0.00     0.232 HD
ENDBRANCH   3   6
ENDBRANCH   2   3
ENDBRANCH   1   2
BRANCH   1   8
HETATM    8  C   UNK N   1      20.674  16.819   2.531  0.00  0.00     0.123 C 
BRANCH   8   9
HETATM    9  N   UNK N   1      19.753  16.116   1.668  0.00  0.00    -0.361 N 
HETATM   10  C   UNK N   1      19.622  16.396   0.349  0.00  0.00     0.213 C 
HETATM   11  O   UNK N   1      20.326  17.242  -0.184  0.00  0.00    -0.274 OA
HETATM   12  C   UNK N   1      18.602  15.675  -0.459  0.00  0.00     0.117 C 
HETATM   13  H   UNK N   1      19.194  15.404   2.056  0.00  0.00     0.162 HD
ENDBRANCH   8   9
ENDBRANCH   1   8
TORSDOF 5
ENDMDL
MODEL 2
REMARK VINA RESULT:      -4.6     11.299     11.904
REMARK  5 active torsions:
REMARK  status: ('A' for Active; 'I' for Inactive)
REMARK    1  A    between atoms: S_1  and  O_2 
REMARK    2  A    between atoms: S_1  and  C_8 
REMARK    3  A    between atoms: N_6  and  C_9 
REMARK       I    between atoms: N_6  and  C_10 
REMARK    4  A    between atoms: C_7  and  C_8 
REMARK    5  A    between atoms: C_7  and  C_9 
ROOT
HETATM    1  C   UNK N   1      28.420  24.215  -3.708  0.00  0.00     0.036 C 
ENDROOT
BRANCH   1   2
HETATM    2  C   UNK N   1      28.976  23.263  -2.659  0.00  0.00     0.157 C 
BRANCH   2   3
HETATM    3  S   UNK N   1      30.775  23.041  -2.857  0.00  0.00     0.094 S 
HETATM    4  O   UNK N   1      30.436  23.044  -1.359  0.00  0.00    -0.601 OA
HETATM    5  O   UNK N   1      30.114  21.717  -3.275  0.00  0.00    -0.601 OA
BRANCH   3   6
HETATM    6  O   UNK N   1      31.857  21.865  -2.234  0.00  0.00    -0.296 OA
HETATM    7  H   UNK N   1      32.637  21.543  -2.713  0.00  0.00     0.232 HD
ENDBRANCH   3   6
ENDBRANCH   2   3
ENDBRANCH   1   2
BRANCH   1   8
HETATM    8  C   UNK N   1      26.909  24.278  -3.560  0.00  0.00     0.123 C 
BRANCH   8   9
HETATM    9  N   UNK N   1      26.370  25.500  -4.111  0.00  0.00    -0.361 N 
HETATM   10  C   UNK N   1      25.528  25.519  -5.172  0.00  0.00     0.213 C 
HETATM   11  O   UNK N   1      25.148  24.477  -5.689  0.00  0.00    -0.274 OA
HETATM   12  C   UNK N   1      25.071  26.822  -5.725  0.00  0.00     0.117 C 
HETATM   13  H   UNK N   1      26.628  26.356  -3.698  0.00  0.00     0.162 HD
ENDBRANCH   8   9
ENDBRANCH   1   8
TORSDOF 5
ENDMDL
MODEL 3
REMARK VINA RESULT:      -4.4     13.465     14.522
REMARK  5 active torsions:
REMARK  status: ('A' for Active; 'I' for Inactive)
REMARK    1  A    between atoms: S_1  and  O_2 
REMARK    2  A    between atoms: S_1  and  C_8 
REMARK    3  A    between atoms: N_6  and  C_9 
REMARK       I    between atoms: N_6  and  C_10 
REMARK    4  A    between atoms: C_7  and  C_8 
REMARK    5  A    between atoms: C_7  and  C_9 
ROOT
HETATM    1  C   UNK N   1      31.718  16.993   8.401  0.00  0.00     0.036 C 
ENDROOT
BRANCH   1   2
HETATM    2  C   UNK N   1      30.785  18.131   8.787  0.00  0.00     0.157 C 
BRANCH   2   3
HETATM    3  S   UNK N   1      29.146  17.503   9.277  0.00  0.00     0.094 S 
HETATM    4  O   UNK N   1      29.472  18.748  10.116  0.00  0.00    -0.601 OA
HETATM    5  O   UNK N   1      28.978  18.153   7.894  0.00  0.00    -0.601 OA
BRANCH   3   6
HETATM    6  O   UNK N   1      27.617  18.272   9.403  0.00  0.00    -0.296 OA
HETATM    7  H   UNK N   1      27.287  18.687  10.215  0.00  0.00     0.232 HD
ENDBRANCH   3   6
ENDBRANCH   2   3
ENDBRANCH   1   2
BRANCH   1   8
HETATM    8  C   UNK N   1      33.148  17.407   8.707  0.00  0.00     0.123 C 
BRANCH   8   9
HETATM    9  N   UNK N   1      33.768  16.516   9.660  0.00  0.00    -0.361 N 
HETATM   10  C   UNK N   1      34.973  16.767  10.225  0.00  0.00     0.213 C 
HETATM   11  O   UNK N   1      35.577  17.802   9.978  0.00  0.00    -0.274 OA
HETATM   12  C   UNK N   1      35.577  15.768  11.148  0.00  0.00     0.117 C 
HETATM   13  H   UNK N   1      33.294  15.690   9.910  0.00  0.00     0.162 HD
ENDBRANCH   8   9
ENDBRANCH   1   8
TORSDOF 5
ENDMDL
MODEL 4
REMARK VINA RESULT:      -4.4     14.637     15.481
REMARK  5 active torsions:
REMARK  status: ('A' for Active; 'I' for Inactive)
REMARK    1  A    between atoms: S_1  and  O_2 
REMARK    2  A    between atoms: S_1  and  C_8 
REMARK    3  A    between atoms: N_6  and  C_9 
REMARK       I    between atoms: N_6  and  C_10 
REMARK    4  A    between atoms: C_7  and  C_8 
REMARK    5  A    between atoms: C_7  and  C_9 
ROOT
HETATM    1  C   UNK N   1      34.149  17.558   8.684  0.00  0.00     0.036 C 
ENDROOT
BRANCH   1   2
HETATM    2  C   UNK N   1      34.096  16.176   9.319  0.00  0.00     0.157 C 
BRANCH   2   3
HETATM    3  S   UNK N   1      35.218  16.064  10.751  0.00  0.00     0.094 S 
HETATM    4  O   UNK N   1      35.716  15.111   9.653  0.00  0.00    -0.601 OA
HETATM    5  O   UNK N   1      35.496  17.415  10.071  0.00  0.00    -0.601 OA
BRANCH   3   6
HETATM    6  O   UNK N   1      36.923  16.211  10.882  0.00  0.00    -0.296 OA
HETATM    7  H   UNK N   1      37.548  15.807  10.260  0.00  0.00     0.232 HD
ENDBRANCH   3   6
ENDBRANCH   2   3
ENDBRANCH   1   2
BRANCH   1   8
HETATM    8  C   UNK N   1      32.815  17.839   8.012  0.00  0.00     0.123 C 
BRANCH   8   9
HETATM    9  N   UNK N   1      31.768  18.065   8.981  0.00  0.00    -0.361 N 
HETATM   10  C   UNK N   1      30.451  18.002   8.668  0.00  0.00     0.213 C 
HETATM   11  O   UNK N   1      30.089  17.703   7.539  0.00  0.00    -0.274 OA
HETATM   12  C   UNK N   1      29.432  18.314   9.707  0.00  0.00     0.117 C 
HETATM   13  H   UNK N   1      32.022  18.274   9.909  0.00  0.00     0.162 HD
ENDBRANCH   8   9
ENDBRANCH   1   8
TORSDOF 5
ENDMDL
MODEL 5
REMARK VINA RESULT:      -4.3     17.178     18.164
REMARK  5 active torsions:
REMARK  status: ('A' for Active; 'I' for Inactive)
REMARK    1  A    between atoms: S_1  and  O_2 
REMARK    2  A    between atoms: S_1  and  C_8 
REMARK    3  A    between atoms: N_6  and  C_9 
REMARK       I    between atoms: N_6  and  C_10 
REMARK    4  A    between atoms: C_7  and  C_8 
REMARK    5  A    between atoms: C_7  and  C_9 
ROOT
HETATM    1  C   UNK N   1      35.004  15.771  10.748  0.00  0.00     0.036 C 
ENDROOT
BRANCH   1   2
HETATM    2  C   UNK N   1      34.839  15.937   9.244  0.00  0.00     0.157 C 
BRANCH   2   3
HETATM    3  S   UNK N   1      34.185  17.587   8.831  0.00  0.00     0.094 S 
HETATM    4  O   UNK N   1      35.361  17.748   9.807  0.00  0.00    -0.601 OA
HETATM    5  O   UNK N   1      34.940  17.084   7.590  0.00  0.00    -0.601 OA
BRANCH   3   6
HETATM    6  O   UNK N   1      34.953  19.008   8.251  0.00  0.00    -0.296 OA
HETATM    7  H   UNK N   1      34.972  19.268   7.316  0.00  0.00     0.232 HD
ENDBRANCH   3   6
ENDBRANCH   2   3
ENDBRANCH   1   2
BRANCH   1   8
HETATM    8  C   UNK N   1      35.812  14.512  11.016  0.00  0.00     0.123 C 
BRANCH   8   9
HETATM    9  N   UNK N   1      36.491  14.576  12.289  0.00  0.00    -0.361 N 
HETATM   10  C   UNK N   1      35.956  14.087  13.433  0.00  0.00     0.213 C 
HETATM   11  O   UNK N   1      34.872  13.519  13.425  0.00  0.00    -0.274 OA
HETATM   12  C   UNK N   1      36.688  14.252  14.718  0.00  0.00     0.117 C 
HETATM   13  H   UNK N   1      37.382  14.996  12.327  0.00  0.00     0.162 HD
ENDBRANCH   8   9
ENDBRANCH   1   8
TORSDOF 5
ENDMDL
MODEL 6
REMARK VINA RESULT:      -4.3     18.845     19.853
REMARK  5 active torsions:
REMARK  status: ('A' for Active; 'I' for Inactive)
REMARK    1  A    between atoms: S_1  and  O_2 
REMARK    2  A    between atoms: S_1  and  C_8 
REMARK    3  A    between atoms: N_6  and  C_9 
REMARK       I    between atoms: N_6  and  C_10 
REMARK    4  A    between atoms: C_7  and  C_8 
REMARK    5  A    between atoms: C_7  and  C_9 
ROOT
HETATM    1  C   UNK N   1      35.354  14.281  12.205  0.00  0.00     0.036 C 
ENDROOT
BRANCH   1   2
HETATM    2  C   UNK N   1      36.047  14.368  10.852  0.00  0.00     0.157 C 
BRANCH   2   3
HETATM    3  S   UNK N   1      35.388  15.748   9.862  0.00  0.00     0.094 S 
HETATM    4  O   UNK N   1      34.355  15.369  10.934  0.00  0.00    -0.601 OA
HETATM    5  O   UNK N   1      36.495  16.330  10.756  0.00  0.00    -0.601 OA
BRANCH   3   6
HETATM    6  O   UNK N   1      34.748  17.275  10.312  0.00  0.00    -0.296 OA
HETATM    7  H   UNK N   1      34.203  17.825   9.727  0.00  0.00     0.232 HD
ENDBRANCH   3   6
ENDBRANCH   2   3
ENDBRANCH   1   2
BRANCH   1   8
HETATM    8  C   UNK N   1      36.324  13.689  13.215  0.00  0.00     0.123 C 
BRANCH   8   9
HETATM    9  N   UNK N   1      36.884  14.706  14.074  0.00  0.00    -0.361 N 
HETATM   10  C   UNK N   1      36.905  14.599  15.424  0.00  0.00     0.213 C 
HETATM   11  O   UNK N   1      36.481  13.594  15.978  0.00  0.00    -0.274 OA
HETATM   12  C   UNK N   1      37.437  15.720  16.244  0.00  0.00     0.117 C 
HETATM   13  H   UNK N   1      37.266  15.515  13.660  0.00  0.00     0.162 HD
ENDBRANCH   8   9
ENDBRANCH   1   8
TORSDOF 5
ENDMDL
MODEL 7
REMARK VINA RESULT:      -4.3     11.796     12.645
REMARK  5 active torsions:
REMARK  status: ('A' for Active; 'I' for Inactive)
REMARK    1  A    between atoms: S_1  and  O_2 
REMARK    2  A    between atoms: S_1  and  C_8 
REMARK    3  A    between atoms: N_6  and  C_9 
REMARK       I    between atoms: N_6  and  C_10 
REMARK    4  A    between atoms: C_7  and  C_8 
REMARK    5  A    between atoms: C_7  and  C_9 
ROOT
HETATM    1  C   UNK N   1      31.008  18.296   8.859  0.00  0.00     0.036 C 
ENDROOT
BRANCH   1   2
HETATM    2  C   UNK N   1      30.098  17.102   9.106  0.00  0.00     0.157 C 
BRANCH   2   3
HETATM    3  S   UNK N   1      28.343  17.594   9.084  0.00  0.00     0.094 S 
HETATM    4  O   UNK N   1      29.136  18.615   9.914  0.00  0.00    -0.601 OA
HETATM    5  O   UNK N   1      28.908  17.895   7.687  0.00  0.00    -0.601 OA
BRANCH   3   6
HETATM    6  O   UNK N   1      27.576  19.073   8.676  0.00  0.00    -0.296 OA
HETATM    7  H   UNK N   1      27.541  19.432   7.776  0.00  0.00     0.232 HD
ENDBRANCH   3   6
ENDBRANCH   2   3
ENDBRANCH   1   2
BRANCH   1   8
HETATM    8  C   UNK N   1      32.322  17.799   8.277  0.00  0.00     0.123 C 
BRANCH   8   9
HETATM    9  N   UNK N   1      32.188  17.450   6.882  0.00  0.00    -0.361 N 
HETATM   10  C   UNK N   1      33.212  17.538   6.000  0.00  0.00     0.213 C 
HETATM   11  O   UNK N   1      34.327  17.883   6.369  0.00  0.00    -0.274 OA
HETATM   12  C   UNK N   1      32.978  17.225   4.565  0.00  0.00     0.117 C 
HETATM   13  H   UNK N   1      31.313  17.135   6.557  0.00  0.00     0.162 HD
ENDBRANCH   8   9
ENDBRANCH   1   8
TORSDOF 5
ENDMDL
MODEL 8
REMARK VINA RESULT:      -4.2      2.898      4.437
REMARK  5 active torsions:
REMARK  status: ('A' for Active; 'I' for Inactive)
REMARK    1  A    between atoms: S_1  and  O_2 
REMARK    2  A    between atoms: S_1  and  C_8 
REMARK    3  A    between atoms: N_6  and  C_9 
REMARK       I    between atoms: N_6  and  C_10 
REMARK    4  A    between atoms: C_7  and  C_8 
REMARK    5  A    between atoms: C_7  and  C_9 
ROOT
HETATM    1  C   UNK N   1      21.415  18.299   3.310  0.00  0.00     0.036 C 
ENDROOT
BRANCH   1   2
HETATM    2  C   UNK N   1      21.379  19.820   3.294  0.00  0.00     0.157 C 
BRANCH   2   3
HETATM    3  S   UNK N   1      20.549  20.444   1.796  0.00  0.00     0.094 S 
HETATM    4  O   UNK N   1      22.063  20.661   1.652  0.00  0.00    -0.601 OA
HETATM    5  O   UNK N   1      20.495  18.909   1.729  0.00  0.00    -0.601 OA
BRANCH   3   6
HETATM    6  O   UNK N   1      20.808  20.129   0.130  0.00  0.00    -0.296 OA
HETATM    7  H   UNK N   1      20.547  20.735  -0.581  0.00  0.00     0.232 HD
ENDBRANCH   3   6
ENDBRANCH   2   3
ENDBRANCH   1   2
BRANCH   1   8
HETATM    8  C   UNK N   1      22.301  17.843   4.458  0.00  0.00     0.123 C 
BRANCH   8   9
HETATM    9  N   UNK N   1      21.571  17.029   5.402  0.00  0.00    -0.361 N 
HETATM   10  C   UNK N   1      21.120  17.504   6.589  0.00  0.00     0.213 C 
HETATM   11  O   UNK N   1      21.280  18.678   6.894  0.00  0.00    -0.274 OA
HETATM   12  C   UNK N   1      20.436  16.586   7.538  0.00  0.00     0.117 C 
HETATM   13  H   UNK N   1      21.394  16.087   5.175  0.00  0.00     0.162 HD
ENDBRANCH   8   9
ENDBRANCH   1   8
TORSDOF 5
ENDMDL
MODEL 9
REMARK VINA RESULT:      -4.1      3.943      5.087
REMARK  5 active torsions:
REMARK  status: ('A' for Active; 'I' for Inactive)
REMARK    1  A    between atoms: S_1  and  O_2 
REMARK    2  A    between atoms: S_1  and  C_8 
REMARK    3  A    between atoms: N_6  and  C_9 
REMARK       I    between atoms: N_6  and  C_10 
REMARK    4  A    between atoms: C_7  and  C_8 
REMARK    5  A    between atoms: C_7  and  C_9 
ROOT
HETATM    1  C   UNK N   1      22.262  17.665   3.826  0.00  0.00     0.036 C 
ENDROOT
BRANCH   1   2
HETATM    2  C   UNK N   1      21.586  18.973   4.212  0.00  0.00     0.157 C 
BRANCH   2   3
HETATM    3  S   UNK N   1      21.290  20.018   2.749  0.00  0.00     0.094 S 
HETATM    4  O   UNK N   1      20.434  20.539   3.913  0.00  0.00    -0.601 OA
HETATM    5  O   UNK N   1      22.691  20.372   3.273  0.00  0.00    -0.601 OA
BRANCH   3   6
HETATM    6  O   UNK N   1      21.360  21.718   2.525  0.00  0.00    -0.296 OA
HETATM    7  H   UNK N   1      21.081  22.167   1.712  0.00  0.00     0.232 HD
ENDBRANCH   3   6
ENDBRANCH   2   3
ENDBRANCH   1   2
BRANCH   1   8
HETATM    8  C   UNK N   1      23.310  17.328   4.874  0.00  0.00     0.123 C 
BRANCH   8   9
HETATM    9  N   UNK N   1      24.062  18.496   5.270  0.00  0.00    -0.361 N 
HETATM   10  C   UNK N   1      25.299  18.771   4.791  0.00  0.00     0.213 C 
HETATM   11  O   UNK N   1      25.821  18.048   3.953  0.00  0.00    -0.274 OA
HETATM   12  C   UNK N   1      26.039  19.958   5.298  0.00  0.00     0.117 C 
HETATM   13  H   UNK N   1      23.659  19.120   5.917  0.00  0.00     0.162 HD
ENDBRANCH   8   9
ENDBRANCH   1   8
TORSDOF 5
ENDMDL
