MODEL 1
REMARK VINA RESULT:      -6.8      0.000      0.000
REMARK  3 active torsions:
REMARK  status: ('A' for Active; 'I' for Inactive)
REMARK    1  A    between atoms: O_2  and  C_7 
REMARK    2  A    between atoms: O_2  and  C_9 
REMARK    3  A    between atoms: C_5  and  C_7 
ROOT
HETATM    1  O   UNK N   1      20.054  14.076   8.836  0.00  0.00    -0.349 OA
ENDROOT
BRANCH   1   2
HETATM    2  C   UNK N   1      20.236  15.177   8.028  0.00  0.00     0.210 C 
BRANCH   2   3
HETATM    3  C   UNK N   1      19.603  16.419   8.610  0.00  0.00     0.175 A 
HETATM    4  O   UNK N   1      20.391  17.479   8.974  0.00  0.00    -0.295 OA
HETATM    5  C   UNK N   1      19.590  18.428   9.451  0.00  0.00     0.361 A 
HETATM    6  O   UNK N   1      19.999  19.503   9.859  0.00  0.00    -0.239 OA
HETATM    7  N   UNK N   1      18.293  18.098   9.443  0.00  0.00    -0.334 N 
HETATM    8  C   UNK N   1      18.137  16.769   8.903  0.00  0.00     0.159 A 
HETATM    9  H   UNK N   1      17.558  18.673   9.756  0.00  0.00     0.164 HD
ENDBRANCH   2   3
ENDBRANCH   1   2
BRANCH   1  10
HETATM   10  C   UNK N   1      21.081  13.244   9.128  0.00  0.00     0.069 A 
HETATM   11  C   UNK N   1      21.472  13.017  10.460  0.00  0.00     0.043 A 
HETATM   12  C   UNK N   1      22.528  12.160  10.753  0.00  0.00    -0.059 A 
HETATM   13  C   UNK N   1      23.211  11.517   9.718  0.00  0.00     0.013 A 
HETATM   14  C   UNK N   1      22.923  11.935  12.167  0.00  0.00     0.048 C 
HETATM   15  C   UNK N   1      22.832  11.735   8.389  0.00  0.00    -0.059 A 
HETATM   16  C   UNK N   1      21.769  12.597   8.093  0.00  0.00     0.043 A 
HETATM   17  C   UNK N   1      23.562  11.049   7.292  0.00  0.00     0.048 C 
ENDBRANCH   1  10
TORSDOF 3
ENDMDL
MODEL 2
REMARK VINA RESULT:      -6.7      0.974      2.184
REMARK  3 active torsions:
REMARK  status: ('A' for Active; 'I' for Inactive)
REMARK    1  A    between atoms: O_2  and  C_7 
REMARK    2  A    between atoms: O_2  and  C_9 
REMARK    3  A    between atoms: C_5  and  C_7 
ROOT
HETATM    1  O   UNK N   1      20.138  14.181   8.750  0.00  0.00    -0.349 OA
ENDROOT
BRANCH   1   2
HETATM    2  C   UNK N   1      20.066  15.255   7.891  0.00  0.00     0.210 C 
BRANCH   2   3
HETATM    3  C   UNK N   1      19.479  16.477   8.558  0.00  0.00     0.175 A 
HETATM    4  O   UNK N   1      20.298  17.509   8.933  0.00  0.00    -0.295 OA
HETATM    5  C   UNK N   1      19.534  18.445   9.489  0.00  0.00     0.361 A 
HETATM    6  O   UNK N   1      19.977  19.494   9.926  0.00  0.00    -0.239 OA
HETATM    7  N   UNK N   1      18.233  18.132   9.526  0.00  0.00    -0.334 N 
HETATM    8  C   UNK N   1      18.032  16.831   8.935  0.00  0.00     0.159 A 
HETATM    9  H   UNK N   1      17.522  18.701   9.900  0.00  0.00     0.164 HD
ENDBRANCH   2   3
ENDBRANCH   1   2
BRANCH   1  10
HETATM   10  C   UNK N   1      21.332  13.690   9.159  0.00  0.00     0.069 A 
HETATM   11  C   UNK N   1      22.477  13.810   8.351  0.00  0.00     0.043 A 
HETATM   12  C   UNK N   1      23.701  13.304   8.777  0.00  0.00    -0.059 A 
HETATM   13  C   UNK N   1      23.799  12.669  10.017  0.00  0.00     0.013 A 
HETATM   14  C   UNK N   1      24.898  13.442   7.908  0.00  0.00     0.048 C 
HETATM   15  C   UNK N   1      22.666  12.543  10.830  0.00  0.00    -0.059 A 
HETATM   16  C   UNK N   1      21.434  13.052  10.401  0.00  0.00     0.043 A 
HETATM   17  C   UNK N   1      22.774  11.867  12.148  0.00  0.00     0.048 C 
ENDBRANCH   1  10
TORSDOF 3
ENDMDL
MODEL 3
REMARK VINA RESULT:      -6.4     13.882     15.324
REMARK  3 active torsions:
REMARK  status: ('A' for Active; 'I' for Inactive)
REMARK    1  A    between atoms: O_2  and  C_7 
REMARK    2  A    between atoms: O_2  and  C_9 
REMARK    3  A    between atoms: C_5  and  C_7 
ROOT
HETATM    1  O   UNK N   1      34.738  12.969  13.622  0.00  0.00    -0.349 OA
ENDROOT
BRANCH   1   2
HETATM    2  C   UNK N   1      35.784  13.595  12.982  0.00  0.00     0.210 C 
BRANCH   2   3
HETATM    3  C   UNK N   1      35.305  14.616  11.976  0.00  0.00     0.175 A 
HETATM    4  O   UNK N   1      36.040  15.751  11.754  0.00  0.00    -0.295 OA
HETATM    5  C   UNK N   1      35.401  16.468  10.833  0.00  0.00     0.361 A 
HETATM    6  O   UNK N   1      35.810  17.541  10.422  0.00  0.00    -0.239 OA
HETATM    7  N   UNK N   1      34.267  15.905  10.399  0.00  0.00    -0.334 N 
HETATM    8  C   UNK N   1      34.062  14.647  11.076  0.00  0.00     0.159 A 
HETATM    9  H   UNK N   1      33.665  16.290   9.722  0.00  0.00     0.164 HD
ENDBRANCH   2   3
ENDBRANCH   1   2
BRANCH   1  10
HETATM   10  C   UNK N   1      34.888  12.446  14.862  0.00  0.00     0.069 A 
HETATM   11  C   UNK N   1      34.963  13.278  15.994  0.00  0.00     0.043 A 
HETATM   12  C   UNK N   1      35.117  12.733  17.265  0.00  0.00    -0.059 A 
HETATM   13  C   UNK N   1      35.198  11.348  17.424  0.00  0.00     0.013 A 
HETATM   14  C   UNK N   1      35.194  13.630  18.446  0.00  0.00     0.048 C 
HETATM   15  C   UNK N   1      35.125  10.510  16.305  0.00  0.00    -0.059 A 
HETATM   16  C   UNK N   1      34.970  11.057  15.026  0.00  0.00     0.043 A 
HETATM   17  C   UNK N   1      35.212   9.037  16.480  0.00  0.00     0.048 C 
ENDBRANCH   1  10
TORSDOF 3
ENDMDL
MODEL 4
REMARK VINA RESULT:      -6.3     11.195     12.160
REMARK  3 active torsions:
REMARK  status: ('A' for Active; 'I' for Inactive)
REMARK    1  A    between atoms: O_2  and  C_7 
REMARK    2  A    between atoms: O_2  and  C_9 
REMARK    3  A    between atoms: C_5  and  C_7 
ROOT
HETATM    1  O   UNK N   1      31.465  16.210   6.030  0.00  0.00    -0.349 OA
ENDROOT
BRANCH   1   2
HETATM    2  C   UNK N   1      32.687  16.793   5.776  0.00  0.00     0.210 C 
BRANCH   2   3
HETATM    3  C   UNK N   1      33.392  17.208   7.045  0.00  0.00     0.175 A 
HETATM    4  O   UNK N   1      34.208  18.309   7.043  0.00  0.00    -0.295 OA
HETATM    5  C   UNK N   1      34.696  18.448   8.273  0.00  0.00     0.361 A 
HETATM    6  O   UNK N   1      35.461  19.345   8.588  0.00  0.00    -0.239 OA
HETATM    7  N   UNK N   1      34.273  17.515   9.133  0.00  0.00    -0.334 N 
HETATM    8  C   UNK N   1      33.383  16.602   8.456  0.00  0.00     0.159 A 
HETATM    9  H   UNK N   1      34.528  17.460  10.082  0.00  0.00     0.164 HD
ENDBRANCH   2   3
ENDBRANCH   1   2
BRANCH   1  10
HETATM   10  C   UNK N   1      30.369  16.963   6.283  0.00  0.00     0.069 A 
HETATM   11  C   UNK N   1      29.860  17.082   7.589  0.00  0.00     0.043 A 
HETATM   12  C   UNK N   1      28.733  17.858   7.842  0.00  0.00    -0.059 A 
HETATM   13  C   UNK N   1      28.097  18.526   6.793  0.00  0.00     0.013 A 
HETATM   14  C   UNK N   1      28.212  17.969   9.229  0.00  0.00     0.048 C 
HETATM   15  C   UNK N   1      28.594  18.415   5.490  0.00  0.00    -0.059 A 
HETATM   16  C   UNK N   1      29.728  17.635   5.234  0.00  0.00     0.043 A 
HETATM   17  C   UNK N   1      27.915  19.128   4.378  0.00  0.00     0.048 C 
ENDBRANCH   1  10
TORSDOF 3
ENDMDL
MODEL 5
REMARK VINA RESULT:      -6.3     13.876     15.357
REMARK  3 active torsions:
REMARK  status: ('A' for Active; 'I' for Inactive)
REMARK    1  A    between atoms: O_2  and  C_7 
REMARK    2  A    between atoms: O_2  and  C_9 
REMARK    3  A    between atoms: C_5  and  C_7 
ROOT
HETATM    1  O   UNK N   1      34.845  13.098  13.474  0.00  0.00    -0.349 OA
ENDROOT
BRANCH   1   2
HETATM    2  C   UNK N   1      35.826  13.937  12.993  0.00  0.00     0.210 C 
BRANCH   2   3
HETATM    3  C   UNK N   1      35.309  14.854  11.910  0.00  0.00     0.175 A 
HETATM    4  O   UNK N   1      35.967  16.024  11.636  0.00  0.00    -0.295 OA
HETATM    5  C   UNK N   1      35.308  16.632  10.653  0.00  0.00     0.361 A 
HETATM    6  O   UNK N   1      35.653  17.705  10.184  0.00  0.00    -0.239 OA
HETATM    7  N   UNK N   1      34.233  15.961  10.224  0.00  0.00    -0.334 N 
HETATM    8  C   UNK N   1      34.097  14.737  10.975  0.00  0.00     0.159 A 
HETATM    9  H   UNK N   1      33.628  16.257   9.506  0.00  0.00     0.164 HD
ENDBRANCH   2   3
ENDBRANCH   1   2
BRANCH   1  10
HETATM   10  C   UNK N   1      34.979  12.475  14.668  0.00  0.00     0.069 A 
HETATM   11  C   UNK N   1      35.097  11.074  14.743  0.00  0.00     0.043 A 
HETATM   12  C   UNK N   1      35.235  10.440  15.973  0.00  0.00    -0.059 A 
HETATM   13  C   UNK N   1      35.258  11.194  17.148  0.00  0.00     0.013 A 
HETATM   14  C   UNK N   1      35.358   8.960  16.029  0.00  0.00     0.048 C 
HETATM   15  C   UNK N   1      35.142  12.588  17.087  0.00  0.00    -0.059 A 
HETATM   16  C   UNK N   1      35.003  13.227  15.849  0.00  0.00     0.043 A 
HETATM   17  C   UNK N   1      35.167  13.387  18.339  0.00  0.00     0.048 C 
ENDBRANCH   1  10
TORSDOF 3
ENDMDL
MODEL 6
REMARK VINA RESULT:      -6.2     14.874     15.795
REMARK  3 active torsions:
REMARK  status: ('A' for Active; 'I' for Inactive)
REMARK    1  A    between atoms: O_2  and  C_7 
REMARK    2  A    between atoms: O_2  and  C_9 
REMARK    3  A    between atoms: C_5  and  C_7 
ROOT
HETATM    1  O   UNK N   1      34.205  12.366  13.963  0.00  0.00    -0.349 OA
ENDROOT
BRANCH   1   2
HETATM    2  C   UNK N   1      35.033  12.045  12.910  0.00  0.00     0.210 C 
BRANCH   2   3
HETATM    3  C   UNK N   1      35.604  13.273  12.242  0.00  0.00     0.175 A 
HETATM    4  O   UNK N   1      34.858  14.420  12.171  0.00  0.00    -0.295 OA
HETATM    5  C   UNK N   1      35.589  15.336  11.541  0.00  0.00     0.361 A 
HETATM    6  O   UNK N   1      35.194  16.469  11.322  0.00  0.00    -0.239 OA
HETATM    7  N   UNK N   1      36.799  14.901  11.168  0.00  0.00    -0.334 N 
HETATM    8  C   UNK N   1      36.962  13.524  11.570  0.00  0.00     0.159 A 
HETATM    9  H   UNK N   1      37.474  15.437  10.693  0.00  0.00     0.164 HD
ENDBRANCH   2   3
ENDBRANCH   1   2
BRANCH   1  10
HETATM   10  C   UNK N   1      34.543  12.062  15.238  0.00  0.00     0.069 A 
HETATM   11  C   UNK N   1      34.711  10.725  15.642  0.00  0.00     0.043 A 
HETATM   12  C   UNK N   1      35.059  10.419  16.954  0.00  0.00    -0.059 A 
HETATM   13  C   UNK N   1      35.242  11.445  17.883  0.00  0.00     0.013 A 
HETATM   14  C   UNK N   1      35.232   9.000  17.358  0.00  0.00     0.048 C 
HETATM   15  C   UNK N   1      35.077  12.779  17.494  0.00  0.00    -0.059 A 
HETATM   16  C   UNK N   1      34.728  13.088  16.173  0.00  0.00     0.043 A 
HETATM   17  C   UNK N   1      35.274  13.867  18.485  0.00  0.00     0.048 C 
ENDBRANCH   1  10
TORSDOF 3
ENDMDL
MODEL 7
REMARK VINA RESULT:      -6.2     11.170     12.322
REMARK  3 active torsions:
REMARK  status: ('A' for Active; 'I' for Inactive)
REMARK    1  A    between atoms: O_2  and  C_7 
REMARK    2  A    between atoms: O_2  and  C_9 
REMARK    3  A    between atoms: C_5  and  C_7 
ROOT
HETATM    1  O   UNK N   1      31.357  16.410   5.706  0.00  0.00    -0.349 OA
ENDROOT
BRANCH   1   2
HETATM    2  C   UNK N   1      32.574  17.024   5.504  0.00  0.00     0.210 C 
BRANCH   2   3
HETATM    3  C   UNK N   1      33.303  17.280   6.801  0.00  0.00     0.175 A 
HETATM    4  O   UNK N   1      34.124  18.370   6.918  0.00  0.00    -0.295 OA
HETATM    5  C   UNK N   1      34.634  18.358   8.147  0.00  0.00     0.361 A 
HETATM    6  O   UNK N   1      35.408  19.207   8.556  0.00  0.00    -0.239 OA
HETATM    7  N   UNK N   1      34.221  17.328   8.895  0.00  0.00    -0.334 N 
HETATM    8  C   UNK N   1      33.316  16.506   8.128  0.00  0.00     0.159 A 
HETATM    9  H   UNK N   1      34.493  17.156   9.825  0.00  0.00     0.164 HD
ENDBRANCH   2   3
ENDBRANCH   1   2
BRANCH   1  10
HETATM   10  C   UNK N   1      30.249  17.131   6.000  0.00  0.00     0.069 A 
HETATM   11  C   UNK N   1      29.550  17.824   4.995  0.00  0.00     0.043 A 
HETATM   12  C   UNK N   1      28.412  18.562   5.304  0.00  0.00    -0.059 A 
HETATM   13  C   UNK N   1      27.956  18.620   6.623  0.00  0.00     0.013 A 
HETATM   14  C   UNK N   1      27.689  19.286   4.227  0.00  0.00     0.048 C 
HETATM   15  C   UNK N   1      28.643  17.936   7.631  0.00  0.00    -0.059 A 
HETATM   16  C   UNK N   1      29.788  17.192   7.321  0.00  0.00     0.043 A 
HETATM   17  C   UNK N   1      28.155  18.000   9.032  0.00  0.00     0.048 C 
ENDBRANCH   1  10
TORSDOF 3
ENDMDL
MODEL 8
REMARK VINA RESULT:      -6.2      1.683      2.820
REMARK  3 active torsions:
REMARK  status: ('A' for Active; 'I' for Inactive)
REMARK    1  A    between atoms: O_2  and  C_7 
REMARK    2  A    between atoms: O_2  and  C_9 
REMARK    3  A    between atoms: C_5  and  C_7 
ROOT
HETATM    1  O   UNK N   1      20.039  13.608   9.089  0.00  0.00    -0.349 OA
ENDROOT
BRANCH   1   2
HETATM    2  C   UNK N   1      19.951  14.957   9.351  0.00  0.00     0.210 C 
BRANCH   2   3
HETATM    3  C   UNK N   1      20.229  15.793   8.125  0.00  0.00     0.175 A 
HETATM    4  O   UNK N   1      20.693  17.075   8.265  0.00  0.00    -0.295 OA
HETATM    5  C   UNK N   1      20.852  17.579   7.043  0.00  0.00     0.361 A 
HETATM    6  O   UNK N   1      21.256  18.711   6.838  0.00  0.00    -0.239 OA
HETATM    7  N   UNK N   1      20.528  16.731   6.061  0.00  0.00    -0.334 N 
HETATM    8  C   UNK N   1      20.088  15.479   6.628  0.00  0.00     0.159 A 
HETATM    9  H   UNK N   1      20.582  16.929   5.098  0.00  0.00     0.164 HD
ENDBRANCH   2   3
ENDBRANCH   1   2
BRANCH   1  10
HETATM   10  C   UNK N   1      21.148  12.902   9.414  0.00  0.00     0.069 A 
HETATM   11  C   UNK N   1      21.940  12.302   8.418  0.00  0.00     0.043 A 
HETATM   12  C   UNK N   1      23.078  11.578   8.759  0.00  0.00    -0.059 A 
HETATM   13  C   UNK N   1      23.442  11.442  10.101  0.00  0.00     0.013 A 
HETATM   14  C   UNK N   1      23.900  10.952   7.692  0.00  0.00     0.048 C 
HETATM   15  C   UNK N   1      22.661  12.034  11.100  0.00  0.00    -0.059 A 
HETATM   16  C   UNK N   1      21.516  12.763  10.758  0.00  0.00     0.043 A 
HETATM   17  C   UNK N   1      23.052  11.888  12.526  0.00  0.00     0.048 C 
ENDBRANCH   1  10
TORSDOF 3
ENDMDL
MODEL 9
REMARK VINA RESULT:      -6.1     14.875     15.860
REMARK  3 active torsions:
REMARK  status: ('A' for Active; 'I' for Inactive)
REMARK    1  A    between atoms: O_2  and  C_7 
REMARK    2  A    between atoms: O_2  and  C_9 
REMARK    3  A    between atoms: C_5  and  C_7 
ROOT
HETATM    1  O   UNK N   1      33.887  11.766  14.084  0.00  0.00    -0.349 OA
ENDROOT
BRANCH   1   2
HETATM    2  C   UNK N   1      34.709  11.498  13.012  0.00  0.00     0.210 C 
BRANCH   2   3
HETATM    3  C   UNK N   1      35.487  12.716  12.574  0.00  0.00     0.175 A 
HETATM    4  O   UNK N   1      34.842  13.912  12.404  0.00  0.00    -0.295 OA
HETATM    5  C   UNK N   1      35.750  14.806  12.021  0.00  0.00     0.361 A 
HETATM    6  O   UNK N   1      35.480  15.973  11.788  0.00  0.00    -0.239 OA
HETATM    7  N   UNK N   1      36.988  14.309  11.913  0.00  0.00    -0.334 N 
HETATM    8  C   UNK N   1      36.977  12.907  12.254  0.00  0.00     0.159 A 
HETATM    9  H   UNK N   1      37.785  14.821  11.643  0.00  0.00     0.164 HD
ENDBRANCH   2   3
ENDBRANCH   1   2
BRANCH   1  10
HETATM   10  C   UNK N   1      34.354  11.723  15.353  0.00  0.00     0.069 A 
HETATM   11  C   UNK N   1      34.602  12.906  16.074  0.00  0.00     0.043 A 
HETATM   12  C   UNK N   1      35.082  12.854  17.378  0.00  0.00    -0.059 A 
HETATM   13  C   UNK N   1      35.323  11.619  17.983  0.00  0.00     0.013 A 
HETATM   14  C   UNK N   1      35.337  14.116  18.120  0.00  0.00     0.048 C 
HETATM   15  C   UNK N   1      35.081  10.435  17.277  0.00  0.00    -0.059 A 
HETATM   16  C   UNK N   1      34.597  10.487  15.964  0.00  0.00     0.043 A 
HETATM   17  C   UNK N   1      35.338   9.123  17.925  0.00  0.00     0.048 C 
ENDBRANCH   1  10
TORSDOF 3
ENDMDL
