REMARK  13 active torsions:
REMARK  status: ('A' for Active; 'I' for Inactive)
REMARK    1  A    between atoms: O_1  and  C_19 
REMARK    2  A    between atoms: O_2  and  C_23 
REMARK    3  A    between atoms: O_3  and  C_27 
REMARK    4  A    between atoms: O_4  and  C_30 
REMARK    5  A    between atoms: N_5  and  C_12 
REMARK    6  A    between atoms: N_5  and  C_18 
REMARK    7  A    between atoms: C_7  and  C_8 
REMARK    8  A    between atoms: C_7  and  C_9 
REMARK    9  A    between atoms: C_7  and  C_11 
REMARK   10  A    between atoms: C_9  and  C_10 
REMARK   11  A    between atoms: C_10  and  C_12 
REMARK   12  A    between atoms: C_18  and  C_22 
REMARK   13  A    between atoms: C_22  and  C_24 
ROOT
HETATM    1  N   UNK N   1       2.087   1.180  -2.333  0.00  0.00    -0.196 NA
HETATM    2  C   UNK N   1       2.932   0.561   0.085  0.00  0.00     0.079 C 
HETATM    3  C   UNK N   1       2.477   0.921  -1.275  0.00  0.00     0.074 C 
ENDROOT
BRANCH   2   4
HETATM    4  C   UNK N   1       1.896   1.147   1.087  0.00  0.00     0.004 C 
HETATM    5  C   UNK N   1       1.740   2.665   0.917  0.00  0.00     0.011 C 
HETATM    6  C   UNK N   1       2.287   0.894   2.540  0.00  0.00     0.011 C 
ENDBRANCH   2   4
BRANCH   2   7
HETATM    7  C   UNK N   1       4.302   1.213   0.440  0.00  0.00     0.032 C 
BRANCH   7   8
HETATM    8  C   UNK N   1       5.467   0.807  -0.454  0.00  0.00     0.032 C 
BRANCH   8   9
HETATM    9  C   UNK N   1       6.460   1.925  -0.621  0.00  0.00     0.272 C 
BRANCH   9  10
HETATM   10  N   UNK N   1       5.800   3.190  -0.928  0.00  0.00     0.084 N 
HETATM   11  C   UNK N   1       5.155   3.069  -2.227  0.00  0.00     0.309 C 
BRANCH  10  12
HETATM   12  C   UNK N   1       6.823   4.215  -1.069  0.00  0.00     0.276 C 
BRANCH  12  13
HETATM   13  C   UNK N   1       7.497   4.525   0.264  0.00  0.00     0.068 C 
BRANCH  13  14
HETATM   14  C   UNK N   1       8.903   4.017   0.265  0.00  0.00    -0.054 A 
HETATM   15  C   UNK N   1       9.167   2.646   0.202  0.00  0.00     0.046 A 
HETATM   16  C   UNK N   1      10.474   2.155   0.186  0.00  0.00     0.102 A 
HETATM   17  C   UNK N   1      11.553   3.075   0.246  0.00  0.00     0.101 A 
HETATM   18  C   UNK N   1      11.275   4.455   0.316  0.00  0.00     0.040 A 
HETATM   19  C   UNK N   1       9.960   4.920   0.325  0.00  0.00     0.010 A 
BRANCH  16  20
HETATM   20  O   UNK N   1      10.635   0.806   0.112  0.00  0.00    -0.353 OA
HETATM   21  C   UNK N   1      11.839   0.144   0.059  0.00  0.00     0.210 C 
ENDBRANCH  16  20
BRANCH  17  22
HETATM   22  O   UNK N   1      12.835   2.634   0.242  0.00  0.00    -0.353 OA
HETATM   23  C   UNK N   1      13.925   3.471   0.332  0.00  0.00     0.210 C 
ENDBRANCH  17  22
ENDBRANCH  13  14
ENDBRANCH  12  13
ENDBRANCH  10  12
ENDBRANCH   9  10
ENDBRANCH   8   9
ENDBRANCH   7   8
ENDBRANCH   2   7
BRANCH   2  24
HETATM   24  C   UNK N   1       3.039  -0.973   0.044  0.00  0.00    -0.032 A 
HETATM   25  C   UNK N   1       2.048  -1.835   0.549  0.00  0.00     0.048 A 
HETATM   26  C   UNK N   1       2.173  -3.245   0.391  0.00  0.00     0.102 A 
HETATM   27  C   UNK N   1       3.311  -3.780  -0.244  0.00  0.00     0.101 A 
HETATM   28  C   UNK N   1       4.272  -2.917  -0.766  0.00  0.00     0.040 A 
HETATM   29  C   UNK N   1       4.113  -1.551  -0.652  0.00  0.00     0.012 A 
BRANCH  26  30
HETATM   30  O   UNK N   1       1.213  -4.098   0.822  0.00  0.00    -0.353 OA
HETATM   31  C   UNK N   1      -0.015  -3.682   1.278  0.00  0.00     0.210 C 
ENDBRANCH  26  30
BRANCH  27  32
HETATM   32  O   UNK N   1       3.457  -5.124  -0.362  0.00  0.00    -0.353 OA
HETATM   33  C   UNK N   1       4.587  -5.709  -0.896  0.00  0.00     0.210 C 
ENDBRANCH  27  32
ENDBRANCH   2  24
TORSDOF 13
