MODEL 1
REMARK VINA RESULT:      -5.8      0.000      0.000
REMARK  13 active torsions:
REMARK  status: ('A' for Active; 'I' for Inactive)
REMARK    1  A    between atoms: O_1  and  C_19 
REMARK    2  A    between atoms: O_2  and  C_23 
REMARK    3  A    between atoms: O_3  and  C_27 
REMARK    4  A    between atoms: O_4  and  C_30 
REMARK    5  A    between atoms: N_5  and  C_12 
REMARK    6  A    between atoms: N_5  and  C_18 
REMARK    7  A    between atoms: C_7  and  C_8 
REMARK    8  A    between atoms: C_7  and  C_9 
REMARK    9  A    between atoms: C_7  and  C_11 
REMARK   10  A    between atoms: C_9  and  C_10 
REMARK   11  A    between atoms: C_10  and  C_12 
REMARK   12  A    between atoms: C_18  and  C_22 
REMARK   13  A    between atoms: C_22  and  C_24 
ROOT
HETATM    1  N   UNK N   1      30.107  22.995  -1.536  0.00  0.00    -0.196 NA
HETATM    2  C   UNK N   1      30.045  24.005  -3.969  0.00  0.00     0.079 C 
HETATM    3  C   UNK N   1      30.058  23.447  -2.600  0.00  0.00     0.074 C 
ENDROOT
BRANCH   2   4
HETATM    4  C   UNK N   1      31.215  25.026  -4.062  0.00  0.00     0.004 C 
HETATM    5  C   UNK N   1      30.826  26.389  -3.472  0.00  0.00     0.011 C 
HETATM    6  C   UNK N   1      31.661  25.268  -5.501  0.00  0.00     0.011 C 
ENDBRANCH   2   4
BRANCH   2   7
HETATM    7  C   UNK N   1      28.741  24.805  -4.267  0.00  0.00     0.032 C 
BRANCH   7   8
HETATM    8  C   UNK N   1      27.537  24.428  -3.412  0.00  0.00     0.032 C 
BRANCH   8   9
HETATM    9  C   UNK N   1      26.277  25.090  -3.899  0.00  0.00     0.272 C 
BRANCH   9  10
HETATM   10  N   UNK N   1      26.513  26.476  -4.293  0.00  0.00     0.084 N 
HETATM   11  C   UNK N   1      26.023  27.345  -3.233  0.00  0.00     0.309 C 
BRANCH  10  12
HETATM   12  C   UNK N   1      25.704  26.760  -5.468  0.00  0.00     0.276 C 
BRANCH  12  13
HETATM   13  C   UNK N   1      26.569  27.031  -6.695  0.00  0.00     0.068 C 
BRANCH  13  14
HETATM   14  C   UNK N   1      26.735  25.781  -7.499  0.00  0.00    -0.054 A 
HETATM   15  C   UNK N   1      25.698  24.850  -7.594  0.00  0.00     0.046 A 
HETATM   16  C   UNK N   1      25.830  23.686  -8.353  0.00  0.00     0.102 A 
HETATM   17  C   UNK N   1      27.053  23.445  -9.031  0.00  0.00     0.101 A 
HETATM   18  C   UNK N   1      28.096  24.387  -8.922  0.00  0.00     0.040 A 
HETATM   19  C   UNK N   1      27.936  25.546  -8.162  0.00  0.00     0.010 A 
BRANCH  16  20
HETATM   20  O   UNK N   1      24.763  22.842  -8.397  0.00  0.00    -0.353 OA
HETATM   21  C   UNK N   1      24.614  21.699  -7.649  0.00  0.00     0.210 C 
ENDBRANCH  16  20
BRANCH  17  22
HETATM   22  O   UNK N   1      27.221  22.320  -9.770  0.00  0.00    -0.353 OA
HETATM   23  C   UNK N   1      26.937  22.247 -11.115  0.00  0.00     0.210 C 
ENDBRANCH  17  22
ENDBRANCH  13  14
ENDBRANCH  12  13
ENDBRANCH  10  12
ENDBRANCH   9  10
ENDBRANCH   8   9
ENDBRANCH   7   8
ENDBRANCH   2   7
BRANCH   2  24
HETATM   24  C   UNK N   1      30.156  22.765  -4.873  0.00  0.00    -0.032 A 
HETATM   25  C   UNK N   1      31.076  21.723  -4.653  0.00  0.00     0.048 A 
HETATM   26  C   UNK N   1      31.057  20.562  -5.478  0.00  0.00     0.102 A 
HETATM   27  C   UNK N   1      30.136  20.472  -6.540  0.00  0.00     0.101 A 
HETATM   28  C   UNK N   1      29.211  21.496  -6.731  0.00  0.00     0.040 A 
HETATM   29  C   UNK N   1      29.206  22.592  -5.893  0.00  0.00     0.012 A 
BRANCH  26  30
HETATM   30  O   UNK N   1      31.896  19.521  -5.261  0.00  0.00    -0.353 OA
HETATM   31  C   UNK N   1      33.220  19.677  -4.925  0.00  0.00     0.210 C 
ENDBRANCH  26  30
BRANCH  27  32
HETATM   32  O   UNK N   1      30.139  19.387  -7.355  0.00  0.00    -0.353 OA
HETATM   33  C   UNK N   1      30.091  19.486  -8.731  0.00  0.00     0.210 C 
ENDBRANCH  27  32
ENDBRANCH   2  24
TORSDOF 13
ENDMDL
MODEL 2
REMARK VINA RESULT:      -5.6      1.661      5.735
REMARK  13 active torsions:
REMARK  status: ('A' for Active; 'I' for Inactive)
REMARK    1  A    between atoms: O_1  and  C_19 
REMARK    2  A    between atoms: O_2  and  C_23 
REMARK    3  A    between atoms: O_3  and  C_27 
REMARK    4  A    between atoms: O_4  and  C_30 
REMARK    5  A    between atoms: N_5  and  C_12 
REMARK    6  A    between atoms: N_5  and  C_18 
REMARK    7  A    between atoms: C_7  and  C_8 
REMARK    8  A    between atoms: C_7  and  C_9 
REMARK    9  A    between atoms: C_7  and  C_11 
REMARK   10  A    between atoms: C_9  and  C_10 
REMARK   11  A    between atoms: C_10  and  C_12 
REMARK   12  A    between atoms: C_18  and  C_22 
REMARK   13  A    between atoms: C_22  and  C_24 
ROOT
HETATM    1  N   UNK N   1      29.111  27.487  -6.313  0.00  0.00    -0.196 NA
HETATM    2  C   UNK N   1      26.754  26.462  -5.730  0.00  0.00     0.079 C 
HETATM    3  C   UNK N   1      28.086  27.025  -6.040  0.00  0.00     0.074 C 
ENDROOT
BRANCH   2   4
HETATM    4  C   UNK N   1      25.851  27.643  -5.271  0.00  0.00     0.004 C 
HETATM    5  C   UNK N   1      25.989  27.910  -3.766  0.00  0.00     0.011 C 
HETATM    6  C   UNK N   1      24.373  27.385  -5.550  0.00  0.00     0.011 C 
ENDBRANCH   2   4
BRANCH   2   7
HETATM    7  C   UNK N   1      26.801  25.459  -4.538  0.00  0.00     0.032 C 
BRANCH   7   8
HETATM    8  C   UNK N   1      28.194  25.142  -4.009  0.00  0.00     0.032 C 
BRANCH   8   9
HETATM    9  C   UNK N   1      28.248  23.791  -3.348  0.00  0.00     0.272 C 
BRANCH   9  10
HETATM   10  N   UNK N   1      29.554  23.536  -2.750  0.00  0.00     0.084 N 
HETATM   11  C   UNK N   1      30.511  24.475  -3.316  0.00  0.00     0.309 C 
BRANCH  10  12
HETATM   12  C   UNK N   1      29.989  22.208  -3.156  0.00  0.00     0.276 C 
BRANCH  12  13
HETATM   13  C   UNK N   1      31.037  22.273  -4.263  0.00  0.00     0.068 C 
BRANCH  13  14
HETATM   14  C   UNK N   1      30.507  21.654  -5.516  0.00  0.00    -0.054 A 
HETATM   15  C   UNK N   1      29.706  22.390  -6.393  0.00  0.00     0.046 A 
HETATM   16  C   UNK N   1      29.216  21.832  -7.575  0.00  0.00     0.102 A 
HETATM   17  C   UNK N   1      29.533  20.483  -7.880  0.00  0.00     0.101 A 
HETATM   18  C   UNK N   1      30.336  19.748  -6.985  0.00  0.00     0.040 A 
HETATM   19  C   UNK N   1      30.818  20.330  -5.813  0.00  0.00     0.010 A 
BRANCH  16  20
HETATM   20  O   UNK N   1      28.454  22.628  -8.374  0.00  0.00    -0.353 OA
HETATM   21  C   UNK N   1      28.922  23.427  -9.390  0.00  0.00     0.210 C 
ENDBRANCH  16  20
BRANCH  17  22
HETATM   22  O   UNK N   1      29.067  19.906  -9.015  0.00  0.00    -0.353 OA
HETATM   23  C   UNK N   1      29.865  19.603 -10.095  0.00  0.00     0.210 C 
ENDBRANCH  17  22
ENDBRANCH  13  14
ENDBRANCH  12  13
ENDBRANCH  10  12
ENDBRANCH   9  10
ENDBRANCH   8   9
ENDBRANCH   7   8
ENDBRANCH   2   7
BRANCH   2  24
HETATM   24  C   UNK N   1      26.338  25.760  -7.033  0.00  0.00    -0.032 A 
HETATM   25  C   UNK N   1      25.725  24.494  -7.073  0.00  0.00     0.048 A 
HETATM   26  C   UNK N   1      25.281  23.948  -8.311  0.00  0.00     0.102 A 
HETATM   27  C   UNK N   1      25.489  24.664  -9.506  0.00  0.00     0.101 A 
HETATM   28  C   UNK N   1      26.071  25.929  -9.453  0.00  0.00     0.040 A 
HETATM   29  C   UNK N   1      26.449  26.469  -8.241  0.00  0.00     0.012 A 
BRANCH  26  30
HETATM   30  O   UNK N   1      24.643  22.755  -8.376  0.00  0.00    -0.353 OA
HETATM   31  C   UNK N   1      25.106  21.619  -7.756  0.00  0.00     0.210 C 
ENDBRANCH  26  30
BRANCH  27  32
HETATM   32  O   UNK N   1      25.107  24.133 -10.695  0.00  0.00    -0.353 OA
HETATM   33  C   UNK N   1      25.950  24.053 -11.784  0.00  0.00     0.210 C 
ENDBRANCH  27  32
ENDBRANCH   2  24
TORSDOF 13
ENDMDL
MODEL 3
REMARK VINA RESULT:      -5.6      3.364      6.786
REMARK  13 active torsions:
REMARK  status: ('A' for Active; 'I' for Inactive)
REMARK    1  A    between atoms: O_1  and  C_19 
REMARK    2  A    between atoms: O_2  and  C_23 
REMARK    3  A    between atoms: O_3  and  C_27 
REMARK    4  A    between atoms: O_4  and  C_30 
REMARK    5  A    between atoms: N_5  and  C_12 
REMARK    6  A    between atoms: N_5  and  C_18 
REMARK    7  A    between atoms: C_7  and  C_8 
REMARK    8  A    between atoms: C_7  and  C_9 
REMARK    9  A    between atoms: C_7  and  C_11 
REMARK   10  A    between atoms: C_9  and  C_10 
REMARK   11  A    between atoms: C_10  and  C_12 
REMARK   12  A    between atoms: C_18  and  C_22 
REMARK   13  A    between atoms: C_22  and  C_24 
ROOT
HETATM    1  N   UNK N   1      28.762  22.956  -8.011  0.00  0.00    -0.196 NA
HETATM    2  C   UNK N   1      26.161  23.145  -7.630  0.00  0.00     0.079 C 
HETATM    3  C   UNK N   1      27.618  23.047  -7.865  0.00  0.00     0.074 C 
ENDROOT
BRANCH   2   4
HETATM    4  C   UNK N   1      25.637  21.701  -7.380  0.00  0.00     0.004 C 
HETATM    5  C   UNK N   1      25.798  20.818  -8.626  0.00  0.00     0.011 C 
HETATM    6  C   UNK N   1      24.160  21.678  -6.999  0.00  0.00     0.011 C 
ENDBRANCH   2   4
BRANCH   2   7
HETATM    7  C   UNK N   1      25.397  23.679  -8.878  0.00  0.00     0.032 C 
BRANCH   7   8
HETATM    8  C   UNK N   1      26.258  23.930 -10.110  0.00  0.00     0.032 C 
BRANCH   8   9
HETATM    9  C   UNK N   1      26.396  25.399 -10.406  0.00  0.00     0.272 C 
BRANCH   9  10
HETATM   10  N   UNK N   1      27.680  25.704 -11.028  0.00  0.00     0.084 N 
HETATM   11  C   UNK N   1      28.227  24.475 -11.583  0.00  0.00     0.309 C 
BRANCH  10  12
HETATM   12  C   UNK N   1      28.601  26.131  -9.985  0.00  0.00     0.276 C 
BRANCH  12  13
HETATM   13  C   UNK N   1      28.189  27.472  -9.385  0.00  0.00     0.068 C 
BRANCH  13  14
HETATM   14  C   UNK N   1      28.484  27.497  -7.919  0.00  0.00    -0.054 A 
HETATM   15  C   UNK N   1      28.982  26.363  -7.272  0.00  0.00     0.046 A 
HETATM   16  C   UNK N   1      29.278  26.374  -5.907  0.00  0.00     0.102 A 
HETATM   17  C   UNK N   1      29.055  27.564  -5.166  0.00  0.00     0.101 A 
HETATM   18  C   UNK N   1      28.546  28.699  -5.828  0.00  0.00     0.040 A 
HETATM   19  C   UNK N   1      28.264  28.664  -7.194  0.00  0.00     0.010 A 
BRANCH  16  20
HETATM   20  O   UNK N   1      29.769  25.227  -5.364  0.00  0.00    -0.353 OA
HETATM   21  C   UNK N   1      31.052  24.754  -5.515  0.00  0.00     0.210 C 
ENDBRANCH  16  20
BRANCH  17  22
HETATM   22  O   UNK N   1      29.321  27.608  -3.838  0.00  0.00    -0.353 OA
HETATM   23  C   UNK N   1      30.547  27.967  -3.322  0.00  0.00     0.210 C 
ENDBRANCH  17  22
ENDBRANCH  13  14
ENDBRANCH  12  13
ENDBRANCH  10  12
ENDBRANCH   9  10
ENDBRANCH   8   9
ENDBRANCH   7   8
ENDBRANCH   2   7
BRANCH   2  24
HETATM   24  C   UNK N   1      26.044  24.120  -6.446  0.00  0.00    -0.032 A 
HETATM   25  C   UNK N   1      26.480  23.816  -5.143  0.00  0.00     0.048 A 
HETATM   26  C   UNK N   1      26.425  24.803  -4.118  0.00  0.00     0.102 A 
HETATM   27  C   UNK N   1      25.901  26.080  -4.402  0.00  0.00     0.101 A 
HETATM   28  C   UNK N   1      25.499  26.379  -5.702  0.00  0.00     0.040 A 
HETATM   29  C   UNK N   1      25.606  25.430  -6.698  0.00  0.00     0.012 A 
BRANCH  26  30
HETATM   30  O   UNK N   1      26.883  24.558  -2.867  0.00  0.00    -0.353 OA
HETATM   31  C   UNK N   1      27.944  23.725  -2.602  0.00  0.00     0.210 C 
ENDBRANCH  26  30
BRANCH  27  32
HETATM   32  O   UNK N   1      25.808  27.012  -3.421  0.00  0.00    -0.353 OA
HETATM   33  C   UNK N   1      25.732  28.366  -3.681  0.00  0.00     0.210 C 
ENDBRANCH  27  32
ENDBRANCH   2  24
TORSDOF 13
ENDMDL
MODEL 4
REMARK VINA RESULT:      -5.4     12.186     15.037
REMARK  13 active torsions:
REMARK  status: ('A' for Active; 'I' for Inactive)
REMARK    1  A    between atoms: O_1  and  C_19 
REMARK    2  A    between atoms: O_2  and  C_23 
REMARK    3  A    between atoms: O_3  and  C_27 
REMARK    4  A    between atoms: O_4  and  C_30 
REMARK    5  A    between atoms: N_5  and  C_12 
REMARK    6  A    between atoms: N_5  and  C_18 
REMARK    7  A    between atoms: C_7  and  C_8 
REMARK    8  A    between atoms: C_7  and  C_9 
REMARK    9  A    between atoms: C_7  and  C_11 
REMARK   10  A    between atoms: C_9  and  C_10 
REMARK   11  A    between atoms: C_10  and  C_12 
REMARK   12  A    between atoms: C_18  and  C_22 
REMARK   13  A    between atoms: C_22  and  C_24 
ROOT
HETATM    1  N   UNK N   1      34.624  18.352   7.605  0.00  0.00    -0.196 NA
HETATM    2  C   UNK N   1      32.722  16.946   6.442  0.00  0.00     0.079 C 
HETATM    3  C   UNK N   1      33.774  17.744   7.109  0.00  0.00     0.074 C 
ENDROOT
BRANCH   2   4
HETATM    4  C   UNK N   1      32.648  17.428   4.964  0.00  0.00     0.004 C 
HETATM    5  C   UNK N   1      31.196  17.528   4.474  0.00  0.00     0.011 C 
HETATM    6  C   UNK N   1      33.381  16.489   4.010  0.00  0.00     0.011 C 
ENDBRANCH   2   4
BRANCH   2   7
HETATM    7  C   UNK N   1      31.312  17.198   7.056  0.00  0.00     0.032 C 
BRANCH   7   8
HETATM    8  C   UNK N   1      31.296  17.479   8.554  0.00  0.00     0.032 C 
BRANCH   8   9
HETATM    9  C   UNK N   1      30.432  18.664   8.891  0.00  0.00     0.272 C 
BRANCH   9  10
HETATM   10  N   UNK N   1      29.304  18.284   9.735  0.00  0.00     0.084 N 
HETATM   11  C   UNK N   1      29.550  16.949  10.260  0.00  0.00     0.309 C 
BRANCH  10  12
HETATM   12  C   UNK N   1      28.120  18.185   8.895  0.00  0.00     0.276 C 
BRANCH  12  13
HETATM   13  C   UNK N   1      28.212  19.104   7.681  0.00  0.00     0.068 C 
BRANCH  13  14
HETATM   14  C   UNK N   1      27.960  18.333   6.425  0.00  0.00    -0.054 A 
HETATM   15  C   UNK N   1      27.865  16.939   6.451  0.00  0.00     0.046 A 
HETATM   16  C   UNK N   1      27.614  16.204   5.290  0.00  0.00     0.102 A 
HETATM   17  C   UNK N   1      27.464  16.895   4.060  0.00  0.00     0.101 A 
HETATM   18  C   UNK N   1      27.568  18.300   4.045  0.00  0.00     0.040 A 
HETATM   19  C   UNK N   1      27.814  19.011   5.219  0.00  0.00     0.010 A 
BRANCH  16  20
HETATM   20  O   UNK N   1      27.526  14.851   5.412  0.00  0.00    -0.353 OA
HETATM   21  C   UNK N   1      26.395  14.149   5.754  0.00  0.00     0.210 C 
ENDBRANCH  16  20
BRANCH  17  22
HETATM   22  O   UNK N   1      27.229  16.213   2.911  0.00  0.00    -0.353 OA
HETATM   23  C   UNK N   1      25.965  15.961   2.425  0.00  0.00     0.210 C 
ENDBRANCH  17  22
ENDBRANCH  13  14
ENDBRANCH  12  13
ENDBRANCH  10  12
ENDBRANCH   9  10
ENDBRANCH   8   9
ENDBRANCH   7   8
ENDBRANCH   2   7
BRANCH   2  24
HETATM   24  C   UNK N   1      33.172  15.491   6.656  0.00  0.00    -0.032 A 
HETATM   25  C   UNK N   1      34.331  15.133   7.369  0.00  0.00     0.048 A 
HETATM   26  C   UNK N   1      34.633  13.761   7.608  0.00  0.00     0.102 A 
HETATM   27  C   UNK N   1      33.784  12.759   7.098  0.00  0.00     0.101 A 
HETATM   28  C   UNK N   1      32.624  13.125   6.419  0.00  0.00     0.040 A 
HETATM   29  C   UNK N   1      32.316  14.458   6.240  0.00  0.00     0.012 A 
BRANCH  26  30
HETATM   30  O   UNK N   1      35.714  13.386   8.332  0.00  0.00    -0.353 OA
HETATM   31  C   UNK N   1      36.562  14.281   8.939  0.00  0.00     0.210 C 
ENDBRANCH  26  30
BRANCH  27  32
HETATM   32  O   UNK N   1      34.087  11.449   7.286  0.00  0.00    -0.353 OA
HETATM   33  C   UNK N   1      33.394  10.641   8.164  0.00  0.00     0.210 C 
ENDBRANCH  27  32
ENDBRANCH   2  24
TORSDOF 13
ENDMDL
MODEL 5
REMARK VINA RESULT:      -5.4      1.851      5.857
REMARK  13 active torsions:
REMARK  status: ('A' for Active; 'I' for Inactive)
REMARK    1  A    between atoms: O_1  and  C_19 
REMARK    2  A    between atoms: O_2  and  C_23 
REMARK    3  A    between atoms: O_3  and  C_27 
REMARK    4  A    between atoms: O_4  and  C_30 
REMARK    5  A    between atoms: N_5  and  C_12 
REMARK    6  A    between atoms: N_5  and  C_18 
REMARK    7  A    between atoms: C_7  and  C_8 
REMARK    8  A    between atoms: C_7  and  C_9 
REMARK    9  A    between atoms: C_7  and  C_11 
REMARK   10  A    between atoms: C_9  and  C_10 
REMARK   11  A    between atoms: C_10  and  C_12 
REMARK   12  A    between atoms: C_18  and  C_22 
REMARK   13  A    between atoms: C_22  and  C_24 
ROOT
HETATM    1  N   UNK N   1      28.566  28.535  -7.754  0.00  0.00    -0.196 NA
HETATM    2  C   UNK N   1      27.217  27.331  -5.837  0.00  0.00     0.079 C 
HETATM    3  C   UNK N   1      27.994  28.002  -6.902  0.00  0.00     0.074 C 
ENDROOT
BRANCH   2   4
HETATM    4  C   UNK N   1      26.284  28.402  -5.203  0.00  0.00     0.004 C 
HETATM    5  C   UNK N   1      27.065  29.656  -4.782  0.00  0.00     0.011 C 
HETATM    6  C   UNK N   1      25.563  27.883  -3.963  0.00  0.00     0.011 C 
ENDBRANCH   2   4
BRANCH   2   7
HETATM    7  C   UNK N   1      28.127  26.806  -4.686  0.00  0.00     0.032 C 
BRANCH   7   8
HETATM    8  C   UNK N   1      29.599  26.643  -5.043  0.00  0.00     0.032 C 
BRANCH   8   9
HETATM    9  C   UNK N   1      29.988  25.194  -5.165  0.00  0.00     0.272 C 
BRANCH   9  10
HETATM   10  N   UNK N   1      29.606  24.433  -3.980  0.00  0.00     0.084 N 
HETATM   11  C   UNK N   1      30.817  24.043  -3.273  0.00  0.00     0.309 C 
BRANCH  10  12
HETATM   12  C   UNK N   1      28.968  23.200  -4.417  0.00  0.00     0.276 C 
BRANCH  12  13
HETATM   13  C   UNK N   1      29.983  22.076  -4.602  0.00  0.00     0.068 C 
BRANCH  13  14
HETATM   14  C   UNK N   1      29.796  21.422  -5.933  0.00  0.00    -0.054 A 
HETATM   15  C   UNK N   1      28.988  22.009  -6.910  0.00  0.00     0.046 A 
HETATM   16  C   UNK N   1      28.815  21.420  -8.164  0.00  0.00     0.102 A 
HETATM   17  C   UNK N   1      29.470  20.192  -8.441  0.00  0.00     0.101 A 
HETATM   18  C   UNK N   1      30.277  19.605  -7.446  0.00  0.00     0.040 A 
HETATM   19  C   UNK N   1      30.438  20.217  -6.203  0.00  0.00     0.010 A 
BRANCH  16  20
HETATM   20  O   UNK N   1      28.019  22.070  -9.057  0.00  0.00    -0.353 OA
HETATM   21  C   UNK N   1      28.444  22.984  -9.992  0.00  0.00     0.210 C 
ENDBRANCH  16  20
BRANCH  17  22
HETATM   22  O   UNK N   1      29.317  19.586  -9.644  0.00  0.00    -0.353 OA
HETATM   23  C   UNK N   1      30.327  18.899 -10.281  0.00  0.00     0.210 C 
ENDBRANCH  17  22
ENDBRANCH  13  14
ENDBRANCH  12  13
ENDBRANCH  10  12
ENDBRANCH   9  10
ENDBRANCH   8   9
ENDBRANCH   7   8
ENDBRANCH   2   7
BRANCH   2  24
HETATM   24  C   UNK N   1      26.517  26.172  -6.567  0.00  0.00    -0.032 A 
HETATM   25  C   UNK N   1      26.201  26.195  -7.938  0.00  0.00     0.048 A 
HETATM   26  C   UNK N   1      25.638  25.046  -8.566  0.00  0.00     0.102 A 
HETATM   27  C   UNK N   1      25.365  23.895  -7.801  0.00  0.00     0.101 A 
HETATM   28  C   UNK N   1      25.708  23.873  -6.451  0.00  0.00     0.040 A 
HETATM   29  C   UNK N   1      26.301  24.973  -5.868  0.00  0.00     0.012 A 
BRANCH  26  30
HETATM   30  O   UNK N   1      25.369  25.020  -9.893  0.00  0.00    -0.353 OA
HETATM   31  C   UNK N   1      24.807  26.076 -10.569  0.00  0.00     0.210 C 
ENDBRANCH  26  30
BRANCH  27  32
HETATM   32  O   UNK N   1      24.790  22.812  -8.383  0.00  0.00    -0.353 OA
HETATM   33  C   UNK N   1      24.816  21.555  -7.812  0.00  0.00     0.210 C 
ENDBRANCH  27  32
ENDBRANCH   2  24
TORSDOF 13
ENDMDL
MODEL 6
REMARK VINA RESULT:      -5.3      1.815      2.914
REMARK  13 active torsions:
REMARK  status: ('A' for Active; 'I' for Inactive)
REMARK    1  A    between atoms: O_1  and  C_19 
REMARK    2  A    between atoms: O_2  and  C_23 
REMARK    3  A    between atoms: O_3  and  C_27 
REMARK    4  A    between atoms: O_4  and  C_30 
REMARK    5  A    between atoms: N_5  and  C_12 
REMARK    6  A    between atoms: N_5  and  C_18 
REMARK    7  A    between atoms: C_7  and  C_8 
REMARK    8  A    between atoms: C_7  and  C_9 
REMARK    9  A    between atoms: C_7  and  C_11 
REMARK   10  A    between atoms: C_9  and  C_10 
REMARK   11  A    between atoms: C_10  and  C_12 
REMARK   12  A    between atoms: C_18  and  C_22 
REMARK   13  A    between atoms: C_22  and  C_24 
ROOT
HETATM    1  N   UNK N   1      30.370  21.434  -3.583  0.00  0.00    -0.196 NA
HETATM    2  C   UNK N   1      29.702  23.396  -5.210  0.00  0.00     0.079 C 
HETATM    3  C   UNK N   1      30.066  22.306  -4.280  0.00  0.00     0.074 C 
ENDROOT
BRANCH   2   4
HETATM    4  C   UNK N   1      31.028  24.062  -5.679  0.00  0.00     0.004 C 
HETATM    5  C   UNK N   1      31.755  24.755  -4.519  0.00  0.00     0.011 C 
HETATM    6  C   UNK N   1      30.797  25.114  -6.760  0.00  0.00     0.011 C 
ENDBRANCH   2   4
BRANCH   2   7
HETATM    7  C   UNK N   1      28.874  24.515  -4.510  0.00  0.00     0.032 C 
BRANCH   7   8
HETATM    8  C   UNK N   1      28.097  24.075  -3.276  0.00  0.00     0.032 C 
BRANCH   8   9
HETATM    9  C   UNK N   1      26.696  24.622  -3.272  0.00  0.00     0.272 C 
BRANCH   9  10
HETATM   10  N   UNK N   1      26.589  25.834  -4.078  0.00  0.00     0.084 N 
HETATM   11  C   UNK N   1      26.265  26.946  -3.196  0.00  0.00     0.309 C 
BRANCH  10  12
HETATM   12  C   UNK N   1      25.458  25.682  -4.981  0.00  0.00     0.276 C 
BRANCH  12  13
HETATM   13  C   UNK N   1      25.278  26.910  -5.869  0.00  0.00     0.068 C 
BRANCH  13  14
HETATM   14  C   UNK N   1      26.176  26.825  -7.060  0.00  0.00    -0.054 A 
HETATM   15  C   UNK N   1      25.843  26.016  -8.150  0.00  0.00     0.046 A 
HETATM   16  C   UNK N   1      26.663  25.938  -9.278  0.00  0.00     0.102 A 
HETATM   17  C   UNK N   1      27.865  26.692  -9.305  0.00  0.00     0.101 A 
HETATM   18  C   UNK N   1      28.194  27.499  -8.198  0.00  0.00     0.040 A 
HETATM   19  C   UNK N   1      27.355  27.564  -7.086  0.00  0.00     0.010 A 
BRANCH  16  20
HETATM   20  O   UNK N   1      26.253  25.133 -10.295  0.00  0.00    -0.353 OA
HETATM   21  C   UNK N   1      25.184  25.372 -11.126  0.00  0.00     0.210 C 
ENDBRANCH  16  20
BRANCH  17  22
HETATM   22  O   UNK N   1      28.691  26.633 -10.380  0.00  0.00    -0.353 OA
HETATM   23  C   UNK N   1      29.790  25.807 -10.447  0.00  0.00     0.210 C 
ENDBRANCH  17  22
ENDBRANCH  13  14
ENDBRANCH  12  13
ENDBRANCH  10  12
ENDBRANCH   9  10
ENDBRANCH   8   9
ENDBRANCH   7   8
ENDBRANCH   2   7
BRANCH   2  24
HETATM   24  C   UNK N   1      28.877  22.691  -6.300  0.00  0.00    -0.032 A 
HETATM   25  C   UNK N   1      29.302  21.526  -6.965  0.00  0.00     0.048 A 
HETATM   26  C   UNK N   1      28.443  20.875  -7.896  0.00  0.00     0.102 A 
HETATM   27  C   UNK N   1      27.175  21.420  -8.178  0.00  0.00     0.101 A 
HETATM   28  C   UNK N   1      26.753  22.558  -7.493  0.00  0.00     0.040 A 
HETATM   29  C   UNK N   1      27.574  23.148  -6.555  0.00  0.00     0.012 A 
BRANCH  26  30
HETATM   30  O   UNK N   1      28.804  19.725  -8.515  0.00  0.00    -0.353 OA
HETATM   31  C   UNK N   1      29.370  18.660  -7.856  0.00  0.00     0.210 C 
ENDBRANCH  26  30
BRANCH  27  32
HETATM   32  O   UNK N   1      26.368  20.829  -9.094  0.00  0.00    -0.353 OA
HETATM   33  C   UNK N   1      26.104  21.388 -10.328  0.00  0.00     0.210 C 
ENDBRANCH  27  32
ENDBRANCH   2  24
TORSDOF 13
ENDMDL
MODEL 7
REMARK VINA RESULT:      -5.3      2.539      6.771
REMARK  13 active torsions:
REMARK  status: ('A' for Active; 'I' for Inactive)
REMARK    1  A    between atoms: O_1  and  C_19 
REMARK    2  A    between atoms: O_2  and  C_23 
REMARK    3  A    between atoms: O_3  and  C_27 
REMARK    4  A    between atoms: O_4  and  C_30 
REMARK    5  A    between atoms: N_5  and  C_12 
REMARK    6  A    between atoms: N_5  and  C_18 
REMARK    7  A    between atoms: C_7  and  C_8 
REMARK    8  A    between atoms: C_7  and  C_9 
REMARK    9  A    between atoms: C_7  and  C_11 
REMARK   10  A    between atoms: C_9  and  C_10 
REMARK   11  A    between atoms: C_10  and  C_12 
REMARK   12  A    between atoms: C_18  and  C_22 
REMARK   13  A    between atoms: C_22  and  C_24 
ROOT
HETATM    1  N   UNK N   1      29.005  25.908  -4.919  0.00  0.00    -0.196 NA
HETATM    2  C   UNK N   1      26.557  26.292  -5.815  0.00  0.00     0.079 C 
HETATM    3  C   UNK N   1      27.924  26.056  -5.304  0.00  0.00     0.074 C 
ENDROOT
BRANCH   2   4
HETATM    4  C   UNK N   1      25.996  27.538  -5.071  0.00  0.00     0.004 C 
HETATM    5  C   UNK N   1      26.883  28.773  -5.287  0.00  0.00     0.011 C 
HETATM    6  C   UNK N   1      25.891  27.316  -3.565  0.00  0.00     0.011 C 
ENDBRANCH   2   4
BRANCH   2   7
HETATM    7  C   UNK N   1      25.593  25.114  -5.484  0.00  0.00     0.032 C 
BRANCH   7   8
HETATM    8  C   UNK N   1      26.249  23.742  -5.391  0.00  0.00     0.032 C 
BRANCH   8   9
HETATM    9  C   UNK N   1      25.760  22.813  -6.469  0.00  0.00     0.272 C 
BRANCH   9  10
HETATM   10  N   UNK N   1      26.688  22.759  -7.594  0.00  0.00     0.084 N 
HETATM   11  C   UNK N   1      26.535  21.471  -8.254  0.00  0.00     0.309 C 
BRANCH  10  12
HETATM   12  C   UNK N   1      28.044  22.795  -7.068  0.00  0.00     0.276 C 
BRANCH  12  13
HETATM   13  C   UNK N   1      28.716  21.427  -7.148  0.00  0.00     0.068 C 
BRANCH  13  14
HETATM   14  C   UNK N   1      29.765  21.302  -6.090  0.00  0.00    -0.054 A 
HETATM   15  C   UNK N   1      29.737  22.118  -4.956  0.00  0.00     0.046 A 
HETATM   16  C   UNK N   1      30.700  22.004  -3.951  0.00  0.00     0.102 A 
HETATM   17  C   UNK N   1      31.733  21.042  -4.098  0.00  0.00     0.101 A 
HETATM   18  C   UNK N   1      31.755  20.229  -5.249  0.00  0.00     0.040 A 
HETATM   19  C   UNK N   1      30.778  20.359  -6.236  0.00  0.00     0.010 A 
BRANCH  16  20
HETATM   20  O   UNK N   1      30.586  22.833  -2.878  0.00  0.00    -0.353 OA
HETATM   21  C   UNK N   1      29.425  23.101  -2.192  0.00  0.00     0.210 C 
ENDBRANCH  16  20
BRANCH  17  22
HETATM   22  O   UNK N   1      32.690  20.910  -3.147  0.00  0.00    -0.353 OA
HETATM   23  C   UNK N   1      34.030  20.773  -3.434  0.00  0.00     0.210 C 
ENDBRANCH  17  22
ENDBRANCH  13  14
ENDBRANCH  12  13
ENDBRANCH  10  12
ENDBRANCH   9  10
ENDBRANCH   8   9
ENDBRANCH   7   8
ENDBRANCH   2   7
BRANCH   2  24
HETATM   24  C   UNK N   1      26.752  26.443  -7.333  0.00  0.00    -0.032 A 
HETATM   25  C   UNK N   1      27.979  26.792  -7.928  0.00  0.00     0.048 A 
HETATM   26  C   UNK N   1      28.108  26.821  -9.347  0.00  0.00     0.102 A 
HETATM   27  C   UNK N   1      26.992  26.532 -10.157  0.00  0.00     0.101 A 
HETATM   28  C   UNK N   1      25.790  26.160  -9.558  0.00  0.00     0.040 A 
HETATM   29  C   UNK N   1      25.694  26.085  -8.183  0.00  0.00     0.012 A 
BRANCH  26  30
HETATM   30  O   UNK N   1      29.287  27.104  -9.949  0.00  0.00    -0.353 OA
HETATM   31  C   UNK N   1      29.832  28.365  -9.982  0.00  0.00     0.210 C 
ENDBRANCH  26  30
BRANCH  27  32
HETATM   32  O   UNK N   1      27.096  26.597 -11.508  0.00  0.00    -0.353 OA
HETATM   33  C   UNK N   1      25.997  26.588 -12.343  0.00  0.00     0.210 C 
ENDBRANCH  27  32
ENDBRANCH   2  24
TORSDOF 13
ENDMDL
MODEL 8
REMARK VINA RESULT:      -5.2     11.723     13.720
REMARK  13 active torsions:
REMARK  status: ('A' for Active; 'I' for Inactive)
REMARK    1  A    between atoms: O_1  and  C_19 
REMARK    2  A    between atoms: O_2  and  C_23 
REMARK    3  A    between atoms: O_3  and  C_27 
REMARK    4  A    between atoms: O_4  and  C_30 
REMARK    5  A    between atoms: N_5  and  C_12 
REMARK    6  A    between atoms: N_5  and  C_18 
REMARK    7  A    between atoms: C_7  and  C_8 
REMARK    8  A    between atoms: C_7  and  C_9 
REMARK    9  A    between atoms: C_7  and  C_11 
REMARK   10  A    between atoms: C_9  and  C_10 
REMARK   11  A    between atoms: C_10  and  C_12 
REMARK   12  A    between atoms: C_18  and  C_22 
REMARK   13  A    between atoms: C_22  and  C_24 
ROOT
HETATM    1  N   UNK N   1      25.538  15.787   6.230  0.00  0.00    -0.196 NA
HETATM    2  C   UNK N   1      27.081  17.298   4.720  0.00  0.00     0.079 C 
HETATM    3  C   UNK N   1      26.213  16.435   5.550  0.00  0.00     0.074 C 
ENDROOT
BRANCH   2   4
HETATM    4  C   UNK N   1      26.340  18.654   4.536  0.00  0.00     0.004 C 
HETATM    5  C   UNK N   1      25.102  18.506   3.639  0.00  0.00     0.011 C 
HETATM    6  C   UNK N   1      27.230  19.720   3.903  0.00  0.00     0.011 C 
ENDBRANCH   2   4
BRANCH   2   7
HETATM    7  C   UNK N   1      27.294  16.718   3.289  0.00  0.00     0.032 C 
BRANCH   7   8
HETATM    8  C   UNK N   1      26.720  15.326   3.060  0.00  0.00     0.032 C 
BRANCH   8   9
HETATM    9  C   UNK N   1      25.729  15.309   1.927  0.00  0.00     0.272 C 
BRANCH   9  10
HETATM   10  N   UNK N   1      24.821  14.171   2.023  0.00  0.00     0.084 N 
HETATM   11  C   UNK N   1      24.079  14.068   0.775  0.00  0.00     0.309 C 
BRANCH  10  12
HETATM   12  C   UNK N   1      23.844  14.453   3.063  0.00  0.00     0.276 C 
BRANCH  12  13
HETATM   13  C   UNK N   1      22.419  14.429   2.518  0.00  0.00     0.068 C 
BRANCH  13  14
HETATM   14  C   UNK N   1      21.771  15.765   2.700  0.00  0.00    -0.054 A 
HETATM   15  C   UNK N   1      22.022  16.530   3.842  0.00  0.00     0.046 A 
HETATM   16  C   UNK N   1      21.438  17.785   4.021  0.00  0.00     0.102 A 
HETATM   17  C   UNK N   1      20.564  18.284   3.021  0.00  0.00     0.101 A 
HETATM   18  C   UNK N   1      20.313  17.501   1.876  0.00  0.00     0.040 A 
HETATM   19  C   UNK N   1      20.913  16.252   1.719  0.00  0.00     0.010 A 
BRANCH  16  20
HETATM   20  O   UNK N   1      21.748  18.464   5.159  0.00  0.00    -0.353 OA
HETATM   21  C   UNK N   1      21.341  18.127   6.429  0.00  0.00     0.210 C 
ENDBRANCH  16  20
BRANCH  17  22
HETATM   22  O   UNK N   1      19.971  19.495   3.165  0.00  0.00    -0.353 OA
HETATM   23  C   UNK N   1      20.543  20.674   2.741  0.00  0.00     0.210 C 
ENDBRANCH  17  22
ENDBRANCH  13  14
ENDBRANCH  12  13
ENDBRANCH  10  12
ENDBRANCH   9  10
ENDBRANCH   8   9
ENDBRANCH   7   8
ENDBRANCH   2   7
BRANCH   2  24
HETATM   24  C   UNK N   1      28.404  17.353   5.502  0.00  0.00    -0.032 A 
HETATM   25  C   UNK N   1      28.492  17.734   6.854  0.00  0.00     0.048 A 
HETATM   26  C   UNK N   1      29.740  17.670   7.539  0.00  0.00     0.102 A 
HETATM   27  C   UNK N   1      30.896  17.254   6.850  0.00  0.00     0.101 A 
HETATM   28  C   UNK N   1      30.792  16.851   5.520  0.00  0.00     0.040 A 
HETATM   29  C   UNK N   1      29.568  16.869   4.883  0.00  0.00     0.012 A 
BRANCH  26  30
HETATM   30  O   UNK N   1      29.848  17.982   8.852  0.00  0.00    -0.353 OA
HETATM   31  C   UNK N   1      29.179  17.307   9.845  0.00  0.00     0.210 C 
ENDBRANCH  26  30
BRANCH  27  32
HETATM   32  O   UNK N   1      32.095  17.229   7.484  0.00  0.00    -0.353 OA
HETATM   33  C   UNK N   1      33.288  17.480   6.837  0.00  0.00     0.210 C 
ENDBRANCH  27  32
ENDBRANCH   2  24
TORSDOF 13
ENDMDL
MODEL 9
REMARK VINA RESULT:      -5.2     11.568     13.788
REMARK  13 active torsions:
REMARK  status: ('A' for Active; 'I' for Inactive)
REMARK    1  A    between atoms: O_1  and  C_19 
REMARK    2  A    between atoms: O_2  and  C_23 
REMARK    3  A    between atoms: O_3  and  C_27 
REMARK    4  A    between atoms: O_4  and  C_30 
REMARK    5  A    between atoms: N_5  and  C_12 
REMARK    6  A    between atoms: N_5  and  C_18 
REMARK    7  A    between atoms: C_7  and  C_8 
REMARK    8  A    between atoms: C_7  and  C_9 
REMARK    9  A    between atoms: C_7  and  C_11 
REMARK   10  A    between atoms: C_9  and  C_10 
REMARK   11  A    between atoms: C_10  and  C_12 
REMARK   12  A    between atoms: C_18  and  C_22 
REMARK   13  A    between atoms: C_22  and  C_24 
ROOT
HETATM    1  N   UNK N   1      27.165  15.967   6.386  0.00  0.00    -0.196 NA
HETATM    2  C   UNK N   1      28.989  17.675   7.221  0.00  0.00     0.079 C 
HETATM    3  C   UNK N   1      27.952  16.734   6.746  0.00  0.00     0.074 C 
ENDROOT
BRANCH   2   4
HETATM    4  C   UNK N   1      29.146  17.452   8.753  0.00  0.00     0.004 C 
HETATM    5  C   UNK N   1      27.791  17.209   9.432  0.00  0.00     0.011 C 
HETATM    6  C   UNK N   1      29.792  18.646   9.450  0.00  0.00     0.011 C 
ENDBRANCH   2   4
BRANCH   2   7
HETATM    7  C   UNK N   1      28.564  19.163   7.037  0.00  0.00     0.032 C 
BRANCH   7   8
HETATM    8  C   UNK N   1      27.249  19.377   6.298  0.00  0.00     0.032 C 
BRANCH   8   9
HETATM    9  C   UNK N   1      27.439  20.177   5.038  0.00  0.00     0.272 C 
BRANCH   9  10
HETATM   10  N   UNK N   1      26.796  19.539   3.893  0.00  0.00     0.084 N 
HETATM   11  C   UNK N   1      26.313  20.579   2.998  0.00  0.00     0.309 C 
BRANCH  10  12
HETATM   12  C   UNK N   1      25.621  18.825   4.370  0.00  0.00     0.276 C 
BRANCH  12  13
HETATM   13  C   UNK N   1      24.333  19.437   3.828  0.00  0.00     0.068 C 
BRANCH  13  14
HETATM   14  C   UNK N   1      23.151  18.641   4.278  0.00  0.00    -0.054 A 
HETATM   15  C   UNK N   1      23.260  17.738   5.340  0.00  0.00     0.046 A 
HETATM   16  C   UNK N   1      22.163  16.998   5.784  0.00  0.00     0.102 A 
HETATM   17  C   UNK N   1      20.914  17.164   5.131  0.00  0.00     0.101 A 
HETATM   18  C   UNK N   1      20.816  18.072   4.057  0.00  0.00     0.040 A 
HETATM   19  C   UNK N   1      21.927  18.804   3.636  0.00  0.00     0.010 A 
BRANCH  16  20
HETATM   20  O   UNK N   1      22.361  16.152   6.831  0.00  0.00    -0.353 OA
HETATM   21  C   UNK N   1      22.848  14.869   6.743  0.00  0.00     0.210 C 
ENDBRANCH  16  20
BRANCH  17  22
HETATM   22  O   UNK N   1      19.829  16.455   5.529  0.00  0.00    -0.353 OA
HETATM   23  C   UNK N   1      19.112  15.632   4.690  0.00  0.00     0.210 C 
ENDBRANCH  17  22
ENDBRANCH  13  14
ENDBRANCH  12  13
ENDBRANCH  10  12
ENDBRANCH   9  10
ENDBRANCH   8   9
ENDBRANCH   7   8
ENDBRANCH   2   7
BRANCH   2  24
HETATM   24  C   UNK N   1      30.217  17.336   6.359  0.00  0.00    -0.032 A 
HETATM   25  C   UNK N   1      31.345  16.650   6.849  0.00  0.00     0.048 A 
HETATM   26  C   UNK N   1      32.404  16.288   5.968  0.00  0.00     0.102 A 
HETATM   27  C   UNK N   1      32.338  16.649   4.608  0.00  0.00     0.101 A 
HETATM   28  C   UNK N   1      31.205  17.302   4.128  0.00  0.00     0.040 A 
HETATM   29  C   UNK N   1      30.162  17.601   4.981  0.00  0.00     0.012 A 
BRANCH  26  30
HETATM   30  O   UNK N   1      33.479  15.585   6.398  0.00  0.00    -0.353 OA
HETATM   31  C   UNK N   1      34.501  16.142   7.129  0.00  0.00     0.210 C 
ENDBRANCH  26  30
BRANCH  27  32
HETATM   32  O   UNK N   1      33.362  16.344   3.771  0.00  0.00    -0.353 OA
HETATM   33  C   UNK N   1      33.342  15.246   2.935  0.00  0.00     0.210 C 
ENDBRANCH  27  32
ENDBRANCH   2  24
TORSDOF 13
ENDMDL
