MODEL 1
REMARK VINA RESULT:      -6.1      0.000      0.000
REMARK  10 active torsions:
REMARK  status: ('A' for Active; 'I' for Inactive)
REMARK    1  A    between atoms: O_1  and  C_11 
REMARK    2  A    between atoms: O_1  and  C_12 
REMARK    3  A    between atoms: O_2  and  C_21 
REMARK    4  A    between atoms: O_3  and  C_22 
REMARK    5  A    between atoms: O_4  and  C_23 
REMARK    6  A    between atoms: N_6  and  C_8 
REMARK    7  A    between atoms: N_7  and  C_10 
REMARK       I    between atoms: N_7  and  C_18 
REMARK    8  A    between atoms: C_8  and  C_11 
REMARK    9  A    between atoms: C_9  and  C_10 
REMARK   10  A    between atoms: C_13  and  C_18 
ROOT
HETATM    1  O   UNK N   1      24.892  22.715  -6.541  0.00  0.00    -0.268 OA
HETATM    2  N   UNK N   1      25.501  24.546  -7.644  0.00  0.00    -0.353 N 
HETATM    3  C   UNK N   1      25.796  23.469  -6.860  0.00  0.00     0.252 C 
HETATM    4  H   UNK N   1      24.636  24.558  -8.114  0.00  0.00     0.163 HD
ENDROOT
BRANCH   2   5
HETATM    5  C   UNK N   1      26.395  25.668  -7.820  0.00  0.00     0.161 C 
BRANCH   5   6
HETATM    6  C   UNK N   1      26.250  26.722  -6.779  0.00  0.00    -0.040 A 
HETATM    7  C   UNK N   1      25.177  26.709  -5.885  0.00  0.00     0.011 A 
HETATM    8  C   UNK N   1      25.125  27.644  -4.850  0.00  0.00     0.037 A 
HETATM    9  C   UNK N   1      26.155  28.591  -4.688  0.00  0.00     0.068 A 
HETATM   10  C   UNK N   1      27.217  28.608  -5.596  0.00  0.00     0.037 A 
HETATM   11  C   UNK N   1      27.266  27.674  -6.632  0.00  0.00     0.011 A 
BRANCH   9  12
HETATM   12  O   UNK N   1      26.154  29.474  -3.659  0.00  0.00    -0.349 OA
BRANCH  12  13
HETATM   13  C   UNK N   1      26.753  30.715  -3.722  0.00  0.00     0.206 C 
BRANCH  13  14
HETATM   14  C   UNK N   1      27.595  30.966  -2.478  0.00  0.00     0.297 C 
BRANCH  14  15
HETATM   15  N   UNK N   1      28.095  29.701  -1.965  0.00  0.00     0.082 N 
HETATM   16  C   UNK N   1      29.406  29.481  -2.548  0.00  0.00     0.309 C 
HETATM   17  C   UNK N   1      28.294  29.864  -0.538  0.00  0.00     0.309 C 
ENDBRANCH  14  15
ENDBRANCH  13  14
ENDBRANCH  12  13
ENDBRANCH   9  12
ENDBRANCH   5   6
ENDBRANCH   2   5
BRANCH   3  18
HETATM   18  C   UNK N   1      27.177  23.187  -6.371  0.00  0.00     0.037 A 
HETATM   19  C   UNK N   1      27.987  22.260  -7.021  0.00  0.00     0.057 A 
HETATM   20  C   UNK N   1      29.253  21.923  -6.553  0.00  0.00     0.105 A 
HETATM   21  C   UNK N   1      29.758  22.562  -5.388  0.00  0.00     0.135 A 
HETATM   22  C   UNK N   1      28.942  23.520  -4.720  0.00  0.00     0.105 A 
HETATM   23  C   UNK N   1      27.653  23.799  -5.211  0.00  0.00     0.057 A 
BRANCH  20  24
HETATM   24  O   UNK N   1      29.935  20.979  -7.256  0.00  0.00    -0.353 OA
HETATM   25  C   UNK N   1      29.536  19.678  -7.461  0.00  0.00     0.210 C 
ENDBRANCH  20  24
BRANCH  21  26
HETATM   26  O   UNK N   1      31.008  22.237  -4.953  0.00  0.00    -0.351 OA
HETATM   27  C   UNK N   1      31.331  21.212  -4.095  0.00  0.00     0.210 C 
ENDBRANCH  21  26
BRANCH  22  28
HETATM   28  O   UNK N   1      29.401  24.166  -3.619  0.00  0.00    -0.353 OA
HETATM   29  C   UNK N   1      30.155  25.317  -3.668  0.00  0.00     0.210 C 
ENDBRANCH  22  28
ENDBRANCH   3  18
TORSDOF 10
ENDMDL
MODEL 2
REMARK VINA RESULT:      -6.1     16.628     20.376
REMARK  10 active torsions:
REMARK  status: ('A' for Active; 'I' for Inactive)
REMARK    1  A    between atoms: O_1  and  C_11 
REMARK    2  A    between atoms: O_1  and  C_12 
REMARK    3  A    between atoms: O_2  and  C_21 
REMARK    4  A    between atoms: O_3  and  C_22 
REMARK    5  A    between atoms: O_4  and  C_23 
REMARK    6  A    between atoms: N_6  and  C_8 
REMARK    7  A    between atoms: N_7  and  C_10 
REMARK       I    between atoms: N_7  and  C_18 
REMARK    8  A    between atoms: C_8  and  C_11 
REMARK    9  A    between atoms: C_9  and  C_10 
REMARK   10  A    between atoms: C_13  and  C_18 
ROOT
HETATM    1  O   UNK N   1      34.823  19.062   8.339  0.00  0.00    -0.268 OA
HETATM    2  N   UNK N   1      34.961  16.959   9.044  0.00  0.00    -0.353 N 
HETATM    3  C   UNK N   1      34.321  17.950   8.360  0.00  0.00     0.252 C 
HETATM    4  H   UNK N   1      35.902  17.100   9.299  0.00  0.00     0.163 HD
ENDROOT
BRANCH   2   5
HETATM    5  C   UNK N   1      34.329  15.713   9.413  0.00  0.00     0.161 C 
BRANCH   5   6
HETATM    6  C   UNK N   1      35.006  15.000  10.530  0.00  0.00    -0.040 A 
HETATM    7  C   UNK N   1      35.569  15.705  11.597  0.00  0.00     0.011 A 
HETATM    8  C   UNK N   1      36.100  15.009  12.684  0.00  0.00     0.037 A 
HETATM    9  C   UNK N   1      36.057  13.602  12.724  0.00  0.00     0.068 A 
HETATM   10  C   UNK N   1      35.507  12.905  11.645  0.00  0.00     0.037 A 
HETATM   11  C   UNK N   1      34.979  13.601  10.558  0.00  0.00     0.011 A 
BRANCH   9  12
HETATM   12  O   UNK N   1      36.517  12.907  13.794  0.00  0.00    -0.349 OA
BRANCH  12  13
HETATM   13  C   UNK N   1      35.702  12.445  14.807  0.00  0.00     0.206 C 
BRANCH  13  14
HETATM   14  C   UNK N   1      35.783  13.364  16.019  0.00  0.00     0.297 C 
BRANCH  14  15
HETATM   15  N   UNK N   1      34.919  12.856  17.072  0.00  0.00     0.082 N 
HETATM   16  C   UNK N   1      35.338  11.496  17.362  0.00  0.00     0.309 C 
HETATM   17  C   UNK N   1      35.187  13.639  18.263  0.00  0.00     0.309 C 
ENDBRANCH  14  15
ENDBRANCH  13  14
ENDBRANCH  12  13
ENDBRANCH   9  12
ENDBRANCH   5   6
ENDBRANCH   2   5
BRANCH   3  18
HETATM   18  C   UNK N   1      33.029  17.729   7.648  0.00  0.00     0.037 A 
HETATM   19  C   UNK N   1      31.815  17.889   8.311  0.00  0.00     0.057 A 
HETATM   20  C   UNK N   1      30.594  17.627   7.697  0.00  0.00     0.105 A 
HETATM   21  C   UNK N   1      30.573  17.208   6.339  0.00  0.00     0.135 A 
HETATM   22  C   UNK N   1      31.809  17.050   5.647  0.00  0.00     0.105 A 
HETATM   23  C   UNK N   1      33.019  17.292   6.324  0.00  0.00     0.057 A 
BRANCH  20  24
HETATM   24  O   UNK N   1      29.479  17.788   8.458  0.00  0.00    -0.353 OA
HETATM   25  C   UNK N   1      29.449  18.172   9.779  0.00  0.00     0.210 C 
ENDBRANCH  20  24
BRANCH  21  26
HETATM   26  O   UNK N   1      29.369  16.975   5.744  0.00  0.00    -0.351 OA
HETATM   27  C   UNK N   1      28.597  17.899   5.079  0.00  0.00     0.210 C 
ENDBRANCH  21  26
BRANCH  22  28
HETATM   28  O   UNK N   1      31.825  16.674   4.344  0.00  0.00    -0.353 OA
HETATM   29  C   UNK N   1      32.185  15.415   3.917  0.00  0.00     0.210 C 
ENDBRANCH  22  28
ENDBRANCH   3  18
TORSDOF 10
ENDMDL
MODEL 3
REMARK VINA RESULT:      -6.0     11.932     14.192
REMARK  10 active torsions:
REMARK  status: ('A' for Active; 'I' for Inactive)
REMARK    1  A    between atoms: O_1  and  C_11 
REMARK    2  A    between atoms: O_1  and  C_12 
REMARK    3  A    between atoms: O_2  and  C_21 
REMARK    4  A    between atoms: O_3  and  C_22 
REMARK    5  A    between atoms: O_4  and  C_23 
REMARK    6  A    between atoms: N_6  and  C_8 
REMARK    7  A    between atoms: N_7  and  C_10 
REMARK       I    between atoms: N_7  and  C_18 
REMARK    8  A    between atoms: C_8  and  C_11 
REMARK    9  A    between atoms: C_9  and  C_10 
REMARK   10  A    between atoms: C_13  and  C_18 
ROOT
HETATM    1  O   UNK N   1      28.114  17.416   9.831  0.00  0.00    -0.268 OA
HETATM    2  N   UNK N   1      27.595  18.941   8.299  0.00  0.00    -0.353 N 
HETATM    3  C   UNK N   1      28.405  17.952   8.774  0.00  0.00     0.252 C 
HETATM    4  H   UNK N   1      26.695  19.034   8.689  0.00  0.00     0.163 HD
ENDROOT
BRANCH   2   5
HETATM    5  C   UNK N   1      27.989  19.856   7.253  0.00  0.00     0.161 C 
BRANCH   5   6
HETATM    6  C   UNK N   1      27.129  19.791   6.040  0.00  0.00    -0.040 A 
HETATM    7  C   UNK N   1      26.824  18.567   5.439  0.00  0.00     0.011 A 
HETATM    8  C   UNK N   1      25.927  18.524   4.370  0.00  0.00     0.037 A 
HETATM    9  C   UNK N   1      25.313  19.702   3.902  0.00  0.00     0.068 A 
HETATM   10  C   UNK N   1      25.637  20.924   4.498  0.00  0.00     0.037 A 
HETATM   11  C   UNK N   1      26.535  20.966   5.565  0.00  0.00     0.011 A 
BRANCH   9  12
HETATM   12  O   UNK N   1      24.399  19.678   2.902  0.00  0.00    -0.349 OA
BRANCH  12  13
HETATM   13  C   UNK N   1      23.180  20.322   2.971  0.00  0.00     0.206 C 
BRANCH  13  14
HETATM   14  C   UNK N   1      22.100  19.371   3.471  0.00  0.00     0.297 C 
BRANCH  14  15
HETATM   15  N   UNK N   1      20.821  19.740   2.888  0.00  0.00     0.082 N 
HETATM   16  C   UNK N   1      21.091  20.601   1.750  0.00  0.00     0.309 C 
HETATM   17  C   UNK N   1      20.222  18.528   2.363  0.00  0.00     0.309 C 
ENDBRANCH  14  15
ENDBRANCH  13  14
ENDBRANCH  12  13
ENDBRANCH   9  12
ENDBRANCH   5   6
ENDBRANCH   2   5
BRANCH   3  18
HETATM   18  C   UNK N   1      29.635  17.508   8.056  0.00  0.00     0.037 A 
HETATM   19  C   UNK N   1      29.551  16.658   6.957  0.00  0.00     0.057 A 
HETATM   20  C   UNK N   1      30.680  16.172   6.306  0.00  0.00     0.105 A 
HETATM   21  C   UNK N   1      31.969  16.573   6.753  0.00  0.00     0.135 A 
HETATM   22  C   UNK N   1      32.067  17.452   7.870  0.00  0.00     0.105 A 
HETATM   23  C   UNK N   1      30.896  17.886   8.518  0.00  0.00     0.057 A 
BRANCH  20  24
HETATM   24  O   UNK N   1      30.470  15.322   5.266  0.00  0.00    -0.353 OA
HETATM   25  C   UNK N   1      30.111  15.681   3.987  0.00  0.00     0.210 C 
ENDBRANCH  20  24
BRANCH  21  26
HETATM   26  O   UNK N   1      33.066  16.106   6.092  0.00  0.00    -0.351 OA
HETATM   27  C   UNK N   1      33.648  16.670   4.980  0.00  0.00     0.210 C 
ENDBRANCH  21  26
BRANCH  22  28
HETATM   28  O   UNK N   1      33.280  17.874   8.309  0.00  0.00    -0.353 OA
HETATM   29  C   UNK N   1      34.105  17.121   9.115  0.00  0.00     0.210 C 
ENDBRANCH  22  28
ENDBRANCH   3  18
TORSDOF 10
ENDMDL
MODEL 4
REMARK VINA RESULT:      -6.0     11.745     14.283
REMARK  10 active torsions:
REMARK  status: ('A' for Active; 'I' for Inactive)
REMARK    1  A    between atoms: O_1  and  C_11 
REMARK    2  A    between atoms: O_1  and  C_12 
REMARK    3  A    between atoms: O_2  and  C_21 
REMARK    4  A    between atoms: O_3  and  C_22 
REMARK    5  A    between atoms: O_4  and  C_23 
REMARK    6  A    between atoms: N_6  and  C_8 
REMARK    7  A    between atoms: N_7  and  C_10 
REMARK       I    between atoms: N_7  and  C_18 
REMARK    8  A    between atoms: C_8  and  C_11 
REMARK    9  A    between atoms: C_9  and  C_10 
REMARK   10  A    between atoms: C_13  and  C_18 
ROOT
HETATM    1  O   UNK N   1      26.118  21.075   2.208  0.00  0.00    -0.268 OA
HETATM    2  N   UNK N   1      26.809  20.454   4.228  0.00  0.00    -0.353 N 
HETATM    3  C   UNK N   1      25.857  20.500   3.252  0.00  0.00     0.252 C 
HETATM    4  H   UNK N   1      27.737  20.674   3.984  0.00  0.00     0.163 HD
ENDROOT
BRANCH   2   5
HETATM    5  C   UNK N   1      26.524  20.099   5.599  0.00  0.00     0.161 C 
BRANCH   5   6
HETATM    6  C   UNK N   1      27.517  19.166   6.198  0.00  0.00    -0.040 A 
HETATM    7  C   UNK N   1      28.160  18.201   5.419  0.00  0.00     0.011 A 
HETATM    8  C   UNK N   1      29.167  17.414   5.982  0.00  0.00     0.037 A 
HETATM    9  C   UNK N   1      29.552  17.596   7.324  0.00  0.00     0.068 A 
HETATM   10  C   UNK N   1      28.892  18.551   8.101  0.00  0.00     0.037 A 
HETATM   11  C   UNK N   1      27.885  19.336   7.538  0.00  0.00     0.011 A 
BRANCH   9  12
HETATM   12  O   UNK N   1      30.563  16.881   7.876  0.00  0.00    -0.349 OA
BRANCH  12  13
HETATM   13  C   UNK N   1      31.876  16.979   7.464  0.00  0.00     0.206 C 
BRANCH  13  14
HETATM   14  C   UNK N   1      32.613  18.039   8.273  0.00  0.00     0.297 C 
BRANCH  14  15
HETATM   15  N   UNK N   1      34.044  17.908   8.056  0.00  0.00     0.082 N 
HETATM   16  C   UNK N   1      34.584  17.136   9.161  0.00  0.00     0.309 C 
HETATM   17  C   UNK N   1      34.227  17.110   6.859  0.00  0.00     0.309 C 
ENDBRANCH  14  15
ENDBRANCH  13  14
ENDBRANCH  12  13
ENDBRANCH   9  12
ENDBRANCH   5   6
ENDBRANCH   2   5
BRANCH   3  18
HETATM   18  C   UNK N   1      24.508  19.885   3.418  0.00  0.00     0.037 A 
HETATM   19  C   UNK N   1      24.369  18.607   3.951  0.00  0.00     0.057 A 
HETATM   20  C   UNK N   1      23.133  17.977   4.057  0.00  0.00     0.105 A 
HETATM   21  C   UNK N   1      21.962  18.665   3.636  0.00  0.00     0.135 A 
HETATM   22  C   UNK N   1      22.091  19.978   3.098  0.00  0.00     0.105 A 
HETATM   23  C   UNK N   1      23.368  20.557   2.977  0.00  0.00     0.057 A 
BRANCH  20  24
HETATM   24  O   UNK N   1      23.130  16.715   4.563  0.00  0.00    -0.353 OA
HETATM   25  C   UNK N   1      23.332  15.556   3.850  0.00  0.00     0.210 C 
ENDBRANCH  20  24
BRANCH  21  26
HETATM   26  O   UNK N   1      20.755  18.044   3.766  0.00  0.00    -0.351 OA
HETATM   27  C   UNK N   1      20.117  17.296   2.804  0.00  0.00     0.210 C 
ENDBRANCH  21  26
BRANCH  22  28
HETATM   28  O   UNK N   1      20.993  20.673   2.708  0.00  0.00    -0.353 OA
HETATM   29  C   UNK N   1      20.653  20.888   1.391  0.00  0.00     0.210 C 
ENDBRANCH  22  28
ENDBRANCH   3  18
TORSDOF 10
ENDMDL
MODEL 5
REMARK VINA RESULT:      -6.0      0.339      2.426
REMARK  10 active torsions:
REMARK  status: ('A' for Active; 'I' for Inactive)
REMARK    1  A    between atoms: O_1  and  C_11 
REMARK    2  A    between atoms: O_1  and  C_12 
REMARK    3  A    between atoms: O_2  and  C_21 
REMARK    4  A    between atoms: O_3  and  C_22 
REMARK    5  A    between atoms: O_4  and  C_23 
REMARK    6  A    between atoms: N_6  and  C_8 
REMARK    7  A    between atoms: N_7  and  C_10 
REMARK       I    between atoms: N_7  and  C_18 
REMARK    8  A    between atoms: C_8  and  C_11 
REMARK    9  A    between atoms: C_9  and  C_10 
REMARK   10  A    between atoms: C_13  and  C_18 
ROOT
HETATM    1  O   UNK N   1      24.990  22.608  -6.340  0.00  0.00    -0.268 OA
HETATM    2  N   UNK N   1      25.464  24.433  -7.517  0.00  0.00    -0.353 N 
HETATM    3  C   UNK N   1      25.843  23.396  -6.717  0.00  0.00     0.252 C 
HETATM    4  H   UNK N   1      24.581  24.389  -7.951  0.00  0.00     0.163 HD
ENDROOT
BRANCH   2   5
HETATM    5  C   UNK N   1      26.292  25.591  -7.761  0.00  0.00     0.161 C 
BRANCH   5   6
HETATM    6  C   UNK N   1      26.182  26.643  -6.714  0.00  0.00    -0.040 A 
HETATM    7  C   UNK N   1      25.071  26.703  -5.869  0.00  0.00     0.011 A 
HETATM    8  C   UNK N   1      25.045  27.629  -4.824  0.00  0.00     0.037 A 
HETATM    9  C   UNK N   1      26.136  28.491  -4.603  0.00  0.00     0.068 A 
HETATM   10  C   UNK N   1      27.236  28.435  -5.462  0.00  0.00     0.037 A 
HETATM   11  C   UNK N   1      27.261  27.511  -6.508  0.00  0.00     0.011 A 
BRANCH   9  12
HETATM   12  O   UNK N   1      26.155  29.361  -3.563  0.00  0.00    -0.349 OA
BRANCH  12  13
HETATM   13  C   UNK N   1      26.589  30.666  -3.672  0.00  0.00     0.206 C 
BRANCH  13  14
HETATM   14  C   UNK N   1      27.665  30.961  -2.636  0.00  0.00     0.297 C 
BRANCH  14  15
HETATM   15  N   UNK N   1      28.136  29.715  -2.056  0.00  0.00     0.082 N 
HETATM   16  C   UNK N   1      29.488  29.492  -2.537  0.00  0.00     0.309 C 
HETATM   17  C   UNK N   1      28.230  29.915  -0.623  0.00  0.00     0.309 C 
ENDBRANCH  14  15
ENDBRANCH  13  14
ENDBRANCH  12  13
ENDBRANCH   9  12
ENDBRANCH   5   6
ENDBRANCH   2   5
BRANCH   3  18
HETATM   18  C   UNK N   1      27.254  23.195  -6.278  0.00  0.00     0.037 A 
HETATM   19  C   UNK N   1      27.766  23.892  -5.187  0.00  0.00     0.057 A 
HETATM   20  C   UNK N   1      29.095  23.779  -4.791  0.00  0.00     0.105 A 
HETATM   21  C   UNK N   1      29.962  22.904  -5.501  0.00  0.00     0.135 A 
HETATM   22  C   UNK N   1      29.446  22.178  -6.613  0.00  0.00     0.105 A 
HETATM   23  C   UNK N   1      28.104  22.354  -6.997  0.00  0.00     0.057 A 
BRANCH  20  24
HETATM   24  O   UNK N   1      29.485  24.536  -3.731  0.00  0.00    -0.353 OA
HETATM   25  C   UNK N   1      29.999  25.811  -3.792  0.00  0.00     0.210 C 
ENDBRANCH  20  24
BRANCH  21  26
HETATM   26  O   UNK N   1      31.256  22.787  -5.089  0.00  0.00    -0.351 OA
HETATM   27  C   UNK N   1      31.733  21.909  -4.145  0.00  0.00     0.210 C 
ENDBRANCH  21  26
BRANCH  22  28
HETATM   28  O   UNK N   1      30.238  21.315  -7.299  0.00  0.00    -0.353 OA
HETATM   29  C   UNK N   1      30.242  19.954  -7.094  0.00  0.00     0.210 C 
ENDBRANCH  22  28
ENDBRANCH   3  18
TORSDOF 10
ENDMDL
MODEL 6
REMARK VINA RESULT:      -5.9     12.444     16.297
REMARK  10 active torsions:
REMARK  status: ('A' for Active; 'I' for Inactive)
REMARK    1  A    between atoms: O_1  and  C_11 
REMARK    2  A    between atoms: O_1  and  C_12 
REMARK    3  A    between atoms: O_2  and  C_21 
REMARK    4  A    between atoms: O_3  and  C_22 
REMARK    5  A    between atoms: O_4  and  C_23 
REMARK    6  A    between atoms: N_6  and  C_8 
REMARK    7  A    between atoms: N_7  and  C_10 
REMARK       I    between atoms: N_7  and  C_18 
REMARK    8  A    between atoms: C_8  and  C_11 
REMARK    9  A    between atoms: C_9  and  C_10 
REMARK   10  A    between atoms: C_13  and  C_18 
ROOT
HETATM    1  O   UNK N   1      27.750  16.996   9.428  0.00  0.00    -0.268 OA
HETATM    2  N   UNK N   1      29.700  18.037   9.660  0.00  0.00    -0.353 N 
HETATM    3  C   UNK N   1      28.563  17.773   8.955  0.00  0.00     0.252 C 
HETATM    4  H   UNK N   1      29.729  17.785  10.612  0.00  0.00     0.163 HD
ENDROOT
BRANCH   2   5
HETATM    5  C   UNK N   1      30.864  18.669   9.082  0.00  0.00     0.161 C 
BRANCH   5   6
HETATM    6  C   UNK N   1      31.848  17.711   8.509  0.00  0.00    -0.040 A 
HETATM    7  C   UNK N   1      33.078  18.153   8.015  0.00  0.00     0.011 A 
HETATM    8  C   UNK N   1      34.027  17.222   7.587  0.00  0.00     0.037 A 
HETATM    9  C   UNK N   1      33.763  15.841   7.664  0.00  0.00     0.068 A 
HETATM   10  C   UNK N   1      32.524  15.409   8.144  0.00  0.00     0.037 A 
HETATM   11  C   UNK N   1      31.575  16.340   8.570  0.00  0.00     0.011 A 
BRANCH   9  12
HETATM   12  O   UNK N   1      34.689  14.919   7.304  0.00  0.00    -0.349 OA
BRANCH  12  13
HETATM   13  C   UNK N   1      34.466  13.953   6.344  0.00  0.00     0.206 C 
BRANCH  13  14
HETATM   14  C   UNK N   1      35.024  14.398   4.999  0.00  0.00     0.297 C 
BRANCH  14  15
HETATM   15  N   UNK N   1      33.949  14.462   4.023  0.00  0.00     0.082 N 
HETATM   16  C   UNK N   1      32.843  13.675   4.540  0.00  0.00     0.309 C 
HETATM   17  C   UNK N   1      33.495  15.838   3.972  0.00  0.00     0.309 C 
ENDBRANCH  14  15
ENDBRANCH  13  14
ENDBRANCH  12  13
ENDBRANCH   9  12
ENDBRANCH   5   6
ENDBRANCH   2   5
BRANCH   3  18
HETATM   18  C   UNK N   1      28.281  18.389   7.626  0.00  0.00     0.037 A 
HETATM   19  C   UNK N   1      27.700  19.651   7.535  0.00  0.00     0.057 A 
HETATM   20  C   UNK N   1      27.362  20.227   6.314  0.00  0.00     0.105 A 
HETATM   21  C   UNK N   1      27.642  19.523   5.111  0.00  0.00     0.135 A 
HETATM   22  C   UNK N   1      28.246  18.235   5.191  0.00  0.00     0.105 A 
HETATM   23  C   UNK N   1      28.534  17.680   6.452  0.00  0.00     0.057 A 
BRANCH  20  24
HETATM   24  O   UNK N   1      26.769  21.450   6.357  0.00  0.00    -0.353 OA
HETATM   25  C   UNK N   1      25.946  21.916   7.356  0.00  0.00     0.210 C 
ENDBRANCH  20  24
BRANCH  21  26
HETATM   26  O   UNK N   1      27.325  20.108   3.921  0.00  0.00    -0.351 OA
HETATM   27  C   UNK N   1      26.097  20.082   3.303  0.00  0.00     0.210 C 
ENDBRANCH  21  26
BRANCH  22  28
HETATM   28  O   UNK N   1      28.548  17.545   4.063  0.00  0.00    -0.353 OA
HETATM   29  C   UNK N   1      27.711  16.614   3.490  0.00  0.00     0.210 C 
ENDBRANCH  22  28
ENDBRANCH   3  18
TORSDOF 10
ENDMDL
MODEL 7
REMARK VINA RESULT:      -5.9     11.917     14.521
REMARK  10 active torsions:
REMARK  status: ('A' for Active; 'I' for Inactive)
REMARK    1  A    between atoms: O_1  and  C_11 
REMARK    2  A    between atoms: O_1  and  C_12 
REMARK    3  A    between atoms: O_2  and  C_21 
REMARK    4  A    between atoms: O_3  and  C_22 
REMARK    5  A    between atoms: O_4  and  C_23 
REMARK    6  A    between atoms: N_6  and  C_8 
REMARK    7  A    between atoms: N_7  and  C_10 
REMARK       I    between atoms: N_7  and  C_18 
REMARK    8  A    between atoms: C_8  and  C_11 
REMARK    9  A    between atoms: C_9  and  C_10 
REMARK   10  A    between atoms: C_13  and  C_18 
ROOT
HETATM    1  O   UNK N   1      26.269  21.018   2.302  0.00  0.00    -0.268 OA
HETATM    2  N   UNK N   1      27.023  20.533   4.336  0.00  0.00    -0.353 N 
HETATM    3  C   UNK N   1      26.096  20.406   3.343  0.00  0.00     0.252 C 
HETATM    4  H   UNK N   1      27.901  20.916   4.108  0.00  0.00     0.163 HD
ENDROOT
BRANCH   2   5
HETATM    5  C   UNK N   1      26.781  20.133   5.703  0.00  0.00     0.161 C 
BRANCH   5   6
HETATM    6  C   UNK N   1      27.768  19.150   6.227  0.00  0.00    -0.040 A 
HETATM    7  C   UNK N   1      28.493  18.327   5.361  0.00  0.00     0.011 A 
HETATM    8  C   UNK N   1      29.491  17.494   5.871  0.00  0.00     0.037 A 
HETATM    9  C   UNK N   1      29.785  17.488   7.248  0.00  0.00     0.068 A 
HETATM   10  C   UNK N   1      29.044  18.301   8.108  0.00  0.00     0.037 A 
HETATM   11  C   UNK N   1      28.045  19.132   7.599  0.00  0.00     0.011 A 
BRANCH   9  12
HETATM   12  O   UNK N   1      30.786  16.727   7.757  0.00  0.00    -0.349 OA
BRANCH  12  13
HETATM   13  C   UNK N   1      31.995  17.244   8.175  0.00  0.00     0.206 C 
BRANCH  13  14
HETATM   14  C   UNK N   1      33.015  17.198   7.044  0.00  0.00     0.297 C 
BRANCH  14  15
HETATM   15  N   UNK N   1      34.357  17.183   7.601  0.00  0.00     0.082 N 
HETATM   16  C   UNK N   1      34.594  18.482   8.205  0.00  0.00     0.309 C 
HETATM   17  C   UNK N   1      34.366  16.212   8.678  0.00  0.00     0.309 C 
ENDBRANCH  14  15
ENDBRANCH  13  14
ENDBRANCH  12  13
ENDBRANCH   9  12
ENDBRANCH   5   6
ENDBRANCH   2   5
BRANCH   3  18
HETATM   18  C   UNK N   1      24.877  19.559   3.487  0.00  0.00     0.037 A 
HETATM   19  C   UNK N   1      23.606  20.127   3.441  0.00  0.00     0.057 A 
HETATM   20  C   UNK N   1      22.451  19.377   3.638  0.00  0.00     0.105 A 
HETATM   21  C   UNK N   1      22.558  17.978   3.866  0.00  0.00     0.135 A 
HETATM   22  C   UNK N   1      23.853  17.385   3.905  0.00  0.00     0.105 A 
HETATM   23  C   UNK N   1      24.993  18.192   3.738  0.00  0.00     0.057 A 
BRANCH  20  24
HETATM   24  O   UNK N   1      21.270  20.051   3.602  0.00  0.00    -0.353 OA
HETATM   25  C   UNK N   1      20.654  20.545   2.476  0.00  0.00     0.210 C 
ENDBRANCH  20  24
BRANCH  21  26
HETATM   26  O   UNK N   1      21.417  17.253   4.036  0.00  0.00    -0.351 OA
HETATM   27  C   UNK N   1      20.804  16.968   5.234  0.00  0.00     0.210 C 
ENDBRANCH  21  26
BRANCH  22  28
HETATM   28  O   UNK N   1      23.992  16.049   4.098  0.00  0.00    -0.353 OA
HETATM   29  C   UNK N   1      24.317  15.482   5.310  0.00  0.00     0.210 C 
ENDBRANCH  22  28
ENDBRANCH   3  18
TORSDOF 10
ENDMDL
MODEL 8
REMARK VINA RESULT:      -5.9     13.511     17.107
REMARK  10 active torsions:
REMARK  status: ('A' for Active; 'I' for Inactive)
REMARK    1  A    between atoms: O_1  and  C_11 
REMARK    2  A    between atoms: O_1  and  C_12 
REMARK    3  A    between atoms: O_2  and  C_21 
REMARK    4  A    between atoms: O_3  and  C_22 
REMARK    5  A    between atoms: O_4  and  C_23 
REMARK    6  A    between atoms: N_6  and  C_8 
REMARK    7  A    between atoms: N_7  and  C_10 
REMARK       I    between atoms: N_7  and  C_18 
REMARK    8  A    between atoms: C_8  and  C_11 
REMARK    9  A    between atoms: C_9  and  C_10 
REMARK   10  A    between atoms: C_13  and  C_18 
ROOT
HETATM    1  O   UNK N   1      27.812  16.956   9.777  0.00  0.00    -0.268 OA
HETATM    2  N   UNK N   1      29.760  18.026   9.774  0.00  0.00    -0.353 N 
HETATM    3  C   UNK N   1      28.593  17.668   9.166  0.00  0.00     0.252 C 
HETATM    4  H   UNK N   1      29.838  17.901  10.747  0.00  0.00     0.163 HD
ENDROOT
BRANCH   2   5
HETATM    5  C   UNK N   1      30.888  18.582   9.061  0.00  0.00     0.161 C 
BRANCH   5   6
HETATM    6  C   UNK N   1      31.817  17.557   8.511  0.00  0.00    -0.040 A 
HETATM    7  C   UNK N   1      33.002  17.930   7.871  0.00  0.00     0.011 A 
HETATM    8  C   UNK N   1      33.908  16.949   7.464  0.00  0.00     0.037 A 
HETATM    9  C   UNK N   1      33.647  15.587   7.709  0.00  0.00     0.068 A 
HETATM   10  C   UNK N   1      32.453  15.222   8.335  0.00  0.00     0.037 A 
HETATM   11  C   UNK N   1      31.546  16.203   8.739  0.00  0.00     0.011 A 
BRANCH   9  12
HETATM   12  O   UNK N   1      34.537  14.621   7.371  0.00  0.00    -0.349 OA
BRANCH  12  13
HETATM   13  C   UNK N   1      35.812  14.546   7.894  0.00  0.00     0.206 C 
BRANCH  13  14
HETATM   14  C   UNK N   1      35.795  13.852   9.249  0.00  0.00     0.297 C 
BRANCH  14  15
HETATM   15  N   UNK N   1      36.684  14.548  10.163  0.00  0.00     0.082 N 
HETATM   16  C   UNK N   1      36.024  15.779  10.562  0.00  0.00     0.309 C 
HETATM   17  C   UNK N   1      36.801  13.731  11.356  0.00  0.00     0.309 C 
ENDBRANCH  14  15
ENDBRANCH  13  14
ENDBRANCH  12  13
ENDBRANCH   9  12
ENDBRANCH   5   6
ENDBRANCH   2   5
BRANCH   3  18
HETATM   18  C   UNK N   1      28.241  18.103   7.784  0.00  0.00     0.037 A 
HETATM   19  C   UNK N   1      27.960  19.439   7.508  0.00  0.00     0.057 A 
HETATM   20  C   UNK N   1      27.563  19.868   6.245  0.00  0.00     0.105 A 
HETATM   21  C   UNK N   1      27.465  18.925   5.187  0.00  0.00     0.135 A 
HETATM   22  C   UNK N   1      27.760  17.557   5.455  0.00  0.00     0.105 A 
HETATM   23  C   UNK N   1      28.121  17.166   6.758  0.00  0.00     0.057 A 
BRANCH  20  24
HETATM   24  O   UNK N   1      27.285  21.193   6.108  0.00  0.00    -0.353 OA
HETATM   25  C   UNK N   1      26.312  21.890   6.788  0.00  0.00     0.210 C 
ENDBRANCH  20  24
BRANCH  21  26
HETATM   26  O   UNK N   1      27.096  19.363   3.950  0.00  0.00    -0.351 OA
HETATM   27  C   UNK N   1      25.812  19.435   3.462  0.00  0.00     0.210 C 
ENDBRANCH  21  26
BRANCH  22  28
HETATM   28  O   UNK N   1      27.699  16.632   4.464  0.00  0.00    -0.353 OA
HETATM   29  C   UNK N   1      26.696  15.695   4.354  0.00  0.00     0.210 C 
ENDBRANCH  22  28
ENDBRANCH   3  18
TORSDOF 10
ENDMDL
MODEL 9
REMARK VINA RESULT:      -5.8     16.723     20.452
REMARK  10 active torsions:
REMARK  status: ('A' for Active; 'I' for Inactive)
REMARK    1  A    between atoms: O_1  and  C_11 
REMARK    2  A    between atoms: O_1  and  C_12 
REMARK    3  A    between atoms: O_2  and  C_21 
REMARK    4  A    between atoms: O_3  and  C_22 
REMARK    5  A    between atoms: O_4  and  C_23 
REMARK    6  A    between atoms: N_6  and  C_8 
REMARK    7  A    between atoms: N_7  and  C_10 
REMARK       I    between atoms: N_7  and  C_18 
REMARK    8  A    between atoms: C_8  and  C_11 
REMARK    9  A    between atoms: C_9  and  C_10 
REMARK   10  A    between atoms: C_13  and  C_18 
ROOT
HETATM    1  O   UNK N   1      34.813  18.996   8.298  0.00  0.00    -0.268 OA
HETATM    2  N   UNK N   1      34.956  16.946   9.145  0.00  0.00    -0.353 N 
HETATM    3  C   UNK N   1      34.307  17.891   8.407  0.00  0.00     0.252 C 
HETATM    4  H   UNK N   1      35.903  17.098   9.370  0.00  0.00     0.163 HD
ENDROOT
BRANCH   2   5
HETATM    5  C   UNK N   1      34.326  15.732   9.612  0.00  0.00     0.161 C 
BRANCH   5   6
HETATM    6  C   UNK N   1      35.118  14.997  10.635  0.00  0.00    -0.040 A 
HETATM    7  C   UNK N   1      35.524  15.622  11.817  0.00  0.00     0.011 A 
HETATM    8  C   UNK N   1      36.168  14.878  12.808  0.00  0.00     0.037 A 
HETATM    9  C   UNK N   1      36.399  13.500  12.633  0.00  0.00     0.068 A 
HETATM   10  C   UNK N   1      36.005  12.887  11.441  0.00  0.00     0.037 A 
HETATM   11  C   UNK N   1      35.362  13.631  10.451  0.00  0.00     0.011 A 
BRANCH   9  12
HETATM   12  O   UNK N   1      36.975  12.747  13.603  0.00  0.00    -0.349 OA
BRANCH  12  13
HETATM   13  C   UNK N   1      36.281  11.826  14.361  0.00  0.00     0.206 C 
BRANCH  13  14
HETATM   14  C   UNK N   1      36.003  12.379  15.753  0.00  0.00     0.297 C 
BRANCH  14  15
HETATM   15  N   UNK N   1      35.486  11.319  16.603  0.00  0.00     0.082 N 
HETATM   16  C   UNK N   1      36.531  10.319  16.737  0.00  0.00     0.309 C 
HETATM   17  C   UNK N   1      35.279  11.888  17.921  0.00  0.00     0.309 C 
ENDBRANCH  14  15
ENDBRANCH  13  14
ENDBRANCH  12  13
ENDBRANCH   9  12
ENDBRANCH   5   6
ENDBRANCH   2   5
BRANCH   3  18
HETATM   18  C   UNK N   1      32.999  17.629   7.738  0.00  0.00     0.037 A 
HETATM   19  C   UNK N   1      32.933  17.411   6.364  0.00  0.00     0.057 A 
HETATM   20  C   UNK N   1      31.725  17.230   5.699  0.00  0.00     0.105 A 
HETATM   21  C   UNK N   1      30.512  17.238   6.441  0.00  0.00     0.135 A 
HETATM   22  C   UNK N   1      30.569  17.450   7.849  0.00  0.00     0.105 A 
HETATM   23  C   UNK N   1      31.813  17.665   8.470  0.00  0.00     0.057 A 
BRANCH  20  24
HETATM   24  O   UNK N   1      31.788  17.059   4.351  0.00  0.00    -0.353 OA
HETATM   25  C   UNK N   1      32.927  17.106   3.581  0.00  0.00     0.210 C 
ENDBRANCH  20  24
BRANCH  21  26
HETATM   26  O   UNK N   1      29.338  17.038   5.779  0.00  0.00    -0.351 OA
HETATM   27  C   UNK N   1      28.519  18.015   5.262  0.00  0.00     0.210 C 
ENDBRANCH  21  26
BRANCH  22  28
HETATM   28  O   UNK N   1      29.433  17.440   8.592  0.00  0.00    -0.353 OA
HETATM   29  C   UNK N   1      28.920  18.556   9.216  0.00  0.00     0.210 C 
ENDBRANCH  22  28
ENDBRANCH   3  18
TORSDOF 10
ENDMDL
