MODEL 1
REMARK VINA RESULT:      -6.1      0.000      0.000
REMARK  5 active torsions:
REMARK  status: ('A' for Active; 'I' for Inactive)
REMARK    1  A    between atoms: S_1  and  N_5 
REMARK    2  A    between atoms: S_1  and  C_11 
REMARK    3  A    between atoms: O_4  and  C_18 
REMARK    4  A    between atoms: N_5  and  C_14 
REMARK    5  A    between atoms: N_8  and  C_15 
ROOT
HETATM    1  S   UNK N   1      33.961  17.318   7.471  0.00  0.00     0.264 S 
HETATM    2  O   UNK N   1      35.089  16.279   7.383  0.00  0.00    -0.200 OA
HETATM    3  O   UNK N   1      34.749  18.638   7.509  0.00  0.00    -0.200 OA
ENDROOT
BRANCH   1   4
HETATM    4  N   UNK N   1      33.318  17.134   9.087  0.00  0.00    -0.262 N 
HETATM    5  H   UNK N   1      32.508  17.624   9.359  0.00  0.00     0.180 HD
BRANCH   4   6
HETATM    6  C   UNK N   1      33.972  16.278   9.995  0.00  0.00     0.167 A 
HETATM    7  N   UNK N   1      35.029  16.727  10.720  0.00  0.00    -0.347 N 
HETATM    8  C   UNK N   1      35.703  15.896  11.561  0.00  0.00     0.107 A 
ATOM      9  HN  UNK N   1      35.322  17.700  10.633  1.00  0.00     0.167 HD
HETATM   10  C   UNK N   1      35.311  14.561  11.666  0.00  0.00     0.107 A 
HETATM   11  N   UNK N   1      34.261  14.108  10.932  0.00  0.00    -0.343 N 
HETATM   12  C   UNK N   1      33.579  14.941  10.094  0.00  0.00     0.187 A 
ATOM     13  HN  UNK N   1      33.979  13.131  11.009  1.00  0.00     0.167 HD
BRANCH  12  14
HETATM   14  O   UNK N   1      32.553  14.485   9.340  0.00  0.00    -0.338 OA
HETATM   15  C   UNK N   1      32.742  13.729   8.208  0.00  0.00     0.211 C 
ENDBRANCH  12  14
ENDBRANCH   4   6
ENDBRANCH   1   4
BRANCH   1  16
HETATM   16  C   UNK N   1      32.823  17.258   6.102  0.00  0.00     0.080 A 
HETATM   17  C   UNK N   1      31.473  16.974   6.329  0.00  0.00     0.027 A 
HETATM   18  C   UNK N   1      30.588  16.883   5.252  0.00  0.00     0.030 A 
HETATM   19  C   UNK N   1      31.055  17.072   3.947  0.00  0.00     0.025 A 
HETATM   20  C   UNK N   1      32.405  17.357   3.721  0.00  0.00     0.030 A 
HETATM   21  C   UNK N   1      33.290  17.448   4.799  0.00  0.00     0.027 A 
BRANCH  19  22
HETATM   22  N   UNK N   1      30.165  16.970   2.861  0.00  0.00    -0.399 N 
HETATM   23  H   UNK N   1      29.264  16.595   2.989  0.00  0.00     0.156 HD
HETATM   24  H   UNK N   1      30.447  17.275   1.968  0.00  0.00     0.156 HD
ENDBRANCH  19  22
ENDBRANCH   1  16
TORSDOF 5
ENDMDL
MODEL 2
REMARK VINA RESULT:      -6.1      6.057     10.129
REMARK  5 active torsions:
REMARK  status: ('A' for Active; 'I' for Inactive)
REMARK    1  A    between atoms: S_1  and  N_5 
REMARK    2  A    between atoms: S_1  and  C_11 
REMARK    3  A    between atoms: O_4  and  C_18 
REMARK    4  A    between atoms: N_5  and  C_14 
REMARK    5  A    between atoms: N_8  and  C_15 
ROOT
HETATM    1  S   UNK N   1      35.720  12.136  14.525  0.00  0.00     0.264 S 
HETATM    2  O   UNK N   1      35.844  10.668  14.090  0.00  0.00    -0.200 OA
HETATM    3  O   UNK N   1      34.457  12.584  13.770  0.00  0.00    -0.200 OA
ENDROOT
BRANCH   1   4
HETATM    4  N   UNK N   1      37.039  12.950  13.711  0.00  0.00    -0.262 N 
HETATM    5  H   UNK N   1      37.960  12.861  14.047  0.00  0.00     0.180 HD
BRANCH   4   6
HETATM    6  C   UNK N   1      36.766  13.733  12.572  0.00  0.00     0.167 A 
HETATM    7  N   UNK N   1      36.156  14.940  12.700  0.00  0.00    -0.347 N 
HETATM    8  C   UNK N   1      35.840  15.682  11.606  0.00  0.00     0.107 A 
ATOM      9  HN  UNK N   1      35.932  15.294  13.630  1.00  0.00     0.167 HD
HETATM   10  C   UNK N   1      36.132  15.189  10.333  0.00  0.00     0.107 A 
HETATM   11  N   UNK N   1      36.731  13.976  10.204  0.00  0.00    -0.343 N 
HETATM   12  C   UNK N   1      37.057  13.233  11.300  0.00  0.00     0.187 A 
ATOM     13  HN  UNK N   1      36.942  13.617   9.273  1.00  0.00     0.167 HD
BRANCH  12  14
HETATM   14  O   UNK N   1      37.626  12.013  11.173  0.00  0.00    -0.338 OA
HETATM   15  C   UNK N   1      38.084  11.529   9.971  0.00  0.00     0.211 C 
ENDBRANCH  12  14
ENDBRANCH   4   6
ENDBRANCH   1   4
BRANCH   1  16
HETATM   16  C   UNK N   1      35.558  12.352  16.285  0.00  0.00     0.080 A 
HETATM   17  C   UNK N   1      35.544  11.236  17.127  0.00  0.00     0.027 A 
HETATM   18  C   UNK N   1      35.374  11.402  18.503  0.00  0.00     0.030 A 
HETATM   19  C   UNK N   1      35.213  12.685  19.037  0.00  0.00     0.025 A 
HETATM   20  C   UNK N   1      35.228  13.801  18.195  0.00  0.00     0.030 A 
HETATM   21  C   UNK N   1      35.399  13.634  16.818  0.00  0.00     0.027 A 
BRANCH  19  22
HETATM   22  N   UNK N   1      35.031  12.852  20.423  0.00  0.00    -0.399 N 
HETATM   23  H   UNK N   1      34.174  13.184  20.776  0.00  0.00     0.156 HD
HETATM   24  H   UNK N   1      35.765  12.635  21.042  0.00  0.00     0.156 HD
ENDBRANCH  19  22
ENDBRANCH   1  16
TORSDOF 5
ENDMDL
MODEL 3
REMARK VINA RESULT:      -6.1      2.120      2.638
REMARK  5 active torsions:
REMARK  status: ('A' for Active; 'I' for Inactive)
REMARK    1  A    between atoms: S_1  and  N_5 
REMARK    2  A    between atoms: S_1  and  C_11 
REMARK    3  A    between atoms: O_4  and  C_18 
REMARK    4  A    between atoms: N_5  and  C_14 
REMARK    5  A    between atoms: N_8  and  C_15 
ROOT
HETATM    1  S   UNK N   1      33.739  17.611   7.427  0.00  0.00     0.264 S 
HETATM    2  O   UNK N   1      34.151  17.947   5.986  0.00  0.00    -0.200 OA
HETATM    3  O   UNK N   1      34.410  18.743   8.220  0.00  0.00    -0.200 OA
ENDROOT
BRANCH   1   4
HETATM    4  N   UNK N   1      34.662  16.178   7.825  0.00  0.00    -0.262 N 
HETATM    5  H   UNK N   1      35.150  15.690   7.123  0.00  0.00     0.180 HD
BRANCH   4   6
HETATM    6  C   UNK N   1      34.697  15.732   9.161  0.00  0.00     0.167 A 
HETATM    7  N   UNK N   1      35.477  16.365  10.075  0.00  0.00    -0.347 N 
HETATM    8  C   UNK N   1      35.560  15.913  11.355  0.00  0.00     0.107 A 
ATOM      9  HN  UNK N   1      36.008  17.190   9.798  1.00  0.00     0.167 HD
HETATM   10  C   UNK N   1      34.845  14.774  11.729  0.00  0.00     0.107 A 
HETATM   11  N   UNK N   1      34.073  14.133  10.813  0.00  0.00    -0.343 N 
HETATM   12  C   UNK N   1      33.982  14.589   9.530  0.00  0.00     0.187 A 
ATOM     13  HN  UNK N   1      33.554  13.300  11.088  1.00  0.00     0.167 HD
BRANCH  12  14
HETATM   14  O   UNK N   1      33.239  13.936   8.609  0.00  0.00    -0.338 OA
HETATM   15  C   UNK N   1      33.482  12.633   8.246  0.00  0.00     0.211 C 
ENDBRANCH  12  14
ENDBRANCH   4   6
ENDBRANCH   1   4
BRANCH   1  16
HETATM   16  C   UNK N   1      31.977  17.571   7.678  0.00  0.00     0.080 A 
HETATM   17  C   UNK N   1      31.157  16.898   6.768  0.00  0.00     0.027 A 
HETATM   18  C   UNK N   1      29.771  16.904   6.940  0.00  0.00     0.030 A 
HETATM   19  C   UNK N   1      29.204  17.586   8.021  0.00  0.00     0.025 A 
HETATM   20  C   UNK N   1      30.025  18.258   8.932  0.00  0.00     0.030 A 
HETATM   21  C   UNK N   1      31.412  18.252   8.760  0.00  0.00     0.027 A 
BRANCH  19  22
HETATM   22  N   UNK N   1      27.807  17.601   8.190  0.00  0.00    -0.399 N 
HETATM   23  H   UNK N   1      27.414  17.582   9.092  0.00  0.00     0.156 HD
HETATM   24  H   UNK N   1      27.219  17.629   7.401  0.00  0.00     0.156 HD
ENDBRANCH  19  22
ENDBRANCH   1  16
TORSDOF 5
ENDMDL
MODEL 4
REMARK VINA RESULT:      -6.0     11.597     13.964
REMARK  5 active torsions:
REMARK  status: ('A' for Active; 'I' for Inactive)
REMARK    1  A    between atoms: S_1  and  N_5 
REMARK    2  A    between atoms: S_1  and  C_11 
REMARK    3  A    between atoms: O_4  and  C_18 
REMARK    4  A    between atoms: N_5  and  C_14 
REMARK    5  A    between atoms: N_8  and  C_15 
ROOT
HETATM    1  S   UNK N   1      21.446  17.483   6.150  0.00  0.00     0.264 S 
HETATM    2  O   UNK N   1      20.979  18.791   6.805  0.00  0.00    -0.200 OA
HETATM    3  O   UNK N   1      22.841  17.868   5.632  0.00  0.00    -0.200 OA
ENDROOT
BRANCH   1   4
HETATM    4  N   UNK N   1      20.460  17.334   4.712  0.00  0.00    -0.262 N 
HETATM    5  H   UNK N   1      19.823  16.589   4.621  0.00  0.00     0.180 HD
BRANCH   4   6
HETATM    6  C   UNK N   1      20.590  18.292   3.687  0.00  0.00     0.167 A 
HETATM    7  N   UNK N   1      20.921  19.575   3.986  0.00  0.00    -0.347 N 
HETATM    8  C   UNK N   1      20.999  20.521   3.012  0.00  0.00     0.107 A 
ATOM      9  HN  UNK N   1      21.115  19.832   4.954  1.00  0.00     0.167 HD
HETATM   10  C   UNK N   1      20.718  20.172   1.691  0.00  0.00     0.107 A 
HETATM   11  N   UNK N   1      20.374  18.891   1.392  0.00  0.00    -0.343 N 
HETATM   12  C   UNK N   1      20.304  17.938   2.366  0.00  0.00     0.187 A 
ATOM     13  HN  UNK N   1      20.166  18.639   0.426  1.00  0.00     0.167 HD
BRANCH  12  14
HETATM   14  O   UNK N   1      19.933  16.671   2.076  0.00  0.00    -0.338 OA
HETATM   15  C   UNK N   1      20.701  15.830   1.307  0.00  0.00     0.211 C 
ENDBRANCH  12  14
ENDBRANCH   4   6
ENDBRANCH   1   4
BRANCH   1  16
HETATM   16  C   UNK N   1      21.508  16.101   7.272  0.00  0.00     0.080 A 
HETATM   17  C   UNK N   1      22.409  15.056   7.043  0.00  0.00     0.027 A 
HETATM   18  C   UNK N   1      22.427  13.951   7.898  0.00  0.00     0.030 A 
HETATM   19  C   UNK N   1      21.541  13.889   8.978  0.00  0.00     0.025 A 
HETATM   20  C   UNK N   1      20.642  14.935   9.207  0.00  0.00     0.030 A 
HETATM   21  C   UNK N   1      20.623  16.041   8.352  0.00  0.00     0.027 A 
BRANCH  19  22
HETATM   22  N   UNK N   1      21.552  12.771   9.834  0.00  0.00    -0.399 N 
HETATM   23  H   UNK N   1      22.352  12.561  10.368  0.00  0.00     0.156 HD
HETATM   24  H   UNK N   1      20.756  12.196   9.897  0.00  0.00     0.156 HD
ENDBRANCH  19  22
ENDBRANCH   1  16
TORSDOF 5
ENDMDL
MODEL 5
REMARK VINA RESULT:      -5.9      2.656      3.280
REMARK  5 active torsions:
REMARK  status: ('A' for Active; 'I' for Inactive)
REMARK    1  A    between atoms: S_1  and  N_5 
REMARK    2  A    between atoms: S_1  and  C_11 
REMARK    3  A    between atoms: O_4  and  C_18 
REMARK    4  A    between atoms: N_5  and  C_14 
REMARK    5  A    between atoms: N_8  and  C_15 
ROOT
HETATM    1  S   UNK N   1      33.212  16.963   6.849  0.00  0.00     0.264 S 
HETATM    2  O   UNK N   1      33.275  16.758   5.328  0.00  0.00    -0.200 OA
HETATM    3  O   UNK N   1      34.285  18.042   7.069  0.00  0.00    -0.200 OA
ENDROOT
BRANCH   1   4
HETATM    4  N   UNK N   1      33.903  15.502   7.520  0.00  0.00    -0.262 N 
HETATM    5  H   UNK N   1      33.755  14.634   7.079  0.00  0.00     0.180 HD
BRANCH   4   6
HETATM    6  C   UNK N   1      34.673  15.583   8.697  0.00  0.00     0.167 A 
HETATM    7  N   UNK N   1      34.411  16.541   9.623  0.00  0.00    -0.347 N 
HETATM    8  C   UNK N   1      35.180  16.663  10.738  0.00  0.00     0.107 A 
ATOM      9  HN  UNK N   1      33.628  17.178   9.479  1.00  0.00     0.167 HD
HETATM   10  C   UNK N   1      36.261  15.801  10.925  0.00  0.00     0.107 A 
HETATM   11  N   UNK N   1      36.531  14.849   9.994  0.00  0.00    -0.343 N 
HETATM   12  C   UNK N   1      35.757  14.719   8.877  0.00  0.00     0.187 A 
ATOM     13  HN  UNK N   1      37.323  14.222  10.132  1.00  0.00     0.167 HD
BRANCH  12  14
HETATM   14  O   UNK N   1      36.042  13.793   7.935  0.00  0.00    -0.338 OA
HETATM   15  C   UNK N   1      37.282  13.682   7.353  0.00  0.00     0.211 C 
ENDBRANCH  12  14
ENDBRANCH   4   6
ENDBRANCH   1   4
BRANCH   1  16
HETATM   16  C   UNK N   1      31.612  17.481   7.437  0.00  0.00     0.080 A 
HETATM   17  C   UNK N   1      31.506  18.190   8.637  0.00  0.00     0.027 A 
HETATM   18  C   UNK N   1      30.248  18.559   9.121  0.00  0.00     0.030 A 
HETATM   19  C   UNK N   1      29.097  18.213   8.407  0.00  0.00     0.025 A 
HETATM   20  C   UNK N   1      29.204  17.504   7.206  0.00  0.00     0.030 A 
HETATM   21  C   UNK N   1      30.463  17.136   6.722  0.00  0.00     0.027 A 
BRANCH  19  22
HETATM   22  N   UNK N   1      27.829  18.575   8.899  0.00  0.00    -0.399 N 
HETATM   23  H   UNK N   1      27.525  18.252   9.778  0.00  0.00     0.156 HD
HETATM   24  H   UNK N   1      27.242  19.153   8.361  0.00  0.00     0.156 HD
ENDBRANCH  19  22
ENDBRANCH   1  16
TORSDOF 5
ENDMDL
MODEL 6
REMARK VINA RESULT:      -5.9     11.566     12.869
REMARK  5 active torsions:
REMARK  status: ('A' for Active; 'I' for Inactive)
REMARK    1  A    between atoms: S_1  and  N_5 
REMARK    2  A    between atoms: S_1  and  C_11 
REMARK    3  A    between atoms: O_4  and  C_18 
REMARK    4  A    between atoms: N_5  and  C_14 
REMARK    5  A    between atoms: N_8  and  C_15 
ROOT
HETATM    1  S   UNK N   1      21.562  17.752   5.609  0.00  0.00     0.264 S 
HETATM    2  O   UNK N   1      23.028  17.336   5.805  0.00  0.00    -0.200 OA
HETATM    3  O   UNK N   1      21.319  18.646   6.835  0.00  0.00    -0.200 OA
ENDROOT
BRANCH   1   4
HETATM    4  N   UNK N   1      20.645  16.296   5.928  0.00  0.00    -0.262 N 
HETATM    5  H   UNK N   1      19.981  15.974   5.276  0.00  0.00     0.180 HD
BRANCH   4   6
HETATM    6  C   UNK N   1      20.868  15.593   7.128  0.00  0.00     0.167 A 
HETATM    7  N   UNK N   1      21.964  14.804   7.268  0.00  0.00    -0.347 N 
HETATM    8  C   UNK N   1      22.164  14.079   8.401  0.00  0.00     0.107 A 
ATOM      9  HN  UNK N   1      22.648  14.755   6.512  1.00  0.00     0.167 HD
HETATM   10  C   UNK N   1      21.220  14.135   9.427  0.00  0.00     0.107 A 
HETATM   11  N   UNK N   1      20.117  14.915   9.284  0.00  0.00    -0.343 N 
HETATM   12  C   UNK N   1      19.917  15.650   8.152  0.00  0.00     0.187 A 
ATOM     13  HN  UNK N   1      19.427  14.952  10.035  1.00  0.00     0.167 HD
BRANCH  12  14
HETATM   14  O   UNK N   1      18.805  16.403   7.995  0.00  0.00    -0.338 OA
HETATM   15  C   UNK N   1      18.203  17.064   9.038  0.00  0.00     0.211 C 
ENDBRANCH  12  14
ENDBRANCH   4   6
ENDBRANCH   1   4
BRANCH   1  16
HETATM   16  C   UNK N   1      21.260  18.616   4.080  0.00  0.00     0.080 A 
HETATM   17  C   UNK N   1      22.182  19.560   3.619  0.00  0.00     0.027 A 
HETATM   18  C   UNK N   1      21.925  20.270   2.443  0.00  0.00     0.030 A 
HETATM   19  C   UNK N   1      20.743  20.038   1.732  0.00  0.00     0.025 A 
HETATM   20  C   UNK N   1      19.823  19.092   2.194  0.00  0.00     0.030 A 
HETATM   21  C   UNK N   1      20.080  18.382   3.370  0.00  0.00     0.027 A 
BRANCH  19  22
HETATM   22  N   UNK N   1      20.479  20.760   0.553  0.00  0.00    -0.399 N 
HETATM   23  H   UNK N   1      19.563  21.054   0.344  0.00  0.00     0.156 HD
HETATM   24  H   UNK N   1      21.214  20.971  -0.066  0.00  0.00     0.156 HD
ENDBRANCH  19  22
ENDBRANCH   1  16
TORSDOF 5
ENDMDL
MODEL 7
REMARK VINA RESULT:      -5.9     10.562     13.729
REMARK  5 active torsions:
REMARK  status: ('A' for Active; 'I' for Inactive)
REMARK    1  A    between atoms: S_1  and  N_5 
REMARK    2  A    between atoms: S_1  and  C_11 
REMARK    3  A    between atoms: O_4  and  C_18 
REMARK    4  A    between atoms: N_5  and  C_14 
REMARK    5  A    between atoms: N_8  and  C_15 
ROOT
HETATM    1  S   UNK N   1      21.506  20.298   2.505  0.00  0.00     0.264 S 
HETATM    2  O   UNK N   1      21.032  21.699   2.920  0.00  0.00    -0.200 OA
HETATM    3  O   UNK N   1      21.573  20.426   0.975  0.00  0.00    -0.200 OA
ENDROOT
BRANCH   1   4
HETATM    4  N   UNK N   1      20.129  19.261   2.807  0.00  0.00    -0.262 N 
HETATM    5  H   UNK N   1      19.428  19.536   3.441  0.00  0.00     0.180 HD
BRANCH   4   6
HETATM    6  C   UNK N   1      20.036  18.027   2.132  0.00  0.00     0.167 A 
HETATM    7  N   UNK N   1      20.042  17.986   0.775  0.00  0.00    -0.347 N 
HETATM    8  C   UNK N   1      19.901  16.807   0.111  0.00  0.00     0.107 A 
ATOM      9  HN  UNK N   1      20.154  18.851   0.246  1.00  0.00     0.167 HD
HETATM   10  C   UNK N   1      19.731  15.627   0.836  0.00  0.00     0.107 A 
HETATM   11  N   UNK N   1      19.713  15.668   2.194  0.00  0.00    -0.343 N 
HETATM   12  C   UNK N   1      19.863  16.848   2.863  0.00  0.00     0.187 A 
ATOM     13  HN  UNK N   1      19.587  14.805   2.722  1.00  0.00     0.167 HD
BRANCH  12  14
HETATM   14  O   UNK N   1      19.815  16.896   4.213  0.00  0.00    -0.338 OA
HETATM   15  C   UNK N   1      19.088  16.003   4.963  0.00  0.00     0.211 C 
ENDBRANCH  12  14
ENDBRANCH   4   6
ENDBRANCH   1   4
BRANCH   1  16
HETATM   16  C   UNK N   1      23.076  19.834   3.207  0.00  0.00     0.080 A 
HETATM   17  C   UNK N   1      24.229  20.550   2.872  0.00  0.00     0.027 A 
HETATM   18  C   UNK N   1      25.467  20.160   3.388  0.00  0.00     0.030 A 
HETATM   19  C   UNK N   1      25.552  19.050   4.235  0.00  0.00     0.025 A 
HETATM   20  C   UNK N   1      24.398  18.335   4.570  0.00  0.00     0.030 A 
HETATM   21  C   UNK N   1      23.159  18.726   4.054  0.00  0.00     0.027 A 
BRANCH  19  22
HETATM   22  N   UNK N   1      26.801  18.650   4.746  0.00  0.00    -0.399 N 
HETATM   23  H   UNK N   1      27.617  18.756   4.206  0.00  0.00     0.156 HD
HETATM   24  H   UNK N   1      26.858  18.262   5.649  0.00  0.00     0.156 HD
ENDBRANCH  19  22
ENDBRANCH   1  16
TORSDOF 5
ENDMDL
MODEL 8
REMARK VINA RESULT:      -5.8      6.824     10.360
REMARK  5 active torsions:
REMARK  status: ('A' for Active; 'I' for Inactive)
REMARK    1  A    between atoms: S_1  and  N_5 
REMARK    2  A    between atoms: S_1  and  C_11 
REMARK    3  A    between atoms: O_4  and  C_18 
REMARK    4  A    between atoms: N_5  and  C_14 
REMARK    5  A    between atoms: N_8  and  C_15 
ROOT
HETATM    1  S   UNK N   1      36.141  13.328  14.735  0.00  0.00     0.264 S 
HETATM    2  O   UNK N   1      34.871  13.419  13.875  0.00  0.00    -0.200 OA
HETATM    3  O   UNK N   1      36.675  14.767  14.666  0.00  0.00    -0.200 OA
ENDROOT
BRANCH   1   4
HETATM    4  N   UNK N   1      37.259  12.390  13.770  0.00  0.00    -0.262 N 
HETATM    5  H   UNK N   1      37.894  11.774  14.202  0.00  0.00     0.180 HD
BRANCH   4   6
HETATM    6  C   UNK N   1      37.240  12.527  12.368  0.00  0.00     0.167 A 
HETATM    7  N   UNK N   1      37.265  13.760  11.799  0.00  0.00    -0.347 N 
HETATM    8  C   UNK N   1      37.194  13.908  10.449  0.00  0.00     0.107 A 
ATOM      9  HN  UNK N   1      37.337  14.586  12.393  1.00  0.00     0.167 HD
HETATM   10  C   UNK N   1      37.079  12.777   9.639  0.00  0.00     0.107 A 
HETATM   11  N   UNK N   1      37.043  11.544  10.207  0.00  0.00    -0.343 N 
HETATM   12  C   UNK N   1      37.121  11.391  11.561  0.00  0.00     0.187 A 
ATOM     13  HN  UNK N   1      36.956  10.719   9.614  1.00  0.00     0.167 HD
BRANCH  12  14
HETATM   14  O   UNK N   1      37.055  10.167  12.131  0.00  0.00    -0.338 OA
HETATM   15  C   UNK N   1      38.083   9.258  12.059  0.00  0.00     0.211 C 
ENDBRANCH  12  14
ENDBRANCH   4   6
ENDBRANCH   1   4
BRANCH   1  16
HETATM   16  C   UNK N   1      35.836  12.806  16.410  0.00  0.00     0.080 A 
HETATM   17  C   UNK N   1      35.919  11.451  16.746  0.00  0.00     0.027 A 
HETATM   18  C   UNK N   1      35.637  11.037  18.049  0.00  0.00     0.030 A 
HETATM   19  C   UNK N   1      35.268  11.977  19.017  0.00  0.00     0.025 A 
HETATM   20  C   UNK N   1      35.187  13.332  18.681  0.00  0.00     0.030 A 
HETATM   21  C   UNK N   1      35.469  13.747  17.376  0.00  0.00     0.027 A 
BRANCH  19  22
HETATM   22  N   UNK N   1      34.974  11.558  20.328  0.00  0.00    -0.399 N 
HETATM   23  H   UNK N   1      35.597  11.754  21.065  0.00  0.00     0.156 HD
HETATM   24  H   UNK N   1      34.141  11.067  20.509  0.00  0.00     0.156 HD
ENDBRANCH  19  22
ENDBRANCH   1  16
TORSDOF 5
ENDMDL
MODEL 9
REMARK VINA RESULT:      -5.8     12.245     13.472
REMARK  5 active torsions:
REMARK  status: ('A' for Active; 'I' for Inactive)
REMARK    1  A    between atoms: S_1  and  N_5 
REMARK    2  A    between atoms: S_1  and  C_11 
REMARK    3  A    between atoms: O_4  and  C_18 
REMARK    4  A    between atoms: N_5  and  C_14 
REMARK    5  A    between atoms: N_8  and  C_15 
ROOT
HETATM    1  S   UNK N   1      41.191  23.081   0.990  0.00  0.00     0.264 S 
HETATM    2  O   UNK N   1      40.337  22.061   1.758  0.00  0.00    -0.200 OA
HETATM    3  O   UNK N   1      42.065  22.167   0.116  0.00  0.00    -0.200 OA
ENDROOT
BRANCH   1   4
HETATM    4  N   UNK N   1      42.285  23.733   2.190  0.00  0.00    -0.262 N 
HETATM    5  H   UNK N   1      42.203  24.670   2.480  0.00  0.00     0.180 HD
BRANCH   4   6
HETATM    6  C   UNK N   1      43.284  22.901   2.734  0.00  0.00     0.167 A 
HETATM    7  N   UNK N   1      43.021  21.594   2.993  0.00  0.00    -0.347 N 
HETATM    8  C   UNK N   1      43.959  20.793   3.566  0.00  0.00     0.107 A 
ATOM      9  HN  UNK N   1      42.108  21.207   2.753  1.00  0.00     0.167 HD
HETATM   10  C   UNK N   1      45.202  21.328   3.907  0.00  0.00     0.107 A 
HETATM   11  N   UNK N   1      45.462  22.638   3.660  0.00  0.00    -0.343 N 
HETATM   12  C   UNK N   1      44.526  23.442   3.078  0.00  0.00     0.187 A 
ATOM     13  HN  UNK N   1      46.370  23.027   3.913  1.00  0.00     0.167 HD
BRANCH  12  14
HETATM   14  O   UNK N   1      44.771  24.753   2.858  0.00  0.00    -0.338 OA
HETATM   15  C   UNK N   1      45.856  25.196   2.140  0.00  0.00     0.211 C 
ENDBRANCH  12  14
ENDBRANCH   4   6
ENDBRANCH   1   4
BRANCH   1  16
HETATM   16  C   UNK N   1      40.236  24.225   0.014  0.00  0.00     0.080 A 
HETATM   17  C   UNK N   1      40.306  25.596   0.280  0.00  0.00     0.027 A 
HETATM   18  C   UNK N   1      39.524  26.490  -0.455  0.00  0.00     0.030 A 
HETATM   19  C   UNK N   1      38.669  26.013  -1.453  0.00  0.00     0.025 A 
HETATM   20  C   UNK N   1      38.600  24.641  -1.719  0.00  0.00     0.030 A 
HETATM   21  C   UNK N   1      39.383  23.747  -0.983  0.00  0.00     0.027 A 
BRANCH  19  22
HETATM   22  N   UNK N   1      37.873  26.912  -2.188  0.00  0.00    -0.399 N 
HETATM   23  H   UNK N   1      37.112  26.584  -2.718  0.00  0.00     0.156 HD
HETATM   24  H   UNK N   1      38.081  27.874  -2.171  0.00  0.00     0.156 HD
ENDBRANCH  19  22
ENDBRANCH   1  16
TORSDOF 5
ENDMDL
