MODEL 1
REMARK VINA RESULT:      -6.7      0.000      0.000
REMARK  3 active torsions:
REMARK  status: ('A' for Active; 'I' for Inactive)
REMARK    1  A    between atoms: N_8  and  C_16 
REMARK    2  A    between atoms: N_10  and  C_20 
REMARK    3  A    between atoms: C_19  and  C_22 
ROOT
HETATM    1  C   UNK N   1      28.964  24.315  -3.656  0.00  0.00     0.048 A 
HETATM    2  C   UNK N   1      29.264  25.649  -3.928  0.00  0.00     0.049 A 
HETATM    3  C   UNK N   1      27.627  23.965  -3.435  0.00  0.00     0.032 A 
HETATM    4  C   UNK N   1      28.284  26.641  -4.012  0.00  0.00     0.083 A 
HETATM    5  C   UNK N   1      26.917  26.277  -3.802  0.00  0.00     0.118 A 
HETATM    6  C   UNK N   1      26.621  24.933  -3.502  0.00  0.00     0.039 A 
ENDROOT
BRANCH   1   7
HETATM    7  N   UNK N   1      30.016  23.333  -3.648  0.00  0.00    -0.232 N 
HETATM    8  C   UNK N   1      30.603  22.762  -4.721  0.00  0.00     0.260 A 
HETATM    9  O   UNK N   1      30.299  23.002  -5.880  0.00  0.00    -0.270 OA
HETATM   10  C   UNK N   1      31.688  21.802  -4.291  0.00  0.00     0.109 A 
HETATM   11  N   UNK N   1      31.588  21.944  -2.850  0.00  0.00    -0.325 N 
HETATM   12  C   UNK N   1      33.058  22.237  -4.777  0.00  0.00     0.049 C 
HETATM   13  C   UNK N   1      31.388  20.376  -4.710  0.00  0.00     0.049 C 
HETATM   14  C   UNK N   1      30.619  22.830  -2.556  0.00  0.00     0.331 A 
HETATM   15  H   UNK N   1      32.143  21.467  -2.191  0.00  0.00     0.165 HD
HETATM   16  O   UNK N   1      30.336  23.136  -1.407  0.00  0.00    -0.246 OA
ENDBRANCH   1   7
BRANCH   4  17
HETATM   17  C   UNK N   1      28.759  28.039  -4.342  0.00  0.00     0.419 C 
HETATM   18  F   UNK N   1      28.467  28.909  -3.308  0.00  0.00    -0.166 F 
HETATM   19  F   UNK N   1      30.134  28.060  -4.531  0.00  0.00    -0.166 F 
HETATM   20  F   UNK N   1      28.165  28.471  -5.513  0.00  0.00    -0.166 F 
ENDBRANCH   4  17
BRANCH   5  21
HETATM   21  N   UNK N   1      25.829  27.207  -3.882  0.00  0.00    -0.115 N 
HETATM   22  O   UNK N   1      25.213  27.395  -5.030  0.00  0.00    -0.532 OA
HETATM   23  O   UNK N   1      25.485  27.845  -2.934  0.00  0.00    -0.532 OA
ENDBRANCH   5  21
TORSDOF 3
ENDMDL
MODEL 2
REMARK VINA RESULT:      -6.6     13.059     14.966
REMARK  3 active torsions:
REMARK  status: ('A' for Active; 'I' for Inactive)
REMARK    1  A    between atoms: N_8  and  C_16 
REMARK    2  A    between atoms: N_10  and  C_20 
REMARK    3  A    between atoms: C_19  and  C_22 
ROOT
HETATM    1  C   UNK N   1      31.905  16.913   7.910  0.00  0.00     0.048 A 
HETATM    2  C   UNK N   1      30.785  17.401   8.583  0.00  0.00     0.049 A 
HETATM    3  C   UNK N   1      31.818  16.719   6.527  0.00  0.00     0.032 A 
HETATM    4  C   UNK N   1      29.593  17.724   7.930  0.00  0.00     0.083 A 
HETATM    5  C   UNK N   1      29.513  17.541   6.514  0.00  0.00     0.118 A 
HETATM    6  C   UNK N   1      30.638  17.024   5.843  0.00  0.00     0.039 A 
ENDROOT
BRANCH   1   7
HETATM    7  N   UNK N   1      33.122  16.662   8.636  0.00  0.00    -0.232 N 
HETATM    8  C   UNK N   1      33.499  15.502   9.213  0.00  0.00     0.260 A 
HETATM    9  O   UNK N   1      32.829  14.479   9.205  0.00  0.00    -0.270 OA
HETATM   10  C   UNK N   1      34.862  15.639   9.852  0.00  0.00     0.109 A 
HETATM   11  N   UNK N   1      35.145  17.027   9.537  0.00  0.00    -0.325 N 
HETATM   12  C   UNK N   1      35.887  14.725   9.209  0.00  0.00     0.049 C 
HETATM   13  C   UNK N   1      34.811  15.431  11.354  0.00  0.00     0.049 C 
HETATM   14  C   UNK N   1      34.114  17.546   8.844  0.00  0.00     0.331 A 
HETATM   15  H   UNK N   1      35.962  17.513   9.790  0.00  0.00     0.165 HD
HETATM   16  O   UNK N   1      34.104  18.702   8.449  0.00  0.00    -0.246 OA
ENDBRANCH   1   7
BRANCH   4  17
HETATM   17  C   UNK N   1      28.474  18.270   8.790  0.00  0.00     0.419 C 
HETATM   18  F   UNK N   1      28.963  18.699  10.010  0.00  0.00    -0.166 F 
HETATM   19  F   UNK N   1      27.866  19.357   8.176  0.00  0.00    -0.166 F 
HETATM   20  F   UNK N   1      27.510  17.297   8.976  0.00  0.00    -0.166 F 
ENDBRANCH   4  17
BRANCH   5  21
HETATM   21  N   UNK N   1      28.349  17.856   5.740  0.00  0.00    -0.115 N 
HETATM   22  O   UNK N   1      27.327  17.027   5.728  0.00  0.00    -0.532 OA
HETATM   23  O   UNK N   1      28.293  18.846   5.076  0.00  0.00    -0.532 OA
ENDBRANCH   5  21
TORSDOF 3
ENDMDL
MODEL 3
REMARK VINA RESULT:      -6.5     11.160     12.655
REMARK  3 active torsions:
REMARK  status: ('A' for Active; 'I' for Inactive)
REMARK    1  A    between atoms: N_8  and  C_16 
REMARK    2  A    between atoms: N_10  and  C_20 
REMARK    3  A    between atoms: C_19  and  C_22 
ROOT
HETATM    1  C   UNK N   1      28.714  17.681   6.825  0.00  0.00     0.048 A 
HETATM    2  C   UNK N   1      28.344  19.007   6.600  0.00  0.00     0.049 A 
HETATM    3  C   UNK N   1      27.915  16.666   6.285  0.00  0.00     0.032 A 
HETATM    4  C   UNK N   1      27.226  19.361   5.842  0.00  0.00     0.083 A 
HETATM    5  C   UNK N   1      26.421  18.322   5.277  0.00  0.00     0.118 A 
HETATM    6  C   UNK N   1      26.784  16.984   5.528  0.00  0.00     0.039 A 
ENDROOT
BRANCH   1   7
HETATM    7  N   UNK N   1      29.915  17.389   7.562  0.00  0.00    -0.232 N 
HETATM    8  C   UNK N   1      31.144  17.159   7.055  0.00  0.00     0.260 A 
HETATM    9  O   UNK N   1      31.406  17.155   5.861  0.00  0.00    -0.270 OA
HETATM   10  C   UNK N   1      32.145  16.921   8.162  0.00  0.00     0.109 A 
HETATM   11  N   UNK N   1      31.274  17.054   9.316  0.00  0.00    -0.325 N 
HETATM   12  C   UNK N   1      33.229  17.982   8.186  0.00  0.00     0.049 C 
HETATM   13  C   UNK N   1      32.744  15.529   8.102  0.00  0.00     0.049 C 
HETATM   14  C   UNK N   1      30.022  17.320   8.901  0.00  0.00     0.331 A 
HETATM   15  H   UNK N   1      31.556  16.963  10.255  0.00  0.00     0.165 HD
HETATM   16  O   UNK N   1      29.094  17.485   9.679  0.00  0.00    -0.246 OA
ENDBRANCH   1   7
BRANCH   4  17
HETATM   17  C   UNK N   1      26.968  20.840   5.662  0.00  0.00     0.419 C 
HETATM   18  F   UNK N   1      25.777  21.202   6.265  0.00  0.00    -0.166 F 
HETATM   19  F   UNK N   1      27.978  21.592   6.246  0.00  0.00    -0.166 F 
HETATM   20  F   UNK N   1      26.936  21.150   4.315  0.00  0.00    -0.166 F 
ENDBRANCH   4  17
BRANCH   5  21
HETATM   21  N   UNK N   1      25.264  18.569   4.468  0.00  0.00    -0.115 N 
HETATM   22  O   UNK N   1      24.070  18.588   5.022  0.00  0.00    -0.532 OA
HETATM   23  O   UNK N   1      25.353  18.728   3.289  0.00  0.00    -0.532 OA
ENDBRANCH   5  21
TORSDOF 3
ENDMDL
MODEL 4
REMARK VINA RESULT:      -6.4     16.812     19.035
REMARK  3 active torsions:
REMARK  status: ('A' for Active; 'I' for Inactive)
REMARK    1  A    between atoms: N_8  and  C_16 
REMARK    2  A    between atoms: N_10  and  C_20 
REMARK    3  A    between atoms: C_19  and  C_22 
ROOT
HETATM    1  C   UNK N   1      35.745  14.705  10.764  0.00  0.00     0.048 A 
HETATM    2  C   UNK N   1      35.071  14.310   9.608  0.00  0.00     0.049 A 
HETATM    3  C   UNK N   1      35.829  16.072  11.051  0.00  0.00     0.032 A 
HETATM    4  C   UNK N   1      34.460  15.220   8.742  0.00  0.00     0.083 A 
HETATM    5  C   UNK N   1      34.533  16.615   9.047  0.00  0.00     0.118 A 
HETATM    6  C   UNK N   1      35.236  17.011  10.201  0.00  0.00     0.039 A 
ENDROOT
BRANCH   1   7
HETATM    7  N   UNK N   1      36.296  13.710  11.645  0.00  0.00    -0.232 N 
HETATM    8  C   UNK N   1      35.715  13.187  12.745  0.00  0.00     0.260 A 
HETATM    9  O   UNK N   1      34.612  13.511  13.161  0.00  0.00    -0.270 OA
HETATM   10  C   UNK N   1      36.608  12.145  13.379  0.00  0.00     0.109 A 
HETATM   11  N   UNK N   1      37.735  12.196  12.466  0.00  0.00    -0.325 N 
HETATM   12  C   UNK N   1      35.972  10.768  13.368  0.00  0.00     0.049 C 
HETATM   13  C   UNK N   1      37.037  12.537  14.780  0.00  0.00     0.049 C 
HETATM   14  C   UNK N   1      37.489  13.104  11.505  0.00  0.00     0.331 A 
HETATM   15  H   UNK N   1      38.551  11.650  12.538  0.00  0.00     0.165 HD
HETATM   16  O   UNK N   1      38.281  13.337  10.603  0.00  0.00    -0.246 OA
ENDBRANCH   1   7
BRANCH   4  17
HETATM   17  C   UNK N   1      33.742  14.640   7.543  0.00  0.00     0.419 C 
HETATM   18  F   UNK N   1      33.848  13.261   7.534  0.00  0.00    -0.166 F 
HETATM   19  F   UNK N   1      32.391  14.955   7.578  0.00  0.00    -0.166 F 
HETATM   20  F   UNK N   1      34.270  15.168   6.380  0.00  0.00    -0.166 F 
ENDBRANCH   4  17
BRANCH   5  21
HETATM   21  N   UNK N   1      33.928  17.634   8.241  0.00  0.00    -0.115 N 
HETATM   22  O   UNK N   1      34.629  18.222   7.295  0.00  0.00    -0.532 OA
HETATM   23  O   UNK N   1      32.804  17.988   8.428  0.00  0.00    -0.532 OA
ENDBRANCH   5  21
TORSDOF 3
ENDMDL
MODEL 5
REMARK VINA RESULT:      -6.4     10.542     11.486
REMARK  3 active torsions:
REMARK  status: ('A' for Active; 'I' for Inactive)
REMARK    1  A    between atoms: N_8  and  C_16 
REMARK    2  A    between atoms: N_10  and  C_20 
REMARK    3  A    between atoms: C_19  and  C_22 
ROOT
HETATM    1  C   UNK N   1      25.566  19.105   4.174  0.00  0.00     0.048 A 
HETATM    2  C   UNK N   1      24.346  18.484   4.444  0.00  0.00     0.049 A 
HETATM    3  C   UNK N   1      25.577  20.202   3.305  0.00  0.00     0.032 A 
HETATM    4  C   UNK N   1      23.138  18.927   3.901  0.00  0.00     0.083 A 
HETATM    5  C   UNK N   1      23.150  20.058   3.027  0.00  0.00     0.118 A 
HETATM    6  C   UNK N   1      24.388  20.666   2.737  0.00  0.00     0.039 A 
ENDROOT
BRANCH   1   7
HETATM    7  N   UNK N   1      26.764  18.636   4.819  0.00  0.00    -0.232 N 
HETATM    8  C   UNK N   1      27.546  17.607   4.431  0.00  0.00     0.260 A 
HETATM    9  O   UNK N   1      27.326  16.905   3.454  0.00  0.00    -0.270 OA
HETATM   10  C   UNK N   1      28.730  17.453   5.357  0.00  0.00     0.109 A 
HETATM   11  N   UNK N   1      28.461  18.537   6.285  0.00  0.00    -0.325 N 
HETATM   12  C   UNK N   1      30.047  17.680   4.640  0.00  0.00     0.049 C 
HETATM   13  C   UNK N   1      28.723  16.119   6.078  0.00  0.00     0.049 C 
HETATM   14  C   UNK N   1      27.330  19.167   5.918  0.00  0.00     0.331 A 
HETATM   15  H   UNK N   1      29.018  18.774   7.061  0.00  0.00     0.165 HD
HETATM   16  O   UNK N   1      26.882  20.125   6.531  0.00  0.00    -0.246 OA
ENDBRANCH   1   7
BRANCH   4  17
HETATM   17  C   UNK N   1      21.893  18.170   4.307  0.00  0.00     0.419 C 
HETATM   18  F   UNK N   1      21.098  18.948   5.129  0.00  0.00    -0.166 F 
HETATM   19  F   UNK N   1      21.137  17.830   3.194  0.00  0.00    -0.166 F 
HETATM   20  F   UNK N   1      22.246  16.999   4.952  0.00  0.00    -0.166 F 
ENDBRANCH   4  17
BRANCH   5  21
HETATM   21  N   UNK N   1      21.970  20.610   2.429  0.00  0.00    -0.115 N 
HETATM   22  O   UNK N   1      21.779  20.495   1.131  0.00  0.00    -0.532 OA
HETATM   23  O   UNK N   1      21.163  21.203   3.078  0.00  0.00    -0.532 OA
ENDBRANCH   5  21
TORSDOF 3
ENDMDL
MODEL 6
REMARK VINA RESULT:      -6.3      1.935      2.597
REMARK  3 active torsions:
REMARK  status: ('A' for Active; 'I' for Inactive)
REMARK    1  A    between atoms: N_8  and  C_16 
REMARK    2  A    between atoms: N_10  and  C_20 
REMARK    3  A    between atoms: C_19  and  C_22 
ROOT
HETATM    1  C   UNK N   1      30.220  24.585  -3.814  0.00  0.00     0.048 A 
HETATM    2  C   UNK N   1      28.834  24.627  -3.964  0.00  0.00     0.049 A 
HETATM    3  C   UNK N   1      30.919  25.796  -3.739  0.00  0.00     0.032 A 
HETATM    4  C   UNK N   1      28.117  25.824  -4.018  0.00  0.00     0.083 A 
HETATM    5  C   UNK N   1      28.832  27.059  -3.924  0.00  0.00     0.118 A 
HETATM    6  C   UNK N   1      30.234  27.012  -3.799  0.00  0.00     0.039 A 
ENDROOT
BRANCH   1   7
HETATM    7  N   UNK N   1      30.889  23.315  -3.701  0.00  0.00    -0.232 N 
HETATM    8  C   UNK N   1      31.518  22.638  -4.683  0.00  0.00     0.260 A 
HETATM    9  O   UNK N   1      31.595  23.019  -5.842  0.00  0.00    -0.270 OA
HETATM   10  C   UNK N   1      32.120  21.358  -4.152  0.00  0.00     0.109 A 
HETATM   11  N   UNK N   1      31.718  21.454  -2.760  0.00  0.00    -0.325 N 
HETATM   12  C   UNK N   1      33.632  21.347  -4.271  0.00  0.00     0.049 C 
HETATM   13  C   UNK N   1      31.513  20.128  -4.800  0.00  0.00     0.049 C 
HETATM   14  C   UNK N   1      31.024  22.591  -2.575  0.00  0.00     0.331 A 
HETATM   15  H   UNK N   1      31.922  20.792  -2.061  0.00  0.00     0.165 HD
HETATM   16  O   UNK N   1      30.574  22.917  -1.486  0.00  0.00    -0.246 OA
ENDBRANCH   1   7
BRANCH   4  17
HETATM   17  C   UNK N   1      26.615  25.711  -4.154  0.00  0.00     0.419 C 
HETATM   18  F   UNK N   1      26.198  26.215  -5.372  0.00  0.00    -0.166 F 
HETATM   19  F   UNK N   1      26.213  24.383  -4.091  0.00  0.00    -0.166 F 
HETATM   20  F   UNK N   1      25.998  26.388  -3.119  0.00  0.00    -0.166 F 
ENDBRANCH   4  17
BRANCH   5  21
HETATM   21  N   UNK N   1      28.198  28.345  -3.949  0.00  0.00    -0.115 N 
HETATM   22  O   UNK N   1      27.830  28.914  -2.821  0.00  0.00    -0.532 OA
HETATM   23  O   UNK N   1      27.965  28.904  -4.977  0.00  0.00    -0.532 OA
ENDBRANCH   5  21
TORSDOF 3
ENDMDL
MODEL 7
REMARK VINA RESULT:      -6.3     12.476     14.180
REMARK  3 active torsions:
REMARK  status: ('A' for Active; 'I' for Inactive)
REMARK    1  A    between atoms: N_8  and  C_16 
REMARK    2  A    between atoms: N_10  and  C_20 
REMARK    3  A    between atoms: C_19  and  C_22 
ROOT
HETATM    1  C   UNK N   1      29.646  17.278   5.589  0.00  0.00     0.048 A 
HETATM    2  C   UNK N   1      30.212  16.997   6.833  0.00  0.00     0.049 A 
HETATM    3  C   UNK N   1      30.501  17.552   4.515  0.00  0.00     0.032 A 
HETATM    4  C   UNK N   1      31.592  16.955   7.042  0.00  0.00     0.083 A 
HETATM    5  C   UNK N   1      32.463  17.220   5.939  0.00  0.00     0.118 A 
HETATM    6  C   UNK N   1      31.887  17.529   4.691  0.00  0.00     0.039 A 
ENDROOT
BRANCH   1   7
HETATM    7  N   UNK N   1      28.216  17.240   5.430  0.00  0.00    -0.232 N 
HETATM    8  C   UNK N   1      27.474  16.199   4.998  0.00  0.00     0.260 A 
HETATM    9  O   UNK N   1      27.934  15.118   4.661  0.00  0.00    -0.270 OA
HETATM   10  C   UNK N   1      26.004  16.550   5.001  0.00  0.00     0.109 A 
HETATM   11  N   UNK N   1      26.077  17.916   5.489  0.00  0.00    -0.325 N 
HETATM   12  C   UNK N   1      25.214  15.682   5.962  0.00  0.00     0.049 C 
HETATM   13  C   UNK N   1      25.404  16.511   3.609  0.00  0.00     0.049 C 
HETATM   14  C   UNK N   1      27.363  18.241   5.713  0.00  0.00     0.331 A 
HETATM   15  H   UNK N   1      25.306  18.510   5.634  0.00  0.00     0.165 HD
HETATM   16  O   UNK N   1      27.700  19.337   6.135  0.00  0.00    -0.246 OA
ENDBRANCH   1   7
BRANCH   4  17
HETATM   17  C   UNK N   1      32.058  16.609   8.439  0.00  0.00     0.419 C 
HETATM   18  F   UNK N   1      32.753  17.666   8.995  0.00  0.00    -0.166 F 
HETATM   19  F   UNK N   1      30.976  16.338   9.266  0.00  0.00    -0.166 F 
HETATM   20  F   UNK N   1      32.853  15.479   8.401  0.00  0.00    -0.166 F 
ENDBRANCH   4  17
BRANCH   5  21
HETATM   21  N   UNK N   1      33.893  17.187   6.034  0.00  0.00    -0.115 N 
HETATM   22  O   UNK N   1      34.560  16.178   5.514  0.00  0.00    -0.532 OA
HETATM   23  O   UNK N   1      34.499  18.042   6.604  0.00  0.00    -0.532 OA
ENDBRANCH   5  21
TORSDOF 3
ENDMDL
MODEL 8
REMARK VINA RESULT:      -6.3     12.110     13.892
REMARK  3 active torsions:
REMARK  status: ('A' for Active; 'I' for Inactive)
REMARK    1  A    between atoms: N_8  and  C_16 
REMARK    2  A    between atoms: N_10  and  C_20 
REMARK    3  A    between atoms: C_19  and  C_22 
ROOT
HETATM    1  C   UNK N   1      29.875  16.871   6.279  0.00  0.00     0.048 A 
HETATM    2  C   UNK N   1      30.702  16.995   5.162  0.00  0.00     0.049 A 
HETATM    3  C   UNK N   1      30.467  16.852   7.547  0.00  0.00     0.032 A 
HETATM    4  C   UNK N   1      32.089  17.124   5.262  0.00  0.00     0.083 A 
HETATM    5  C   UNK N   1      32.689  17.122   6.560  0.00  0.00     0.118 A 
HETATM    6  C   UNK N   1      31.853  16.970   7.683  0.00  0.00     0.039 A 
ENDROOT
BRANCH   1   7
HETATM    7  N   UNK N   1      28.448  16.806   6.106  0.00  0.00    -0.232 N 
HETATM    8  C   UNK N   1      27.719  15.724   5.763  0.00  0.00     0.260 A 
HETATM    9  O   UNK N   1      28.192  14.621   5.531  0.00  0.00    -0.270 OA
HETATM   10  C   UNK N   1      26.246  16.061   5.716  0.00  0.00     0.109 A 
HETATM   11  N   UNK N   1      26.302  17.466   6.079  0.00  0.00    -0.325 N 
HETATM   12  C   UNK N   1      25.451  15.277   6.742  0.00  0.00     0.049 C 
HETATM   13  C   UNK N   1      25.664  15.890   4.326  0.00  0.00     0.049 C 
HETATM   14  C   UNK N   1      27.583  17.821   6.287  0.00  0.00     0.331 A 
HETATM   15  H   UNK N   1      25.526  18.064   6.160  0.00  0.00     0.165 HD
HETATM   16  O   UNK N   1      27.906  18.954   6.612  0.00  0.00    -0.246 OA
ENDBRANCH   1   7
BRANCH   4  17
HETATM   17  C   UNK N   1      32.852  17.279   3.964  0.00  0.00     0.419 C 
HETATM   18  F   UNK N   1      33.688  16.196   3.760  0.00  0.00    -0.166 F 
HETATM   19  F   UNK N   1      31.981  17.344   2.885  0.00  0.00    -0.166 F 
HETATM   20  F   UNK N   1      33.584  18.451   3.988  0.00  0.00    -0.166 F 
ENDBRANCH   4  17
BRANCH   5  21
HETATM   21  N   UNK N   1      34.098  17.267   6.781  0.00  0.00    -0.115 N 
HETATM   22  O   UNK N   1      34.894  16.229   6.633  0.00  0.00    -0.532 OA
HETATM   23  O   UNK N   1      34.569  18.307   7.129  0.00  0.00    -0.532 OA
ENDBRANCH   5  21
TORSDOF 3
ENDMDL
MODEL 9
REMARK VINA RESULT:      -6.2     11.718     13.802
REMARK  3 active torsions:
REMARK  status: ('A' for Active; 'I' for Inactive)
REMARK    1  A    between atoms: N_8  and  C_16 
REMARK    2  A    between atoms: N_10  and  C_20 
REMARK    3  A    between atoms: C_19  and  C_22 
ROOT
HETATM    1  C   UNK N   1      30.094  17.346   4.994  0.00  0.00     0.048 A 
HETATM    2  C   UNK N   1      30.361  17.105   6.342  0.00  0.00     0.049 A 
HETATM    3  C   UNK N   1      31.173  17.578   4.133  0.00  0.00     0.032 A 
HETATM    4  C   UNK N   1      31.658  17.060   6.858  0.00  0.00     0.083 A 
HETATM    5  C   UNK N   1      32.759  17.281   5.973  0.00  0.00     0.118 A 
HETATM    6  C   UNK N   1      32.484  17.550   4.618  0.00  0.00     0.039 A 
ENDROOT
BRANCH   1   7
HETATM    7  N   UNK N   1      28.737  17.314   4.517  0.00  0.00    -0.232 N 
HETATM    8  C   UNK N   1      27.706  18.071   4.946  0.00  0.00     0.260 A 
HETATM    9  O   UNK N   1      27.788  18.904   5.837  0.00  0.00    -0.270 OA
HETATM   10  C   UNK N   1      26.449  17.756   4.169  0.00  0.00     0.109 A 
HETATM   11  N   UNK N   1      26.959  16.729   3.278  0.00  0.00    -0.325 N 
HETATM   12  C   UNK N   1      25.954  18.952   3.379  0.00  0.00     0.049 C 
HETATM   13  C   UNK N   1      25.353  17.197   5.057  0.00  0.00     0.049 C 
HETATM   14  C   UNK N   1      28.265  16.530   3.530  0.00  0.00     0.331 A 
HETATM   15  H   UNK N   1      26.432  16.254   2.596  0.00  0.00     0.165 HD
HETATM   16  O   UNK N   1      28.938  15.719   2.910  0.00  0.00    -0.246 OA
ENDBRANCH   1   7
BRANCH   4  17
HETATM   17  C   UNK N   1      31.791  16.759   8.335  0.00  0.00     0.419 C 
HETATM   18  F   UNK N   1      30.549  16.523   8.896  0.00  0.00    -0.166 F 
HETATM   19  F   UNK N   1      32.565  15.625   8.539  0.00  0.00    -0.166 F 
HETATM   20  F   UNK N   1      32.412  17.815   8.975  0.00  0.00    -0.166 F 
ENDBRANCH   4  17
BRANCH   5  21
HETATM   21  N   UNK N   1      34.130  17.240   6.390  0.00  0.00    -0.115 N 
HETATM   22  O   UNK N   1      34.644  18.258   7.047  0.00  0.00    -0.532 OA
HETATM   23  O   UNK N   1      34.832  16.312   6.127  0.00  0.00    -0.532 OA
ENDBRANCH   5  21
TORSDOF 3
ENDMDL
