REMARK  6 active torsions:
REMARK  status: ('A' for Active; 'I' for Inactive)
REMARK    1  A    between atoms: C_5  and  O_1 
REMARK    2  A    between atoms: O_2  and  C_10 
REMARK    3  A    between atoms: O_3  and  C_12 
REMARK    4  A    between atoms: N_4  and  C_7 
REMARK    5  A    between atoms: C_5  and  C_6 
REMARK    6  A    between atoms: C_5  and  C_7 
ROOT
HETATM    1  C   UNK N   1       3.450   0.261  -0.003  0.00  0.00    -0.025 A 
HETATM    2  C   UNK N   1       2.202  -0.374  -0.002  0.00  0.00     0.049 A 
HETATM    3  C   UNK N   1       4.619  -0.511  -0.002  0.00  0.00     0.013 A 
HETATM    4  C   UNK N   1       2.125  -1.775   0.000  0.00  0.00     0.099 A 
HETATM    5  C   UNK N   1       4.545  -1.905   0.001  0.00  0.00     0.040 A 
HETATM    6  C   UNK N   1       3.304  -2.535   0.001  0.00  0.00     0.098 A 
ENDROOT
BRANCH   1   7
HETATM    7  C   UNK N   1       3.554   1.756  -0.019  0.00  0.00     0.168 C 
BRANCH   7   8
HETATM    8  O   UNK N   1       2.384   2.521   0.012  0.00  0.00    -0.389 OA
HETATM    9  H   UNK N   1       2.437   3.489   0.033  0.00  0.00     0.210 HD
ENDBRANCH   7   8
BRANCH   7  10
HETATM   10  C   UNK N   1       4.914   2.446   0.016  0.00  0.00     0.149 C 
BRANCH  10  11
HETATM   11  N   UNK N   1       4.789   3.891  -0.006  0.00  0.00    -0.423 N 
HETATM   12  C   UNK N   1       6.146   4.406   0.000  0.00  0.00     0.139 C 
HETATM   13  H   UNK N   1       3.926   4.433  -0.022  0.00  0.00     0.152 HD
ENDBRANCH  10  11
ENDBRANCH   7  10
ENDBRANCH   1   7
BRANCH   4  14
HETATM   14  O   UNK N   1       0.926  -2.376   0.001  0.00  0.00    -0.358 OA
HETATM   15  H   UNK N   1       0.144  -1.860   0.001  0.00  0.00     0.217 HD
ENDBRANCH   4  14
BRANCH   6  16
HETATM   16  O   UNK N   1       3.241  -3.881   0.001  0.00  0.00    -0.358 OA
HETATM   17  H   UNK N   1       2.409  -4.311   0.002  0.00  0.00     0.217 HD
ENDBRANCH   6  16
TORSDOF 6
