MODEL 1
REMARK VINA RESULT:      -5.2      0.000      0.000
REMARK  6 active torsions:
REMARK  status: ('A' for Active; 'I' for Inactive)
REMARK    1  A    between atoms: C_5  and  O_1 
REMARK    2  A    between atoms: O_2  and  C_10 
REMARK    3  A    between atoms: O_3  and  C_12 
REMARK    4  A    between atoms: N_4  and  C_7 
REMARK    5  A    between atoms: C_5  and  C_6 
REMARK    6  A    between atoms: C_5  and  C_7 
ROOT
HETATM    1  C   UNK N   1      35.505  12.411  17.125  0.00  0.00    -0.025 A 
HETATM    2  C   UNK N   1      35.126  13.259  18.172  0.00  0.00     0.049 A 
HETATM    3  C   UNK N   1      35.800  11.068  17.394  0.00  0.00     0.013 A 
HETATM    4  C   UNK N   1      35.042  12.765  19.483  0.00  0.00     0.099 A 
HETATM    5  C   UNK N   1      35.719  10.574  18.697  0.00  0.00     0.040 A 
HETATM    6  C   UNK N   1      35.341  11.418  19.738  0.00  0.00     0.098 A 
ENDROOT
BRANCH   1   7
HETATM    7  C   UNK N   1      35.586  12.915  15.716  0.00  0.00     0.168 C 
BRANCH   7   8
HETATM    8  O   UNK N   1      34.405  13.143  15.004  0.00  0.00    -0.389 OA
HETATM    9  H   UNK N   1      33.987  14.018  15.023  0.00  0.00     0.210 HD
ENDBRANCH   7   8
BRANCH   7  10
HETATM   10  C   UNK N   1      36.932  13.259  15.085  0.00  0.00     0.149 C 
BRANCH  10  11
HETATM   11  N   UNK N   1      36.979  14.634  14.625  0.00  0.00    -0.423 N 
HETATM   12  C   UNK N   1      37.330  15.428  15.788  0.00  0.00     0.139 C 
HETATM   13  H   UNK N   1      36.801  14.972  13.680  0.00  0.00     0.152 HD
ENDBRANCH  10  11
ENDBRANCH   7  10
ENDBRANCH   1   7
BRANCH   4  14
HETATM   14  O   UNK N   1      34.679  13.583  20.481  0.00  0.00    -0.358 OA
HETATM   15  H   UNK N   1      35.330  14.062  20.955  0.00  0.00     0.217 HD
ENDBRANCH   4  14
BRANCH   6  16
HETATM   16  O   UNK N   1      35.262  10.933  20.993  0.00  0.00    -0.358 OA
HETATM   17  H   UNK N   1      35.642  10.103  21.198  0.00  0.00     0.217 HD
ENDBRANCH   6  16
TORSDOF 6
ENDMDL
MODEL 2
REMARK VINA RESULT:      -5.1     12.630     14.980
REMARK  6 active torsions:
REMARK  status: ('A' for Active; 'I' for Inactive)
REMARK    1  A    between atoms: C_5  and  O_1 
REMARK    2  A    between atoms: O_2  and  C_10 
REMARK    3  A    between atoms: O_3  and  C_12 
REMARK    4  A    between atoms: N_4  and  C_7 
REMARK    5  A    between atoms: C_5  and  C_6 
REMARK    6  A    between atoms: C_5  and  C_7 
ROOT
HETATM    1  C   UNK N   1      28.271  18.937   7.326  0.00  0.00    -0.025 A 
HETATM    2  C   UNK N   1      28.727  18.134   6.273  0.00  0.00     0.049 A 
HETATM    3  C   UNK N   1      27.595  20.131   7.042  0.00  0.00     0.013 A 
HETATM    4  C   UNK N   1      28.507  18.524   4.944  0.00  0.00     0.099 A 
HETATM    5  C   UNK N   1      27.376  20.522   5.719  0.00  0.00     0.040 A 
HETATM    6  C   UNK N   1      27.829  19.722   4.674  0.00  0.00     0.098 A 
ENDROOT
BRANCH   1   7
HETATM    7  C   UNK N   1      28.483  18.532   8.753  0.00  0.00     0.168 C 
BRANCH   7   8
HETATM    8  O   UNK N   1      27.438  17.916   9.449  0.00  0.00    -0.389 OA
HETATM    9  H   UNK N   1      27.613  17.136   9.997  0.00  0.00     0.210 HD
ENDBRANCH   7   8
BRANCH   7  10
HETATM   10  C   UNK N   1      29.842  18.706   9.422  0.00  0.00     0.149 C 
BRANCH  10  11
HETATM   11  N   UNK N   1      30.634  17.492   9.363  0.00  0.00    -0.423 N 
HETATM   12  C   UNK N   1      31.745  17.786   8.476  0.00  0.00     0.139 C 
HETATM   13  H   UNK N   1      30.449  16.613   9.845  0.00  0.00     0.152 HD
ENDBRANCH  10  11
ENDBRANCH   7  10
ENDBRANCH   1   7
BRANCH   4  14
HETATM   14  O   UNK N   1      28.947  17.749   3.941  0.00  0.00    -0.358 OA
HETATM   15  H   UNK N   1      29.607  17.104   4.103  0.00  0.00     0.217 HD
ENDBRANCH   4  14
BRANCH   6  16
HETATM   16  O   UNK N   1      27.612  20.105   3.401  0.00  0.00    -0.358 OA
HETATM   17  H   UNK N   1      28.278  19.981   2.754  0.00  0.00     0.217 HD
ENDBRANCH   6  16
TORSDOF 6
ENDMDL
MODEL 3
REMARK VINA RESULT:      -5.0      9.600     12.276
REMARK  6 active torsions:
REMARK  status: ('A' for Active; 'I' for Inactive)
REMARK    1  A    between atoms: C_5  and  O_1 
REMARK    2  A    between atoms: O_2  and  C_10 
REMARK    3  A    between atoms: O_3  and  C_12 
REMARK    4  A    between atoms: N_4  and  C_7 
REMARK    5  A    between atoms: C_5  and  C_6 
REMARK    6  A    between atoms: C_5  and  C_7 
ROOT
HETATM    1  C   UNK N   1      33.341  17.581   7.253  0.00  0.00    -0.025 A 
HETATM    2  C   UNK N   1      32.011  17.402   7.655  0.00  0.00     0.049 A 
HETATM    3  C   UNK N   1      33.659  17.561   5.889  0.00  0.00     0.013 A 
HETATM    4  C   UNK N   1      31.006  17.204   6.696  0.00  0.00     0.099 A 
HETATM    5  C   UNK N   1      32.662  17.363   4.933  0.00  0.00     0.040 A 
HETATM    6  C   UNK N   1      31.341  17.186   5.334  0.00  0.00     0.098 A 
ENDROOT
BRANCH   1   7
HETATM    7  C   UNK N   1      34.427  17.808   8.261  0.00  0.00     0.168 C 
BRANCH   7   8
HETATM    8  O   UNK N   1      35.003  19.077   8.367  0.00  0.00    -0.389 OA
HETATM    9  H   UNK N   1      35.139  19.617   7.573  0.00  0.00     0.210 HD
ENDBRANCH   7   8
BRANCH   7  10
HETATM   10  C   UNK N   1      34.847  16.699   9.221  0.00  0.00     0.149 C 
BRANCH  10  11
HETATM   11  N   UNK N   1      34.996  17.187  10.579  0.00  0.00    -0.423 N 
HETATM   12  C   UNK N   1      35.583  16.092  11.330  0.00  0.00     0.139 C 
HETATM   13  H   UNK N   1      34.742  18.108  10.932  0.00  0.00     0.152 HD
ENDBRANCH  10  11
ENDBRANCH   7  10
ENDBRANCH   1   7
BRANCH   4  14
HETATM   14  O   UNK N   1      29.735  17.033   7.089  0.00  0.00    -0.358 OA
HETATM   15  H   UNK N   1      29.541  16.882   7.993  0.00  0.00     0.217 HD
ENDBRANCH   4  14
BRANCH   6  16
HETATM   16  O   UNK N   1      30.383  16.998   4.405  0.00  0.00    -0.358 OA
HETATM   17  H   UNK N   1      29.901  16.195   4.385  0.00  0.00     0.217 HD
ENDBRANCH   6  16
TORSDOF 6
ENDMDL
MODEL 4
REMARK VINA RESULT:      -5.0     14.577     15.681
REMARK  6 active torsions:
REMARK  status: ('A' for Active; 'I' for Inactive)
REMARK    1  A    between atoms: C_5  and  O_1 
REMARK    2  A    between atoms: O_2  and  C_10 
REMARK    3  A    between atoms: O_3  and  C_12 
REMARK    4  A    between atoms: N_4  and  C_7 
REMARK    5  A    between atoms: C_5  and  C_6 
REMARK    6  A    between atoms: C_5  and  C_7 
ROOT
HETATM    1  C   UNK N   1      22.129  13.171   9.527  0.00  0.00    -0.025 A 
HETATM    2  C   UNK N   1      21.879  12.558  10.761  0.00  0.00     0.049 A 
HETATM    3  C   UNK N   1      23.449  13.301   9.075  0.00  0.00     0.013 A 
HETATM    4  C   UNK N   1      22.944  12.078  11.538  0.00  0.00     0.099 A 
HETATM    5  C   UNK N   1      24.510  12.824   9.846  0.00  0.00     0.040 A 
HETATM    6  C   UNK N   1      24.260  12.215  11.072  0.00  0.00     0.098 A 
ENDROOT
BRANCH   1   7
HETATM    7  C   UNK N   1      21.005  13.679   8.676  0.00  0.00     0.168 C 
BRANCH   7   8
HETATM    8  O   UNK N   1      20.656  12.977   7.518  0.00  0.00    -0.389 OA
HETATM    9  H   UNK N   1      21.210  13.043   6.725  0.00  0.00     0.210 HD
ENDBRANCH   7   8
BRANCH   7  10
HETATM   10  C   UNK N   1      20.189  14.895   9.102  0.00  0.00     0.149 C 
BRANCH  10  11
HETATM   11  N   UNK N   1      20.749  16.130   8.589  0.00  0.00    -0.423 N 
HETATM   12  C   UNK N   1      19.714  17.134   8.754  0.00  0.00     0.139 C 
HETATM   13  H   UNK N   1      21.679  16.265   8.193  0.00  0.00     0.152 HD
ENDBRANCH  10  11
ENDBRANCH   7  10
ENDBRANCH   1   7
BRANCH   4  14
HETATM   14  O   UNK N   1      22.696  11.492  12.718  0.00  0.00    -0.358 OA
HETATM   15  H   UNK N   1      23.332  11.535  13.405  0.00  0.00     0.217 HD
ENDBRANCH   4  14
BRANCH   6  16
HETATM   16  O   UNK N   1      25.290  11.755  11.809  0.00  0.00    -0.358 OA
HETATM   17  H   UNK N   1      25.174  11.589  12.723  0.00  0.00     0.217 HD
ENDBRANCH   6  16
TORSDOF 6
ENDMDL
MODEL 5
REMARK VINA RESULT:      -5.0     21.752     23.078
REMARK  6 active torsions:
REMARK  status: ('A' for Active; 'I' for Inactive)
REMARK    1  A    between atoms: C_5  and  O_1 
REMARK    2  A    between atoms: O_2  and  C_10 
REMARK    3  A    between atoms: O_3  and  C_12 
REMARK    4  A    between atoms: N_4  and  C_7 
REMARK    5  A    between atoms: C_5  and  C_6 
REMARK    6  A    between atoms: C_5  and  C_7 
ROOT
HETATM    1  C   UNK N   1      20.389  17.785   2.263  0.00  0.00    -0.025 A 
HETATM    2  C   UNK N   1      20.367  18.595   1.121  0.00  0.00     0.049 A 
HETATM    3  C   UNK N   1      20.800  18.327   3.488  0.00  0.00     0.013 A 
HETATM    4  C   UNK N   1      20.755  19.941   1.205  0.00  0.00     0.099 A 
HETATM    5  C   UNK N   1      21.187  19.666   3.574  0.00  0.00     0.040 A 
HETATM    6  C   UNK N   1      21.164  20.470   2.439  0.00  0.00     0.098 A 
ENDROOT
BRANCH   1   7
HETATM    7  C   UNK N   1      19.966  16.349   2.198  0.00  0.00     0.168 C 
BRANCH   7   8
HETATM    8  O   UNK N   1      19.423  15.746   3.336  0.00  0.00    -0.389 OA
HETATM    9  H   UNK N   1      19.417  14.780   3.418  0.00  0.00     0.210 HD
ENDBRANCH   7   8
BRANCH   7  10
HETATM   10  C   UNK N   1      20.043  15.570   0.889  0.00  0.00     0.149 C 
BRANCH  10  11
HETATM   11  N   UNK N   1      18.740  15.426   0.267  0.00  0.00    -0.423 N 
HETATM   12  C   UNK N   1      18.448  14.004   0.285  0.00  0.00     0.139 C 
HETATM   13  H   UNK N   1      18.152  16.170  -0.106  0.00  0.00     0.152 HD
ENDBRANCH  10  11
ENDBRANCH   7  10
ENDBRANCH   1   7
BRANCH   4  14
HETATM   14  O   UNK N   1      20.731  20.711   0.107  0.00  0.00    -0.358 OA
HETATM   15  H   UNK N   1      21.450  21.283  -0.079  0.00  0.00     0.217 HD
ENDBRANCH   4  14
BRANCH   6  16
HETATM   16  O   UNK N   1      21.537  21.762   2.530  0.00  0.00    -0.358 OA
HETATM   17  H   UNK N   1      20.895  22.441   2.458  0.00  0.00     0.217 HD
ENDBRANCH   6  16
TORSDOF 6
ENDMDL
MODEL 6
REMARK VINA RESULT:      -4.9     11.293     12.640
REMARK  6 active torsions:
REMARK  status: ('A' for Active; 'I' for Inactive)
REMARK    1  A    between atoms: C_5  and  O_1 
REMARK    2  A    between atoms: O_2  and  C_10 
REMARK    3  A    between atoms: O_3  and  C_12 
REMARK    4  A    between atoms: N_4  and  C_7 
REMARK    5  A    between atoms: C_5  and  C_6 
REMARK    6  A    between atoms: C_5  and  C_7 
ROOT
HETATM    1  C   UNK N   1      30.868  17.472   8.206  0.00  0.00    -0.025 A 
HETATM    2  C   UNK N   1      32.038  18.062   8.700  0.00  0.00     0.049 A 
HETATM    3  C   UNK N   1      30.857  16.933   6.913  0.00  0.00     0.013 A 
HETATM    4  C   UNK N   1      33.192  18.110   7.904  0.00  0.00     0.099 A 
HETATM    5  C   UNK N   1      32.004  16.981   6.118  0.00  0.00     0.040 A 
HETATM    6  C   UNK N   1      33.167  17.566   6.611  0.00  0.00     0.098 A 
ENDROOT
BRANCH   1   7
HETATM    7  C   UNK N   1      29.628  17.398   9.046  0.00  0.00     0.168 C 
BRANCH   7   8
HETATM    8  O   UNK N   1      29.752  17.271  10.433  0.00  0.00    -0.389 OA
HETATM    9  H   UNK N   1      29.921  16.402  10.828  0.00  0.00     0.210 HD
ENDBRANCH   7   8
BRANCH   7  10
HETATM   10  C   UNK N   1      28.247  17.543   8.416  0.00  0.00     0.149 C 
BRANCH  10  11
HETATM   11  N   UNK N   1      27.728  18.891   8.551  0.00  0.00    -0.423 N 
HETATM   12  C   UNK N   1      27.865  19.500   7.241  0.00  0.00     0.139 C 
HETATM   13  H   UNK N   1      27.347  19.321   9.392  0.00  0.00     0.152 HD
ENDBRANCH  10  11
ENDBRANCH   7  10
ENDBRANCH   1   7
BRANCH   4  14
HETATM   14  O   UNK N   1      34.309  18.676   8.384  0.00  0.00    -0.358 OA
HETATM   15  H   UNK N   1      34.261  19.495   8.837  0.00  0.00     0.217 HD
ENDBRANCH   4  14
BRANCH   6  16
HETATM   16  O   UNK N   1      34.270  17.606   5.839  0.00  0.00    -0.358 OA
HETATM   17  H   UNK N   1      34.974  17.009   5.996  0.00  0.00     0.217 HD
ENDBRANCH   6  16
TORSDOF 6
ENDMDL
MODEL 7
REMARK VINA RESULT:      -4.9      1.532      1.946
REMARK  6 active torsions:
REMARK  status: ('A' for Active; 'I' for Inactive)
REMARK    1  A    between atoms: C_5  and  O_1 
REMARK    2  A    between atoms: O_2  and  C_10 
REMARK    3  A    between atoms: O_3  and  C_12 
REMARK    4  A    between atoms: N_4  and  C_7 
REMARK    5  A    between atoms: C_5  and  C_6 
REMARK    6  A    between atoms: C_5  and  C_7 
ROOT
HETATM    1  C   UNK N   1      35.380  12.577  16.155  0.00  0.00    -0.025 A 
HETATM    2  C   UNK N   1      35.333  13.838  16.762  0.00  0.00     0.049 A 
HETATM    3  C   UNK N   1      35.373  11.425  16.952  0.00  0.00     0.013 A 
HETATM    4  C   UNK N   1      35.279  13.944  18.160  0.00  0.00     0.099 A 
HETATM    5  C   UNK N   1      35.321  11.528  18.343  0.00  0.00     0.040 A 
HETATM    6  C   UNK N   1      35.274  12.782  18.945  0.00  0.00     0.098 A 
ENDROOT
BRANCH   1   7
HETATM    7  C   UNK N   1      35.423  12.441  14.663  0.00  0.00     0.168 C 
BRANCH   7   8
HETATM    8  O   UNK N   1      34.223  12.350  13.952  0.00  0.00    -0.389 OA
HETATM    9  H   UNK N   1      33.387  12.598  14.376  0.00  0.00     0.210 HD
ENDBRANCH   7   8
BRANCH   7  10
HETATM   10  C   UNK N   1      36.750  12.485  13.912  0.00  0.00     0.149 C 
BRANCH  10  11
HETATM   11  N   UNK N   1      36.922  13.732  13.191  0.00  0.00    -0.423 N 
HETATM   12  C   UNK N   1      36.911  13.380  11.783  0.00  0.00     0.139 C 
HETATM   13  H   UNK N   1      37.030  14.663  13.590  0.00  0.00     0.152 HD
ENDBRANCH  10  11
ENDBRANCH   7  10
ENDBRANCH   1   7
BRANCH   4  14
HETATM   14  O   UNK N   1      35.235  15.156  18.735  0.00  0.00    -0.358 OA
HETATM   15  H   UNK N   1      35.230  15.231  19.669  0.00  0.00     0.217 HD
ENDBRANCH   4  14
BRANCH   6  16
HETATM   16  O   UNK N   1      35.221  12.873  20.289  0.00  0.00    -0.358 OA
HETATM   17  H   UNK N   1      34.423  13.123  20.710  0.00  0.00     0.217 HD
ENDBRANCH   6  16
TORSDOF 6
ENDMDL
MODEL 8
REMARK VINA RESULT:      -4.9     17.692     19.482
REMARK  6 active torsions:
REMARK  status: ('A' for Active; 'I' for Inactive)
REMARK    1  A    between atoms: C_5  and  O_1 
REMARK    2  A    between atoms: O_2  and  C_10 
REMARK    3  A    between atoms: O_3  and  C_12 
REMARK    4  A    between atoms: N_4  and  C_7 
REMARK    5  A    between atoms: C_5  and  C_6 
REMARK    6  A    between atoms: C_5  and  C_7 
ROOT
HETATM    1  C   UNK N   1      43.133  22.332   2.705  0.00  0.00    -0.025 A 
HETATM    2  C   UNK N   1      42.808  21.095   3.276  0.00  0.00     0.049 A 
HETATM    3  C   UNK N   1      42.162  23.037   1.982  0.00  0.00     0.013 A 
HETATM    4  C   UNK N   1      41.517  20.567   3.124  0.00  0.00     0.099 A 
HETATM    5  C   UNK N   1      40.877  22.513   1.828  0.00  0.00     0.040 A 
HETATM    6  C   UNK N   1      40.555  21.284   2.397  0.00  0.00     0.098 A 
ENDROOT
BRANCH   1   7
HETATM    7  C   UNK N   1      44.502  22.920   2.868  0.00  0.00     0.168 C 
BRANCH   7   8
HETATM    8  O   UNK N   1      45.358  22.393   3.840  0.00  0.00    -0.389 OA
HETATM    9  H   UNK N   1      46.295  22.247   3.634  0.00  0.00     0.210 HD
ENDBRANCH   7   8
BRANCH   7  10
HETATM   10  C   UNK N   1      44.996  24.021   1.936  0.00  0.00     0.149 C 
BRANCH  10  11
HETATM   11  N   UNK N   1      45.380  25.215   2.665  0.00  0.00    -0.423 N 
HETATM   12  C   UNK N   1      46.634  25.652   2.077  0.00  0.00     0.139 C 
HETATM   13  H   UNK N   1      44.874  25.657   3.431  0.00  0.00     0.152 HD
ENDBRANCH  10  11
ENDBRANCH   7  10
ENDBRANCH   1   7
BRANCH   4  14
HETATM   14  O   UNK N   1      41.213  19.382   3.674  0.00  0.00    -0.358 OA
HETATM   15  H   UNK N   1      40.855  19.346   4.539  0.00  0.00     0.217 HD
ENDBRANCH   4  14
BRANCH   6  16
HETATM   16  O   UNK N   1      39.311  20.787   2.247  0.00  0.00    -0.358 OA
HETATM   17  H   UNK N   1      38.597  21.361   2.057  0.00  0.00     0.217 HD
ENDBRANCH   6  16
TORSDOF 6
ENDMDL
MODEL 9
REMARK VINA RESULT:      -4.7     26.074     27.710
REMARK  6 active torsions:
REMARK  status: ('A' for Active; 'I' for Inactive)
REMARK    1  A    between atoms: C_5  and  O_1 
REMARK    2  A    between atoms: O_2  and  C_10 
REMARK    3  A    between atoms: O_3  and  C_12 
REMARK    4  A    between atoms: N_4  and  C_7 
REMARK    5  A    between atoms: C_5  and  C_6 
REMARK    6  A    between atoms: C_5  and  C_7 
ROOT
HETATM    1  C   UNK N   1      26.345  27.839  -4.061  0.00  0.00    -0.025 A 
HETATM    2  C   UNK N   1      26.634  26.633  -3.412  0.00  0.00     0.049 A 
HETATM    3  C   UNK N   1      25.637  27.822  -5.270  0.00  0.00     0.013 A 
HETATM    4  C   UNK N   1      26.217  25.415  -3.970  0.00  0.00     0.099 A 
HETATM    5  C   UNK N   1      25.222  26.612  -5.828  0.00  0.00     0.040 A 
HETATM    6  C   UNK N   1      25.509  25.413  -5.181  0.00  0.00     0.098 A 
ENDROOT
BRANCH   1   7
HETATM    7  C   UNK N   1      26.770  29.151  -3.474  0.00  0.00     0.168 C 
BRANCH   7   8
HETATM    8  O   UNK N   1      25.928  30.260  -3.604  0.00  0.00    -0.389 OA
HETATM    9  H   UNK N   1      24.971  30.161  -3.482  0.00  0.00     0.210 HD
ENDBRANCH   7   8
BRANCH   7  10
HETATM   10  C   UNK N   1      28.061  29.267  -2.671  0.00  0.00     0.149 C 
BRANCH  10  11
HETATM   11  N   UNK N   1      27.806  29.567  -1.275  0.00  0.00    -0.423 N 
HETATM   12  C   UNK N   1      29.080  29.983  -0.719  0.00  0.00     0.139 C 
HETATM   13  H   UNK N   1      26.915  29.498  -0.785  0.00  0.00     0.152 HD
ENDBRANCH  10  11
ENDBRANCH   7  10
ENDBRANCH   1   7
BRANCH   4  14
HETATM   14  O   UNK N   1      26.498  24.264  -3.342  0.00  0.00    -0.358 OA
HETATM   15  H   UNK N   1      27.074  24.262  -2.603  0.00  0.00     0.217 HD
ENDBRANCH   4  14
BRANCH   6  16
HETATM   16  O   UNK N   1      25.102  24.249  -5.725  0.00  0.00    -0.358 OA
HETATM   17  H   UNK N   1      25.218  24.095  -6.641  0.00  0.00     0.217 HD
ENDBRANCH   6  16
TORSDOF 6
ENDMDL
