MODEL 1
REMARK VINA RESULT:      -5.6      0.000      0.000
REMARK  6 active torsions:
REMARK  status: ('A' for Active; 'I' for Inactive)
REMARK    1  A    between atoms: S_1  and  N_6 
REMARK    2  A    between atoms: S_1  and  C_15 
REMARK    3  A    between atoms: N_5  and  C_12 
REMARK    4  A    between atoms: C_7  and  C_9 
REMARK    5  A    between atoms: C_9  and  C_12 
REMARK    6  A    between atoms: C_11  and  C_15 
ROOT
HETATM    1  N   UNK N   1      27.867  18.997   8.530  0.00  0.00    -0.365 N 
HETATM    2  C   UNK N   1      28.158  18.802   6.313  0.00  0.00    -0.029 A 
HETATM    3  C   UNK N   1      29.171  18.121   6.936  0.00  0.00    -0.001 A 
HETATM    4  C   UNK N   1      28.965  18.258   8.279  0.00  0.00     0.043 A 
HETATM    5  C   UNK N   1      31.135  16.798   7.346  0.00  0.00    -0.042 A 
HETATM    6  C   UNK N   1      30.252  17.397   6.425  0.00  0.00     0.022 A 
HETATM    7  C   UNK N   1      27.362  19.340   7.320  0.00  0.00     0.096 A 
HETATM    8  C   UNK N   1      29.812  17.689   9.216  0.00  0.00     0.031 A 
HETATM    9  C   UNK N   1      30.904  16.953   8.738  0.00  0.00     0.010 A 
HETATM   10  H   UNK N   1      27.506  19.238   9.413  0.00  0.00     0.165 HD
ENDROOT
BRANCH   5  11
HETATM   11  C   UNK N   1      32.302  15.989   6.839  0.00  0.00     0.201 C 
BRANCH  11  12
HETATM   12  S   UNK N   1      33.802  17.010   6.594  0.00  0.00     0.230 S 
HETATM   13  O   UNK N   1      35.032  16.174   6.197  0.00  0.00    -0.206 OA
HETATM   14  O   UNK N   1      33.638  17.943   5.385  0.00  0.00    -0.206 OA
BRANCH  12  15
HETATM   15  N   UNK N   1      34.332  18.086   7.900  0.00  0.00    -0.324 N 
HETATM   16  C   UNK N   1      34.600  17.287   9.088  0.00  0.00     0.159 C 
HETATM   17  H   UNK N   1      34.432  19.099   7.832  0.00  0.00     0.171 HD
ENDBRANCH  12  15
ENDBRANCH  11  12
ENDBRANCH   5  11
BRANCH   2  18
HETATM   18  C   UNK N   1      27.958  18.953   4.844  0.00  0.00     0.071 C 
BRANCH  18  19
HETATM   19  C   UNK N   1      27.102  20.168   4.538  0.00  0.00     0.276 C 
BRANCH  19  20
HETATM   20  N   UNK N   1      25.827  19.740   3.988  0.00  0.00     0.080 N 
HETATM   21  C   UNK N   1      25.973  18.353   3.591  0.00  0.00     0.309 C 
HETATM   22  C   UNK N   1      25.595  20.507   2.776  0.00  0.00     0.309 C 
ENDBRANCH  19  20
ENDBRANCH  18  19
ENDBRANCH   2  18
TORSDOF 6
ENDMDL
MODEL 2
REMARK VINA RESULT:      -5.6     11.172     13.927
REMARK  6 active torsions:
REMARK  status: ('A' for Active; 'I' for Inactive)
REMARK    1  A    between atoms: S_1  and  N_6 
REMARK    2  A    between atoms: S_1  and  C_15 
REMARK    3  A    between atoms: N_5  and  C_12 
REMARK    4  A    between atoms: C_7  and  C_9 
REMARK    5  A    between atoms: C_9  and  C_12 
REMARK    6  A    between atoms: C_11  and  C_15 
ROOT
HETATM    1  N   UNK N   1      24.981  26.126  -6.177  0.00  0.00    -0.365 N 
HETATM    2  C   UNK N   1      25.716  27.380  -4.467  0.00  0.00    -0.029 A 
HETATM    3  C   UNK N   1      26.177  26.103  -4.286  0.00  0.00    -0.001 A 
HETATM    4  C   UNK N   1      25.716  25.367  -5.340  0.00  0.00     0.043 A 
HETATM    5  C   UNK N   1      27.277  24.165  -3.383  0.00  0.00    -0.042 A 
HETATM    6  C   UNK N   1      26.964  25.536  -3.279  0.00  0.00     0.022 A 
HETATM    7  C   UNK N   1      24.974  27.372  -5.645  0.00  0.00     0.096 A 
HETATM    8  C   UNK N   1      25.996  24.018  -5.477  0.00  0.00     0.031 A 
HETATM    9  C   UNK N   1      26.786  23.419  -4.486  0.00  0.00     0.010 A 
HETATM   10  H   UNK N   1      24.539  25.833  -7.006  0.00  0.00     0.165 HD
ENDROOT
BRANCH   5  11
HETATM   11  C   UNK N   1      28.140  23.518  -2.331  0.00  0.00     0.201 C 
BRANCH  11  12
HETATM   12  S   UNK N   1      29.905  23.463  -2.816  0.00  0.00     0.230 S 
HETATM   13  O   UNK N   1      30.506  24.863  -3.031  0.00  0.00    -0.206 OA
HETATM   14  O   UNK N   1      30.770  22.909  -1.674  0.00  0.00    -0.206 OA
BRANCH  12  15
HETATM   15  N   UNK N   1      30.380  22.495  -4.225  0.00  0.00    -0.324 N 
HETATM   16  C   UNK N   1      31.365  23.241  -4.996  0.00  0.00     0.159 C 
HETATM   17  H   UNK N   1      30.022  21.569  -4.457  0.00  0.00     0.171 HD
ENDBRANCH  12  15
ENDBRANCH  11  12
ENDBRANCH   5  11
BRANCH   2  18
HETATM   18  C   UNK N   1      25.947  28.546  -3.569  0.00  0.00     0.071 C 
BRANCH  18  19
HETATM   19  C   UNK N   1      26.679  29.656  -4.303  0.00  0.00     0.276 C 
BRANCH  19  20
HETATM   20  N   UNK N   1      28.001  29.194  -4.691  0.00  0.00     0.080 N 
HETATM   21  C   UNK N   1      28.966  29.937  -3.903  0.00  0.00     0.309 C 
HETATM   22  C   UNK N   1      28.206  29.571  -6.079  0.00  0.00     0.309 C 
ENDBRANCH  19  20
ENDBRANCH  18  19
ENDBRANCH   2  18
TORSDOF 6
ENDMDL
MODEL 3
REMARK VINA RESULT:      -5.6      3.549      5.981
REMARK  6 active torsions:
REMARK  status: ('A' for Active; 'I' for Inactive)
REMARK    1  A    between atoms: S_1  and  N_6 
REMARK    2  A    between atoms: S_1  and  C_15 
REMARK    3  A    between atoms: N_5  and  C_12 
REMARK    4  A    between atoms: C_7  and  C_9 
REMARK    5  A    between atoms: C_9  and  C_12 
REMARK    6  A    between atoms: C_11  and  C_15 
ROOT
HETATM    1  N   UNK N   1      31.845  17.784   8.974  0.00  0.00    -0.365 N 
HETATM    2  C   UNK N   1      32.076  16.960   6.898  0.00  0.00    -0.029 A 
HETATM    3  C   UNK N   1      30.747  17.219   7.108  0.00  0.00    -0.001 A 
HETATM    4  C   UNK N   1      30.640  17.718   8.374  0.00  0.00     0.043 A 
HETATM    5  C   UNK N   1      28.371  17.424   6.800  0.00  0.00    -0.042 A 
HETATM    6  C   UNK N   1      29.630  17.052   6.284  0.00  0.00     0.022 A 
HETATM    7  C   UNK N   1      32.740  17.315   8.070  0.00  0.00     0.096 A 
HETATM    8  C   UNK N   1      29.423  18.089   8.920  0.00  0.00     0.031 A 
HETATM    9  C   UNK N   1      28.283  17.939   8.119  0.00  0.00     0.010 A 
HETATM   10  H   UNK N   1      32.036  18.106   9.884  0.00  0.00     0.165 HD
ENDROOT
BRANCH   5  11
HETATM   11  C   UNK N   1      27.143  17.282   5.939  0.00  0.00     0.201 C 
BRANCH  11  12
HETATM   12  S   UNK N   1      26.670  18.859   5.137  0.00  0.00     0.230 S 
HETATM   13  O   UNK N   1      27.766  19.405   4.204  0.00  0.00    -0.206 OA
HETATM   14  O   UNK N   1      25.493  18.651   4.170  0.00  0.00    -0.206 OA
BRANCH  12  15
HETATM   15  N   UNK N   1      26.157  20.220   6.152  0.00  0.00    -0.324 N 
HETATM   16  C   UNK N   1      27.230  21.203   6.197  0.00  0.00     0.159 C 
HETATM   17  H   UNK N   1      25.258  20.300   6.629  0.00  0.00     0.171 HD
ENDBRANCH  12  15
ENDBRANCH  11  12
ENDBRANCH   5  11
BRANCH   2  18
HETATM   18  C   UNK N   1      32.689  16.392   5.665  0.00  0.00     0.071 C 
BRANCH  18  19
HETATM   19  C   UNK N   1      32.934  17.479   4.634  0.00  0.00     0.276 C 
BRANCH  19  20
HETATM   20  N   UNK N   1      32.852  16.912   3.299  0.00  0.00     0.080 N 
HETATM   21  C   UNK N   1      31.446  16.721   2.997  0.00  0.00     0.309 C 
HETATM   22  C   UNK N   1      33.459  15.593   3.346  0.00  0.00     0.309 C 
ENDBRANCH  19  20
ENDBRANCH  18  19
ENDBRANCH   2  18
TORSDOF 6
ENDMDL
MODEL 4
REMARK VINA RESULT:      -5.6     11.103     14.632
REMARK  6 active torsions:
REMARK  status: ('A' for Active; 'I' for Inactive)
REMARK    1  A    between atoms: S_1  and  N_6 
REMARK    2  A    between atoms: S_1  and  C_15 
REMARK    3  A    between atoms: N_5  and  C_12 
REMARK    4  A    between atoms: C_7  and  C_9 
REMARK    5  A    between atoms: C_9  and  C_12 
REMARK    6  A    between atoms: C_11  and  C_15 
ROOT
HETATM    1  N   UNK N   1      35.436  12.621  20.135  0.00  0.00    -0.365 N 
HETATM    2  C   UNK N   1      35.247  10.546  19.299  0.00  0.00    -0.029 A 
HETATM    3  C   UNK N   1      35.202  11.431  18.254  0.00  0.00    -0.001 A 
HETATM    4  C   UNK N   1      35.320  12.680  18.793  0.00  0.00     0.043 A 
HETATM    5  C   UNK N   1      35.059  12.371  16.046  0.00  0.00    -0.042 A 
HETATM    6  C   UNK N   1      35.066  11.231  16.877  0.00  0.00     0.022 A 
HETATM    7  C   UNK N   1      35.390  11.306  20.457  0.00  0.00     0.096 A 
HETATM    8  C   UNK N   1      35.312  13.824  18.013  0.00  0.00     0.031 A 
HETATM    9  C   UNK N   1      35.182  13.660  16.627  0.00  0.00     0.010 A 
HETATM   10  H   UNK N   1      35.534  13.380  20.753  0.00  0.00     0.165 HD
ENDROOT
BRANCH   5  11
HETATM   11  C   UNK N   1      34.937  12.201  14.554  0.00  0.00     0.201 C 
BRANCH  11  12
HETATM   12  S   UNK N   1      36.565  12.208  13.717  0.00  0.00     0.230 S 
HETATM   13  O   UNK N   1      37.731  11.933  14.682  0.00  0.00    -0.206 OA
HETATM   14  O   UNK N   1      36.678  11.036  12.728  0.00  0.00    -0.206 OA
BRANCH  12  15
HETATM   15  N   UNK N   1      37.034  13.626  12.760  0.00  0.00    -0.324 N 
HETATM   16  C   UNK N   1      36.063  14.687  12.985  0.00  0.00     0.159 C 
HETATM   17  H   UNK N   1      37.850  13.687  12.150  0.00  0.00     0.171 HD
ENDBRANCH  12  15
ENDBRANCH  11  12
ENDBRANCH   5  11
BRANCH   2  18
HETATM   18  C   UNK N   1      35.145   9.062  19.215  0.00  0.00     0.071 C 
BRANCH  18  19
HETATM   19  C   UNK N   1      33.700   8.631  19.033  0.00  0.00     0.276 C 
BRANCH  19  20
HETATM   20  N   UNK N   1      32.964   8.861  20.265  0.00  0.00     0.080 N 
HETATM   21  C   UNK N   1      33.434   7.892  21.237  0.00  0.00     0.309 C 
HETATM   22  C   UNK N   1      31.568   8.557  20.003  0.00  0.00     0.309 C 
ENDBRANCH  19  20
ENDBRANCH  18  19
ENDBRANCH   2  18
TORSDOF 6
ENDMDL
MODEL 5
REMARK VINA RESULT:      -5.5     11.492     13.890
REMARK  6 active torsions:
REMARK  status: ('A' for Active; 'I' for Inactive)
REMARK    1  A    between atoms: S_1  and  N_6 
REMARK    2  A    between atoms: S_1  and  C_15 
REMARK    3  A    between atoms: N_5  and  C_12 
REMARK    4  A    between atoms: C_7  and  C_9 
REMARK    5  A    between atoms: C_9  and  C_12 
REMARK    6  A    between atoms: C_11  and  C_15 
ROOT
HETATM    1  N   UNK N   1      31.403  20.473  -3.722  0.00  0.00    -0.365 N 
HETATM    2  C   UNK N   1      30.530  20.823  -5.760  0.00  0.00    -0.029 A 
HETATM    3  C   UNK N   1      30.170  21.873  -4.957  0.00  0.00    -0.001 A 
HETATM    4  C   UNK N   1      30.716  21.632  -3.729  0.00  0.00     0.043 A 
HETATM    5  C   UNK N   1      29.217  23.930  -4.157  0.00  0.00    -0.042 A 
HETATM    6  C   UNK N   1      29.407  23.016  -5.214  0.00  0.00     0.022 A 
HETATM    7  C   UNK N   1      31.293  19.964  -4.973  0.00  0.00     0.096 A 
HETATM    8  C   UNK N   1      30.548  22.501  -2.664  0.00  0.00     0.031 A 
HETATM    9  C   UNK N   1      29.792  23.659  -2.888  0.00  0.00     0.010 A 
HETATM   10  H   UNK N   1      31.887  20.077  -2.962  0.00  0.00     0.165 HD
ENDROOT
BRANCH   5  11
HETATM   11  C   UNK N   1      28.420  25.187  -4.395  0.00  0.00     0.201 C 
BRANCH  11  12
HETATM   12  S   UNK N   1      26.660  24.993  -3.931  0.00  0.00     0.230 S 
HETATM   13  O   UNK N   1      26.429  23.837  -2.941  0.00  0.00    -0.206 OA
HETATM   14  O   UNK N   1      26.166  26.209  -3.132  0.00  0.00    -0.206 OA
BRANCH  12  15
HETATM   15  N   UNK N   1      25.449  24.799  -5.212  0.00  0.00    -0.324 N 
HETATM   16  C   UNK N   1      25.971  23.884  -6.217  0.00  0.00     0.159 C 
HETATM   17  H   UNK N   1      24.536  25.255  -5.241  0.00  0.00     0.171 HD
ENDBRANCH  12  15
ENDBRANCH  11  12
ENDBRANCH   5  11
BRANCH   2  18
HETATM   18  C   UNK N   1      30.162  20.628  -7.190  0.00  0.00     0.071 C 
BRANCH  18  19
HETATM   19  C   UNK N   1      29.701  19.203  -7.440  0.00  0.00     0.276 C 
BRANCH  19  20
HETATM   20  N   UNK N   1      30.091  18.792  -8.778  0.00  0.00     0.080 N 
HETATM   21  C   UNK N   1      31.540  18.730  -8.806  0.00  0.00     0.309 C 
HETATM   22  C   UNK N   1      29.694  19.849  -9.693  0.00  0.00     0.309 C 
ENDBRANCH  19  20
ENDBRANCH  18  19
ENDBRANCH   2  18
TORSDOF 6
ENDMDL
MODEL 6
REMARK VINA RESULT:      -5.5      1.741      2.350
REMARK  6 active torsions:
REMARK  status: ('A' for Active; 'I' for Inactive)
REMARK    1  A    between atoms: S_1  and  N_6 
REMARK    2  A    between atoms: S_1  and  C_15 
REMARK    3  A    between atoms: N_5  and  C_12 
REMARK    4  A    between atoms: C_7  and  C_9 
REMARK    5  A    between atoms: C_9  and  C_12 
REMARK    6  A    between atoms: C_11  and  C_15 
ROOT
HETATM    1  N   UNK N   1      27.679  19.190   7.452  0.00  0.00    -0.365 N 
HETATM    2  C   UNK N   1      28.220  18.133   5.547  0.00  0.00    -0.029 A 
HETATM    3  C   UNK N   1      29.216  17.902   6.459  0.00  0.00    -0.001 A 
HETATM    4  C   UNK N   1      28.858  18.556   7.603  0.00  0.00     0.043 A 
HETATM    5  C   UNK N   1      31.234  17.121   7.507  0.00  0.00    -0.042 A 
HETATM    6  C   UNK N   1      30.404  17.171   6.368  0.00  0.00     0.022 A 
HETATM    7  C   UNK N   1      27.277  18.936   6.183  0.00  0.00     0.096 A 
HETATM    8  C   UNK N   1      29.647  18.535   8.741  0.00  0.00     0.031 A 
HETATM    9  C   UNK N   1      30.843  17.808   8.686  0.00  0.00     0.010 A 
HETATM   10  H   UNK N   1      27.207  19.729   8.126  0.00  0.00     0.165 HD
ENDROOT
BRANCH   5  11
HETATM   11  C   UNK N   1      32.513  16.326   7.460  0.00  0.00     0.201 C 
BRANCH  11  12
HETATM   12  S   UNK N   1      33.762  17.082   6.356  0.00  0.00     0.230 S 
HETATM   13  O   UNK N   1      34.502  18.261   7.012  0.00  0.00    -0.206 OA
HETATM   14  O   UNK N   1      34.907  16.098   6.068  0.00  0.00    -0.206 OA
BRANCH  12  15
HETATM   15  N   UNK N   1      33.262  17.642   4.748  0.00  0.00    -0.324 N 
HETATM   16  C   UNK N   1      33.115  16.487   3.873  0.00  0.00     0.159 C 
HETATM   17  H   UNK N   1      33.105  18.614   4.480  0.00  0.00     0.171 HD
ENDBRANCH  12  15
ENDBRANCH  11  12
ENDBRANCH   5  11
BRANCH   2  18
HETATM   18  C   UNK N   1      28.165  17.637   4.143  0.00  0.00     0.071 C 
BRANCH  18  19
HETATM   19  C   UNK N   1      27.174  16.494   4.014  0.00  0.00     0.276 C 
BRANCH  19  20
HETATM   20  N   UNK N   1      26.117  16.868   3.090  0.00  0.00     0.080 N 
HETATM   21  C   UNK N   1      24.911  17.065   3.872  0.00  0.00     0.309 C 
HETATM   22  C   UNK N   1      25.876  15.731   2.218  0.00  0.00     0.309 C 
ENDBRANCH  19  20
ENDBRANCH  18  19
ENDBRANCH   2  18
TORSDOF 6
ENDMDL
MODEL 7
REMARK VINA RESULT:      -5.5      2.189      2.582
REMARK  6 active torsions:
REMARK  status: ('A' for Active; 'I' for Inactive)
REMARK    1  A    between atoms: S_1  and  N_6 
REMARK    2  A    between atoms: S_1  and  C_15 
REMARK    3  A    between atoms: N_5  and  C_12 
REMARK    4  A    between atoms: C_7  and  C_9 
REMARK    5  A    between atoms: C_9  and  C_12 
REMARK    6  A    between atoms: C_11  and  C_15 
ROOT
HETATM    1  N   UNK N   1      27.436  19.330   7.235  0.00  0.00    -0.365 N 
HETATM    2  C   UNK N   1      28.387  18.139   5.587  0.00  0.00    -0.029 A 
HETATM    3  C   UNK N   1      29.080  17.894   6.743  0.00  0.00    -0.001 A 
HETATM    4  C   UNK N   1      28.478  18.630   7.723  0.00  0.00     0.043 A 
HETATM    5  C   UNK N   1      30.675  17.042   8.327  0.00  0.00    -0.042 A 
HETATM    6  C   UNK N   1      30.189  17.085   7.004  0.00  0.00     0.022 A 
HETATM    7  C   UNK N   1      27.372  19.034   5.913  0.00  0.00     0.096 A 
HETATM    8  C   UNK N   1      28.927  18.621   9.033  0.00  0.00     0.031 A 
HETATM    9  C   UNK N   1      30.036  17.816   9.331  0.00  0.00     0.010 A 
HETATM   10  H   UNK N   1      26.842  19.933   7.736  0.00  0.00     0.165 HD
ENDROOT
BRANCH   5  11
HETATM   11  C   UNK N   1      31.855  16.166   8.658  0.00  0.00     0.201 C 
BRANCH  11  12
HETATM   12  S   UNK N   1      33.448  17.055   8.503  0.00  0.00     0.230 S 
HETATM   13  O   UNK N   1      34.332  16.500   7.372  0.00  0.00    -0.206 OA
HETATM   14  O   UNK N   1      33.224  18.508   8.057  0.00  0.00    -0.206 OA
BRANCH  12  15
HETATM   15  N   UNK N   1      34.495  17.199   9.928  0.00  0.00    -0.324 N 
HETATM   16  C   UNK N   1      35.236  15.956  10.094  0.00  0.00     0.159 C 
HETATM   17  H   UNK N   1      34.566  18.017  10.533  0.00  0.00     0.171 HD
ENDBRANCH  12  15
ENDBRANCH  11  12
ENDBRANCH   5  11
BRANCH   2  18
HETATM   18  C   UNK N   1      28.674  17.572   4.239  0.00  0.00     0.071 C 
BRANCH  18  19
HETATM   19  C   UNK N   1      28.002  16.222   4.067  0.00  0.00     0.276 C 
BRANCH  19  20
HETATM   20  N   UNK N   1      28.043  15.832   2.668  0.00  0.00     0.080 N 
HETATM   21  C   UNK N   1      26.701  15.428   2.293  0.00  0.00     0.309 C 
HETATM   22  C   UNK N   1      28.885  14.651   2.568  0.00  0.00     0.309 C 
ENDBRANCH  19  20
ENDBRANCH  18  19
ENDBRANCH   2  18
TORSDOF 6
ENDMDL
MODEL 8
REMARK VINA RESULT:      -5.4     11.987     15.114
REMARK  6 active torsions:
REMARK  status: ('A' for Active; 'I' for Inactive)
REMARK    1  A    between atoms: S_1  and  N_6 
REMARK    2  A    between atoms: S_1  and  C_15 
REMARK    3  A    between atoms: N_5  and  C_12 
REMARK    4  A    between atoms: C_7  and  C_9 
REMARK    5  A    between atoms: C_9  and  C_12 
REMARK    6  A    between atoms: C_11  and  C_15 
ROOT
HETATM    1  N   UNK N   1      35.655  11.159  20.713  0.00  0.00    -0.365 N 
HETATM    2  C   UNK N   1      35.824   9.667  19.044  0.00  0.00    -0.029 A 
HETATM    3  C   UNK N   1      35.570  10.895  18.492  0.00  0.00    -0.001 A 
HETATM    4  C   UNK N   1      35.474  11.778  19.529  0.00  0.00     0.043 A 
HETATM    5  C   UNK N   1      35.161  12.664  16.916  0.00  0.00    -0.042 A 
HETATM    6  C   UNK N   1      35.416  11.299  17.163  0.00  0.00     0.022 A 
HETATM    7  C   UNK N   1      35.871   9.853  20.423  0.00  0.00     0.096 A 
HETATM    8  C   UNK N   1      35.220  13.125  19.331  0.00  0.00     0.031 A 
HETATM    9  C   UNK N   1      35.064  13.565  18.009  0.00  0.00     0.010 A 
HETATM   10  H   UNK N   1      35.635  11.573  21.605  0.00  0.00     0.165 HD
ENDROOT
BRANCH   5  11
HETATM   11  C   UNK N   1      35.010  13.148  15.497  0.00  0.00     0.201 C 
BRANCH  11  12
HETATM   12  S   UNK N   1      36.602  13.693  14.775  0.00  0.00     0.230 S 
HETATM   13  O   UNK N   1      36.419  14.672  13.602  0.00  0.00    -0.206 OA
HETATM   14  O   UNK N   1      37.401  14.535  15.781  0.00  0.00    -0.206 OA
BRANCH  12  15
HETATM   15  N   UNK N   1      37.760  12.467  14.223  0.00  0.00    -0.324 N 
HETATM   16  C   UNK N   1      37.032  11.402  13.549  0.00  0.00     0.159 C 
HETATM   17  H   UNK N   1      38.771  12.502  14.358  0.00  0.00     0.171 HD
ENDBRANCH  12  15
ENDBRANCH  11  12
ENDBRANCH   5  11
BRANCH   2  18
HETATM   18  C   UNK N   1      35.998   8.381  18.313  0.00  0.00     0.071 C 
BRANCH  18  19
HETATM   19  C   UNK N   1      37.423   8.234  17.811  0.00  0.00     0.276 C 
BRANCH  19  20
HETATM   20  N   UNK N   1      37.411   7.724  16.450  0.00  0.00     0.080 N 
HETATM   21  C   UNK N   1      38.063   6.428  16.470  0.00  0.00     0.309 C 
HETATM   22  C   UNK N   1      38.240   8.604  15.645  0.00  0.00     0.309 C 
ENDBRANCH  19  20
ENDBRANCH  18  19
ENDBRANCH   2  18
TORSDOF 6
ENDMDL
MODEL 9
REMARK VINA RESULT:      -5.3      2.466      3.312
REMARK  6 active torsions:
REMARK  status: ('A' for Active; 'I' for Inactive)
REMARK    1  A    between atoms: S_1  and  N_6 
REMARK    2  A    between atoms: S_1  and  C_15 
REMARK    3  A    between atoms: N_5  and  C_12 
REMARK    4  A    between atoms: C_7  and  C_9 
REMARK    5  A    between atoms: C_9  and  C_12 
REMARK    6  A    between atoms: C_11  and  C_15 
ROOT
HETATM    1  N   UNK N   1      29.616  14.973   5.564  0.00  0.00    -0.365 N 
HETATM    2  C   UNK N   1      29.112  16.929   6.543  0.00  0.00    -0.029 A 
HETATM    3  C   UNK N   1      30.432  16.657   6.791  0.00  0.00    -0.001 A 
HETATM    4  C   UNK N   1      30.707  15.466   6.183  0.00  0.00     0.043 A 
HETATM    5  C   UNK N   1      32.700  16.811   7.572  0.00  0.00    -0.042 A 
HETATM    6  C   UNK N   1      31.405  17.365   7.502  0.00  0.00     0.022 A 
HETATM    7  C   UNK N   1      28.624  15.870   5.783  0.00  0.00     0.096 A 
HETATM    8  C   UNK N   1      31.963  14.886   6.233  0.00  0.00     0.031 A 
HETATM    9  C   UNK N   1      32.964  15.571   6.934  0.00  0.00     0.010 A 
HETATM   10  H   UNK N   1      29.553  14.132   5.057  0.00  0.00     0.165 HD
ENDROOT
BRANCH   5  11
HETATM   11  C   UNK N   1      33.787  17.551   8.309  0.00  0.00     0.201 C 
BRANCH  11  12
HETATM   12  S   UNK N   1      34.643  16.491   9.533  0.00  0.00     0.230 S 
HETATM   13  O   UNK N   1      35.630  15.507   8.880  0.00  0.00    -0.206 OA
HETATM   14  O   UNK N   1      35.566  17.329  10.432  0.00  0.00    -0.206 OA
BRANCH  12  15
HETATM   15  N   UNK N   1      33.674  15.541  10.675  0.00  0.00    -0.324 N 
HETATM   16  C   UNK N   1      34.551  14.615  11.378  0.00  0.00     0.159 C 
HETATM   17  H   UNK N   1      32.668  15.628  10.816  0.00  0.00     0.171 HD
ENDBRANCH  12  15
ENDBRANCH  11  12
ENDBRANCH   5  11
BRANCH   2  18
HETATM   18  C   UNK N   1      28.344  18.116   7.012  0.00  0.00     0.071 C 
BRANCH  18  19
HETATM   19  C   UNK N   1      28.049  19.058   5.859  0.00  0.00     0.276 C 
BRANCH  19  20
HETATM   20  N   UNK N   1      26.946  19.935   6.215  0.00  0.00     0.080 N 
HETATM   21  C   UNK N   1      25.905  19.742   5.223  0.00  0.00     0.309 C 
HETATM   22  C   UNK N   1      27.414  21.304   6.077  0.00  0.00     0.309 C 
ENDBRANCH  19  20
ENDBRANCH  18  19
ENDBRANCH   2  18
TORSDOF 6
ENDMDL
