MODEL 1
REMARK VINA RESULT:      -7.2      0.000      0.000
REMARK  2 active torsions:
REMARK  status: ('A' for Active; 'I' for Inactive)
REMARK    1  A    between atoms: N_3  and  C_13 
REMARK       I    between atoms: N_5  and  C_15 
REMARK    2  A    between atoms: C_13  and  C_15 
ROOT
HETATM    1  O   UNK N   1      29.508  24.795  -3.972  0.00  0.00    -0.271 OA
HETATM    2  O   UNK N   1      24.789  23.563  -8.593  0.00  0.00    -0.267 OA
HETATM    3  N   UNK N   1      27.993  24.000  -5.562  0.00  0.00    -0.263 N 
HETATM    4  N   UNK N   1      25.344  24.855  -6.939  0.00  0.00    -0.320 N 
HETATM    5  N   UNK N   1      27.461  25.893  -4.182  0.00  0.00    -0.350 N 
ATOM      6  HN  UNK N   1      28.324  25.667  -3.688  1.00  0.00     0.166 HD
HETATM    7  C   UNK N   1      29.210  23.921  -4.771  0.00  0.00     0.258 C 
HETATM    8  C   UNK N   1      27.762  23.010  -6.566  0.00  0.00     0.059 A 
HETATM    9  C   UNK N   1      27.129  25.087  -5.248  0.00  0.00     0.142 A 
HETATM   10  C   UNK N   1      26.671  22.925  -7.525  0.00  0.00     0.059 A 
HETATM   11  C   UNK N   1      25.908  25.451  -5.898  0.00  0.00     0.080 A 
HETATM   12  C   UNK N   1      28.702  21.953  -6.687  0.00  0.00     0.031 A 
HETATM   13  C   UNK N   1      25.592  23.788  -7.697  0.00  0.00     0.258 A 
HETATM   14  C   UNK N   1      26.653  21.841  -8.447  0.00  0.00     0.019 A 
HETATM   15  C   UNK N   1      25.183  26.558  -5.431  0.00  0.00     0.035 A 
HETATM   16  C   UNK N   1      28.646  20.907  -7.592  0.00  0.00     0.002 A 
HETATM   17  C   UNK N   1      27.610  20.850  -8.482  0.00  0.00     0.001 A 
HETATM   18  C   UNK N   1      25.593  27.310  -4.352  0.00  0.00     0.019 A 
HETATM   19  C   UNK N   1      26.759  26.954  -3.725  0.00  0.00     0.090 A 
HETATM   20  H   UNK N   1      24.526  25.322  -7.225  0.00  0.00     0.169 HD
ENDROOT
BRANCH   7  21
HETATM   21  C   UNK N   1      30.266  22.844  -4.843  0.00  0.00     0.375 C 
BRANCH  21  22
HETATM   22  N   UNK N   1      31.416  23.126  -3.972  0.00  0.00     0.100 N 
HETATM   23  C   UNK N   1      31.556  22.040  -3.000  0.00  0.00     0.303 C 
HETATM   24  C   UNK N   1      31.924  20.711  -3.686  0.00  0.00     0.302 C 
HETATM   25  N   UNK N   1      33.125  20.825  -4.523  0.00  0.00     0.087 N 
HETATM   26  C   UNK N   1      33.047  21.965  -5.442  0.00  0.00     0.302 C 
HETATM   27  C   UNK N   1      34.311  20.938  -3.688  0.00  0.00     0.310 C 
HETATM   28  C   UNK N   1      32.676  23.265  -4.714  0.00  0.00     0.303 C 
ENDBRANCH  21  22
ENDBRANCH   7  21
TORSDOF 2
ENDMDL
MODEL 2
REMARK VINA RESULT:      -7.2     12.808     13.891
REMARK  2 active torsions:
REMARK  status: ('A' for Active; 'I' for Inactive)
REMARK    1  A    between atoms: N_3  and  C_13 
REMARK       I    between atoms: N_5  and  C_15 
REMARK    2  A    between atoms: C_13  and  C_15 
ROOT
HETATM    1  O   UNK N   1      25.166  15.766   4.437  0.00  0.00    -0.271 OA
HETATM    2  O   UNK N   1      22.032  21.381   2.489  0.00  0.00    -0.267 OA
HETATM    3  N   UNK N   1      23.762  17.561   3.923  0.00  0.00    -0.263 N 
HETATM    4  N   UNK N   1      23.949  20.539   3.062  0.00  0.00    -0.320 N 
HETATM    5  N   UNK N   1      26.118  17.888   4.258  0.00  0.00    -0.350 N 
ATOM      6  HN  UNK N   1      26.125  16.911   4.550  1.00  0.00     0.166 HD
HETATM    7  C   UNK N   1      24.026  16.180   4.293  0.00  0.00     0.258 C 
HETATM    8  C   UNK N   1      22.416  17.952   3.650  0.00  0.00     0.059 A 
HETATM    9  C   UNK N   1      24.905  18.409   3.868  0.00  0.00     0.142 A 
HETATM   10  C   UNK N   1      21.918  19.240   3.190  0.00  0.00     0.059 A 
HETATM   11  C   UNK N   1      24.957  19.782   3.474  0.00  0.00     0.080 A 
HETATM   12  C   UNK N   1      21.392  16.985   3.828  0.00  0.00     0.031 A 
HETATM   13  C   UNK N   1      22.634  20.399   2.903  0.00  0.00     0.258 A 
HETATM   14  C   UNK N   1      20.520  19.397   2.975  0.00  0.00     0.019 A 
HETATM   15  C   UNK N   1      26.186  20.459   3.498  0.00  0.00     0.035 A 
HETATM   16  C   UNK N   1      20.037  17.177   3.619  0.00  0.00     0.002 A 
HETATM   17  C   UNK N   1      19.596  18.397   3.188  0.00  0.00     0.001 A 
HETATM   18  C   UNK N   1      27.356  19.855   3.905  0.00  0.00     0.019 A 
HETATM   19  C   UNK N   1      27.302  18.541   4.291  0.00  0.00     0.090 A 
HETATM   20  H   UNK N   1      24.252  21.440   2.809  0.00  0.00     0.169 HD
ENDROOT
BRANCH   7  21
HETATM   21  C   UNK N   1      23.004  15.086   4.491  0.00  0.00     0.375 C 
BRANCH  21  22
HETATM   22  N   UNK N   1      23.289  14.258   5.671  0.00  0.00     0.100 N 
HETATM   23  C   UNK N   1      23.152  15.081   6.875  0.00  0.00     0.303 C 
HETATM   24  C   UNK N   1      21.697  15.541   7.083  0.00  0.00     0.302 C 
HETATM   25  N   UNK N   1      20.750  14.418   7.104  0.00  0.00     0.087 N 
HETATM   26  C   UNK N   1      20.932  13.527   5.954  0.00  0.00     0.302 C 
HETATM   27  C   UNK N   1      20.888  13.668   8.343  0.00  0.00     0.310 C 
HETATM   28  C   UNK N   1      22.396  13.097   5.785  0.00  0.00     0.303 C 
ENDBRANCH  21  22
ENDBRANCH   7  21
TORSDOF 2
ENDMDL
MODEL 3
REMARK VINA RESULT:      -7.1      2.349      6.351
REMARK  2 active torsions:
REMARK  status: ('A' for Active; 'I' for Inactive)
REMARK    1  A    between atoms: N_3  and  C_13 
REMARK       I    between atoms: N_5  and  C_15 
REMARK    2  A    between atoms: C_13  and  C_15 
ROOT
HETATM    1  O   UNK N   1      25.188  24.906  -6.021  0.00  0.00    -0.271 OA
HETATM    2  O   UNK N   1      30.839  21.304  -6.491  0.00  0.00    -0.267 OA
HETATM    3  N   UNK N   1      27.230  23.789  -5.829  0.00  0.00    -0.263 N 
HETATM    4  N   UNK N   1      28.777  21.445  -7.154  0.00  0.00    -0.320 N 
HETATM    5  N   UNK N   1      25.453  22.898  -7.178  0.00  0.00    -0.350 N 
ATOM      6  HN  UNK N   1      24.890  23.650  -6.780  1.00  0.00     0.166 HD
HETATM    7  C   UNK N   1      26.271  24.819  -5.465  0.00  0.00     0.258 C 
HETATM    8  C   UNK N   1      28.527  23.816  -5.230  0.00  0.00     0.059 A 
HETATM    9  C   UNK N   1      26.768  22.830  -6.775  0.00  0.00     0.142 A 
HETATM   10  C   UNK N   1      29.667  22.952  -5.491  0.00  0.00     0.059 A 
HETATM   11  C   UNK N   1      27.505  21.755  -7.362  0.00  0.00     0.080 A 
HETATM   12  C   UNK N   1      28.786  24.808  -4.248  0.00  0.00     0.031 A 
HETATM   13  C   UNK N   1      29.772  21.893  -6.390  0.00  0.00     0.258 A 
HETATM   14  C   UNK N   1      30.875  23.174  -4.770  0.00  0.00     0.019 A 
HETATM   15  C   UNK N   1      26.866  20.900  -8.273  0.00  0.00     0.035 A 
HETATM   16  C   UNK N   1      29.972  24.989  -3.558  0.00  0.00     0.002 A 
HETATM   17  C   UNK N   1      31.029  24.162  -3.822  0.00  0.00     0.001 A 
HETATM   18  C   UNK N   1      25.540  21.043  -8.619  0.00  0.00     0.019 A 
HETATM   19  C   UNK N   1      24.833  22.069  -8.048  0.00  0.00     0.090 A 
HETATM   20  H   UNK N   1      29.061  20.684  -7.710  0.00  0.00     0.169 HD
ENDROOT
BRANCH   7  21
HETATM   21  C   UNK N   1      26.467  25.916  -4.445  0.00  0.00     0.375 C 
BRANCH  21  22
HETATM   22  N   UNK N   1      25.865  27.189  -4.868  0.00  0.00     0.100 N 
HETATM   23  C   UNK N   1      25.652  28.030  -3.688  0.00  0.00     0.303 C 
HETATM   24  C   UNK N   1      26.986  28.444  -3.039  0.00  0.00     0.302 C 
HETATM   25  N   UNK N   1      27.896  29.095  -3.990  0.00  0.00     0.087 N 
HETATM   26  C   UNK N   1      28.052  28.313  -5.221  0.00  0.00     0.302 C 
HETATM   27  C   UNK N   1      27.419  30.433  -4.306  0.00  0.00     0.310 C 
HETATM   28  C   UNK N   1      26.698  27.923  -5.830  0.00  0.00     0.303 C 
ENDBRANCH  21  22
ENDBRANCH   7  21
TORSDOF 2
ENDMDL
MODEL 4
REMARK VINA RESULT:      -7.1      2.586      5.300
REMARK  2 active torsions:
REMARK  status: ('A' for Active; 'I' for Inactive)
REMARK    1  A    between atoms: N_3  and  C_13 
REMARK       I    between atoms: N_5  and  C_15 
REMARK    2  A    between atoms: C_13  and  C_15 
ROOT
HETATM    1  O   UNK N   1      27.805  22.572  -7.612  0.00  0.00    -0.271 OA
HETATM    2  O   UNK N   1      30.381  22.976  -1.420  0.00  0.00    -0.267 OA
HETATM    3  N   UNK N   1      29.035  22.610  -5.627  0.00  0.00    -0.263 N 
HETATM    4  N   UNK N   1      28.825  23.725  -2.736  0.00  0.00    -0.320 N 
HETATM    5  N   UNK N   1      27.113  24.021  -5.920  0.00  0.00    -0.350 N 
ATOM      6  HN  UNK N   1      27.125  23.691  -6.885  1.00  0.00     0.166 HD
HETATM    7  C   UNK N   1      28.806  22.220  -7.008  0.00  0.00     0.258 C 
HETATM    8  C   UNK N   1      30.162  22.066  -4.938  0.00  0.00     0.059 A 
HETATM    9  C   UNK N   1      28.085  23.521  -5.083  0.00  0.00     0.142 A 
HETATM   10  C   UNK N   1      30.550  22.243  -3.547  0.00  0.00     0.059 A 
HETATM   11  C   UNK N   1      28.020  24.023  -3.745  0.00  0.00     0.080 A 
HETATM   12  C   UNK N   1      31.046  21.228  -5.666  0.00  0.00     0.031 A 
HETATM   13  C   UNK N   1      29.914  22.981  -2.551  0.00  0.00     0.258 A 
HETATM   14  C   UNK N   1      31.723  21.588  -3.074  0.00  0.00     0.019 A 
HETATM   15  C   UNK N   1      27.008  24.932  -3.400  0.00  0.00     0.035 A 
HETATM   16  C   UNK N   1      32.186  20.615  -5.175  0.00  0.00     0.002 A 
HETATM   17  C   UNK N   1      32.529  20.798  -3.864  0.00  0.00     0.001 A 
HETATM   18  C   UNK N   1      26.073  25.380  -4.308  0.00  0.00     0.019 A 
HETATM   19  C   UNK N   1      26.143  24.904  -5.592  0.00  0.00     0.090 A 
HETATM   20  H   UNK N   1      28.545  24.171  -1.904  0.00  0.00     0.169 HD
ENDROOT
BRANCH   7  21
HETATM   21  C   UNK N   1      29.684  21.325  -7.852  0.00  0.00     0.375 C 
BRANCH  21  22
HETATM   22  N   UNK N   1      28.933  20.218  -8.462  0.00  0.00     0.100 N 
HETATM   23  C   UNK N   1      29.020  20.331  -9.919  0.00  0.00     0.303 C 
HETATM   24  C   UNK N   1      30.462  20.126 -10.419  0.00  0.00     0.302 C 
HETATM   25  N   UNK N   1      31.043  18.859  -9.955  0.00  0.00     0.087 N 
HETATM   26  C   UNK N   1      30.885  18.681  -8.508  0.00  0.00     0.302 C 
HETATM   27  C   UNK N   1      30.440  17.740 -10.664  0.00  0.00     0.310 C 
HETATM   28  C   UNK N   1      29.433  18.897  -8.058  0.00  0.00     0.303 C 
ENDBRANCH  21  22
ENDBRANCH   7  21
TORSDOF 2
ENDMDL
MODEL 5
REMARK VINA RESULT:      -7.1     11.145     14.741
REMARK  2 active torsions:
REMARK  status: ('A' for Active; 'I' for Inactive)
REMARK    1  A    between atoms: N_3  and  C_13 
REMARK       I    between atoms: N_5  and  C_15 
REMARK    2  A    between atoms: C_13  and  C_15 
ROOT
HETATM    1  O   UNK N   1      29.369  16.565   3.388  0.00  0.00    -0.271 OA
HETATM    2  O   UNK N   1      33.125  17.541   8.872  0.00  0.00    -0.267 OA
HETATM    3  N   UNK N   1      30.339  16.895   5.487  0.00  0.00    -0.263 N 
HETATM    4  N   UNK N   1      33.117  16.720   6.863  0.00  0.00    -0.320 N 
HETATM    5  N   UNK N   1      31.550  15.809   3.720  0.00  0.00    -0.350 N 
ATOM      6  HN  UNK N   1      30.666  15.838   3.212  1.00  0.00     0.166 HD
HETATM    7  C   UNK N   1      29.225  16.901   4.553  0.00  0.00     0.258 C 
HETATM    8  C   UNK N   1      30.134  17.415   6.802  0.00  0.00     0.059 A 
HETATM    9  C   UNK N   1      31.556  16.356   4.983  0.00  0.00     0.142 A 
HETATM   10  C   UNK N   1      31.103  17.587   7.873  0.00  0.00     0.059 A 
HETATM   11  C   UNK N   1      32.821  16.283   5.647  0.00  0.00     0.080 A 
HETATM   12  C   UNK N   1      28.826  17.844   7.152  0.00  0.00     0.031 A 
HETATM   13  C   UNK N   1      32.463  17.288   7.874  0.00  0.00     0.258 A 
HETATM   14  C   UNK N   1      30.666  18.140   9.110  0.00  0.00     0.019 A 
HETATM   15  C   UNK N   1      33.912  15.699   4.985  0.00  0.00     0.035 A 
HETATM   16  C   UNK N   1      28.435  18.369   8.371  0.00  0.00     0.002 A 
HETATM   17  C   UNK N   1      29.366  18.518   9.362  0.00  0.00     0.001 A 
HETATM   18  C   UNK N   1      33.814  15.173   3.715  0.00  0.00     0.019 A 
HETATM   19  C   UNK N   1      32.598  15.237   3.085  0.00  0.00     0.090 A 
HETATM   20  H   UNK N   1      34.069  16.588   7.074  0.00  0.00     0.169 HD
ENDROOT
BRANCH   7  21
HETATM   21  C   UNK N   1      27.811  17.350   4.835  0.00  0.00     0.375 C 
BRANCH  21  22
HETATM   22  N   UNK N   1      27.177  17.977   3.666  0.00  0.00     0.100 N 
HETATM   23  C   UNK N   1      25.916  17.289   3.381  0.00  0.00     0.303 C 
HETATM   24  C   UNK N   1      24.893  17.489   4.515  0.00  0.00     0.302 C 
HETATM   25  N   UNK N   1      24.660  18.908   4.817  0.00  0.00     0.087 N 
HETATM   26  C   UNK N   1      25.915  19.639   5.014  0.00  0.00     0.302 C 
HETATM   27  C   UNK N   1      23.884  19.527   3.753  0.00  0.00     0.310 C 
HETATM   28  C   UNK N   1      26.903  19.407   3.862  0.00  0.00     0.303 C 
ENDBRANCH  21  22
ENDBRANCH   7  21
TORSDOF 2
ENDMDL
MODEL 6
REMARK VINA RESULT:      -7.0     12.491     13.995
REMARK  2 active torsions:
REMARK  status: ('A' for Active; 'I' for Inactive)
REMARK    1  A    between atoms: N_3  and  C_13 
REMARK       I    between atoms: N_5  and  C_15 
REMARK    2  A    between atoms: C_13  and  C_15 
ROOT
HETATM    1  O   UNK N   1      24.173  15.800   6.131  0.00  0.00    -0.271 OA
HETATM    2  O   UNK N   1      25.048  21.258   2.311  0.00  0.00    -0.267 OA
HETATM    3  N   UNK N   1      24.109  17.779   4.891  0.00  0.00    -0.263 N 
HETATM    4  N   UNK N   1      26.055  19.812   3.580  0.00  0.00    -0.320 N 
HETATM    5  N   UNK N   1      26.163  16.983   5.848  0.00  0.00    -0.350 N 
ATOM      6  HN  UNK N   1      25.578  16.285   6.308  1.00  0.00     0.166 HD
HETATM    7  C   UNK N   1      23.496  16.653   5.577  0.00  0.00     0.258 C 
HETATM    8  C   UNK N   1      23.270  18.674   4.159  0.00  0.00     0.059 A 
HETATM    9  C   UNK N   1      25.523  17.880   5.022  0.00  0.00     0.142 A 
HETATM   10  C   UNK N   1      23.653  19.812   3.337  0.00  0.00     0.059 A 
HETATM   11  C   UNK N   1      26.392  18.835   4.409  0.00  0.00     0.080 A 
HETATM   12  C   UNK N   1      21.867  18.458   4.202  0.00  0.00     0.031 A 
HETATM   13  C   UNK N   1      24.928  20.300   3.064  0.00  0.00     0.258 A 
HETATM   14  C   UNK N   1      22.632  20.562   2.688  0.00  0.00     0.019 A 
HETATM   15  C   UNK N   1      27.770  18.780   4.673  0.00  0.00     0.035 A 
HETATM   16  C   UNK N   1      20.901  19.217   3.564  0.00  0.00     0.002 A 
HETATM   17  C   UNK N   1      21.288  20.282   2.799  0.00  0.00     0.001 A 
HETATM   18  C   UNK N   1      28.326  17.843   5.518  0.00  0.00     0.019 A 
HETATM   19  C   UNK N   1      27.489  16.934   6.110  0.00  0.00     0.090 A 
HETATM   20  H   UNK N   1      26.844  20.309   3.264  0.00  0.00     0.169 HD
ENDROOT
BRANCH   7  21
HETATM   21  C   UNK N   1      22.021  16.340   5.663  0.00  0.00     0.375 C 
BRANCH  21  22
HETATM   22  N   UNK N   1      21.733  14.921   5.413  0.00  0.00     0.100 N 
HETATM   23  C   UNK N   1      20.336  14.650   5.759  0.00  0.00     0.303 C 
HETATM   24  C   UNK N   1      19.366  15.399   4.827  0.00  0.00     0.302 C 
HETATM   25  N   UNK N   1      19.619  15.116   3.408  0.00  0.00     0.087 N 
HETATM   26  C   UNK N   1      21.032  15.291   3.058  0.00  0.00     0.302 C 
HETATM   27  C   UNK N   1      19.187  13.765   3.080  0.00  0.00     0.310 C 
HETATM   28  C   UNK N   1      21.960  14.529   4.015  0.00  0.00     0.303 C 
ENDBRANCH  21  22
ENDBRANCH   7  21
TORSDOF 2
ENDMDL
MODEL 7
REMARK VINA RESULT:      -6.9     15.874     17.475
REMARK  2 active torsions:
REMARK  status: ('A' for Active; 'I' for Inactive)
REMARK    1  A    between atoms: N_3  and  C_13 
REMARK       I    between atoms: N_5  and  C_15 
REMARK    2  A    between atoms: C_13  and  C_15 
ROOT
HETATM    1  O   UNK N   1      23.973  15.415   5.550  0.00  0.00    -0.271 OA
HETATM    2  O   UNK N   1      19.872  13.266  10.418  0.00  0.00    -0.267 OA
HETATM    3  N   UNK N   1      22.295  14.926   7.099  0.00  0.00    -0.263 N 
HETATM    4  N   UNK N   1      21.524  12.703   9.127  0.00  0.00    -0.320 N 
HETATM    5  N   UNK N   1      23.894  13.260   6.438  0.00  0.00    -0.350 N 
ATOM      6  HN  UNK N   1      24.198  13.949   5.749  1.00  0.00     0.166 HD
HETATM    7  C   UNK N   1      22.945  15.767   6.108  0.00  0.00     0.258 C 
HETATM    8  C   UNK N   1      21.166  15.444   7.805  0.00  0.00     0.059 A 
HETATM    9  C   UNK N   1      22.865  13.633   7.273  0.00  0.00     0.142 A 
HETATM   10  C   UNK N   1      20.408  14.830   8.884  0.00  0.00     0.059 A 
HETATM   11  C   UNK N   1      22.481  12.626   8.214  0.00  0.00     0.080 A 
HETATM   12  C   UNK N   1      20.690  16.732   7.445  0.00  0.00     0.031 A 
HETATM   13  C   UNK N   1      20.601  13.592   9.492  0.00  0.00     0.258 A 
HETATM   14  C   UNK N   1      19.314  15.547   9.447  0.00  0.00     0.019 A 
HETATM   15  C   UNK N   1      23.161  11.399   8.223  0.00  0.00     0.035 A 
HETATM   16  C   UNK N   1      19.614  17.396   8.009  0.00  0.00     0.002 A 
HETATM   17  C   UNK N   1      18.917  16.796   9.021  0.00  0.00     0.001 A 
HETATM   18  C   UNK N   1      24.185  11.111   7.346  0.00  0.00     0.019 A 
HETATM   19  C   UNK N   1      24.544  12.074   6.440  0.00  0.00     0.090 A 
HETATM   20  H   UNK N   1      21.484  11.891   9.681  0.00  0.00     0.169 HD
ENDROOT
BRANCH   7  21
HETATM   21  C   UNK N   1      22.516  17.149   5.674  0.00  0.00     0.375 C 
BRANCH  21  22
HETATM   22  N   UNK N   1      22.739  17.381   4.240  0.00  0.00     0.100 N 
HETATM   23  C   UNK N   1      21.769  16.596   3.474  0.00  0.00     0.303 C 
HETATM   24  C   UNK N   1      20.329  17.085   3.713  0.00  0.00     0.302 C 
HETATM   25  N   UNK N   1      20.171  18.521   3.445  0.00  0.00     0.087 N 
HETATM   26  C   UNK N   1      21.191  19.321   4.129  0.00  0.00     0.302 C 
HETATM   27  C   UNK N   1      20.218  18.772   2.012  0.00  0.00     0.310 C 
HETATM   28  C   UNK N   1      22.609  18.795   3.863  0.00  0.00     0.303 C 
ENDBRANCH  21  22
ENDBRANCH   7  21
TORSDOF 2
ENDMDL
MODEL 8
REMARK VINA RESULT:      -6.9     12.035     14.137
REMARK  2 active torsions:
REMARK  status: ('A' for Active; 'I' for Inactive)
REMARK    1  A    between atoms: N_3  and  C_13 
REMARK       I    between atoms: N_5  and  C_15 
REMARK    2  A    between atoms: C_13  and  C_15 
ROOT
HETATM    1  O   UNK N   1      27.512  16.749   5.963  0.00  0.00    -0.271 OA
HETATM    2  O   UNK N   1      34.112  17.712   6.772  0.00  0.00    -0.267 OA
HETATM    3  N   UNK N   1      29.813  17.138   5.861  0.00  0.00    -0.263 N 
HETATM    4  N   UNK N   1      32.176  17.858   7.743  0.00  0.00    -0.320 N 
HETATM    5  N   UNK N   1      28.554  17.665   7.837  0.00  0.00    -0.350 N 
ATOM      6  HN  UNK N   1      27.736  17.440   7.272  1.00  0.00     0.166 HD
HETATM    7  C   UNK N   1      28.526  16.791   5.282  0.00  0.00     0.258 C 
HETATM    8  C   UNK N   1      30.979  17.050   5.040  0.00  0.00     0.059 A 
HETATM    9  C   UNK N   1      29.782  17.544   7.225  0.00  0.00     0.142 A 
HETATM   10  C   UNK N   1      32.370  17.267   5.410  0.00  0.00     0.059 A 
HETATM   11  C   UNK N   1      30.890  17.877   8.065  0.00  0.00     0.080 A 
HETATM   12  C   UNK N   1      30.809  16.698   3.676  0.00  0.00     0.031 A 
HETATM   13  C   UNK N   1      32.899  17.609   6.652  0.00  0.00     0.258 A 
HETATM   14  C   UNK N   1      33.375  17.113   4.415  0.00  0.00     0.019 A 
HETATM   15  C   UNK N   1      30.655  18.270   9.391  0.00  0.00     0.035 A 
HETATM   16  C   UNK N   1      31.812  16.567   2.731  0.00  0.00     0.002 A 
HETATM   17  C   UNK N   1      33.111  16.777   3.105  0.00  0.00     0.001 A 
HETATM   18  C   UNK N   1      29.386  18.364   9.922  0.00  0.00     0.019 A 
HETATM   19  C   UNK N   1      28.325  18.053   9.113  0.00  0.00     0.090 A 
HETATM   20  H   UNK N   1      32.745  18.091   8.511  0.00  0.00     0.169 HD
ENDROOT
BRANCH   7  21
HETATM   21  C   UNK N   1      28.255  16.393   3.851  0.00  0.00     0.375 C 
BRANCH  21  22
HETATM   22  N   UNK N   1      27.400  15.202   3.751  0.00  0.00     0.100 N 
HETATM   23  C   UNK N   1      27.136  14.921   2.338  0.00  0.00     0.303 C 
HETATM   24  C   UNK N   1      28.422  14.522   1.591  0.00  0.00     0.302 C 
HETATM   25  N   UNK N   1      29.116  13.396   2.229  0.00  0.00     0.087 N 
HETATM   26  C   UNK N   1      29.309  13.615   3.665  0.00  0.00     0.302 C 
HETATM   27  C   UNK N   1      28.380  12.160   2.006  0.00  0.00     0.310 C 
HETATM   28  C   UNK N   1      28.002  14.012   4.367  0.00  0.00     0.303 C 
ENDBRANCH  21  22
ENDBRANCH   7  21
TORSDOF 2
ENDMDL
MODEL 9
REMARK VINA RESULT:      -6.9     15.621     16.930
REMARK  2 active torsions:
REMARK  status: ('A' for Active; 'I' for Inactive)
REMARK    1  A    between atoms: N_3  and  C_13 
REMARK       I    between atoms: N_5  and  C_15 
REMARK    2  A    between atoms: C_13  and  C_15 
ROOT
HETATM    1  O   UNK N   1      25.406  13.469   7.857  0.00  0.00    -0.271 OA
HETATM    2  O   UNK N   1      19.131  15.611   8.941  0.00  0.00    -0.267 OA
HETATM    3  N   UNK N   1      23.218  14.288   7.854  0.00  0.00    -0.263 N 
HETATM    4  N   UNK N   1      20.681  14.263   9.643  0.00  0.00    -0.320 N 
HETATM    5  N   UNK N   1      23.924  12.648   9.460  0.00  0.00    -0.350 N 
ATOM      6  HN  UNK N   1      24.786  12.611   8.916  1.00  0.00     0.166 HD
HETATM    7  C   UNK N   1      24.549  14.129   7.290  0.00  0.00     0.258 C 
HETATM    8  C   UNK N   1      22.301  15.172   7.207  0.00  0.00     0.059 A 
HETATM    9  C   UNK N   1      22.955  13.525   9.026  0.00  0.00     0.142 A 
HETATM   10  C   UNK N   1      20.959  15.551   7.620  0.00  0.00     0.059 A 
HETATM   11  C   UNK N   1      21.770  13.531   9.826  0.00  0.00     0.080 A 
HETATM   12  C   UNK N   1      22.715  15.794   5.999  0.00  0.00     0.031 A 
HETATM   13  C   UNK N   1      20.247  15.148   8.747  0.00  0.00     0.258 A 
HETATM   14  C   UNK N   1      20.226  16.465   6.812  0.00  0.00     0.019 A 
HETATM   15  C   UNK N   1      21.693  12.691  10.948  0.00  0.00     0.035 A 
HETATM   16  C   UNK N   1      21.969  16.672   5.232  0.00  0.00     0.002 A 
HETATM   17  C   UNK N   1      20.709  17.011   5.643  0.00  0.00     0.001 A 
HETATM   18  C   UNK N   1      22.716  11.841  11.309  0.00  0.00     0.019 A 
HETATM   19  C   UNK N   1      23.848  11.831  10.536  0.00  0.00     0.090 A 
HETATM   20  H   UNK N   1      20.019  14.113  10.356  0.00  0.00     0.169 HD
ENDROOT
BRANCH   7  21
HETATM   21  C   UNK N   1      25.076  14.761   6.024  0.00  0.00     0.375 C 
BRANCH  21  22
HETATM   22  N   UNK N   1      26.526  14.995   6.075  0.00  0.00     0.100 N 
HETATM   23  C   UNK N   1      27.132  14.508   4.834  0.00  0.00     0.303 C 
HETATM   24  C   UNK N   1      26.663  15.325   3.616  0.00  0.00     0.302 C 
HETATM   25  N   UNK N   1      26.895  16.766   3.783  0.00  0.00     0.087 N 
HETATM   26  C   UNK N   1      26.379  17.259   5.063  0.00  0.00     0.302 C 
HETATM   27  C   UNK N   1      28.316  17.062   3.670  0.00  0.00     0.310 C 
HETATM   28  C   UNK N   1      26.870  16.413   6.246  0.00  0.00     0.303 C 
ENDBRANCH  21  22
ENDBRANCH   7  21
TORSDOF 2
ENDMDL
