MODEL 1
REMARK VINA RESULT:      -6.1      0.000      0.000
REMARK  4 active torsions:
REMARK  status: ('A' for Active; 'I' for Inactive)
REMARK    1  A    between atoms: S_2  and  N_6 
REMARK    2  A    between atoms: S_2  and  C_9 
REMARK       I    between atoms: N_6  and  C_11 
REMARK    3  A    between atoms: N_7  and  C_8 
REMARK       I    between atoms: N_7  and  C_11 
REMARK    4  A    between atoms: C_8  and  C_10 
ROOT
HETATM    1  S   UNK N   1      36.009  14.289  12.711  0.00  0.00     0.266 S 
HETATM    2  O   UNK N   1      36.660  13.468  11.588  0.00  0.00    -0.200 OA
HETATM    3  O   UNK N   1      34.765  13.391  12.597  0.00  0.00    -0.200 OA
ENDROOT
BRANCH   1   4
HETATM    4  N   UNK N   1      34.948  15.301  11.741  0.00  0.00    -0.232 N 
HETATM    5  C   UNK N   1      35.354  16.193  10.812  0.00  0.00     0.329 C 
HETATM    6  O   UNK N   1      36.543  16.435  10.658  0.00  0.00    -0.246 OA
HETATM    7  N   UNK N   1      34.418  16.795  10.040  0.00  0.00    -0.342 N 
HETATM    8  H   UNK N   1      33.472  16.568  10.194  0.00  0.00     0.164 HD
HETATM    9  H   UNK N   1      33.979  15.209  11.885  0.00  0.00     0.183 HD
BRANCH   7  10
HETATM   10  C   UNK N   1      34.731  17.749   9.009  0.00  0.00     0.124 C 
BRANCH  10  11
HETATM   11  C   UNK N   1      33.472  18.020   8.206  0.00  0.00     0.015 C 
HETATM   12  C   UNK N   1      33.678  17.621   6.761  0.00  0.00     0.006 C 
ENDBRANCH  10  11
ENDBRANCH   7  10
ENDBRANCH   1   4
BRANCH   1  13
HETATM   13  C   UNK N   1      36.111  13.195  14.150  0.00  0.00     0.080 A 
HETATM   14  C   UNK N   1      36.902  12.037  14.151  0.00  0.00     0.027 A 
HETATM   15  C   UNK N   1      36.913  11.201  15.278  0.00  0.00     0.025 A 
HETATM   16  C   UNK N   1      36.128  11.512  16.397  0.00  0.00     0.034 A 
HETATM   17 Cl   UNK N   1      36.135  10.473  17.807  0.00  0.00    -0.084 Cl
HETATM   18  C   UNK N   1      35.330  12.654  16.391  0.00  0.00     0.025 A 
HETATM   19  C   UNK N   1      35.318  13.487  15.273  0.00  0.00     0.027 A 
ENDBRANCH   1  13
TORSDOF 4
ENDMDL
MODEL 2
REMARK VINA RESULT:      -6.0      3.693      7.568
REMARK  4 active torsions:
REMARK  status: ('A' for Active; 'I' for Inactive)
REMARK    1  A    between atoms: S_2  and  N_6 
REMARK    2  A    between atoms: S_2  and  C_9 
REMARK       I    between atoms: N_6  and  C_11 
REMARK    3  A    between atoms: N_7  and  C_8 
REMARK       I    between atoms: N_7  and  C_11 
REMARK    4  A    between atoms: C_8  and  C_10 
ROOT
HETATM    1  S   UNK N   1      35.811  15.192  11.035  0.00  0.00     0.266 S 
HETATM    2  O   UNK N   1      37.062  15.958  10.579  0.00  0.00    -0.200 OA
HETATM    3  O   UNK N   1      35.302  16.486  11.693  0.00  0.00    -0.200 OA
ENDROOT
BRANCH   1   4
HETATM    4  N   UNK N   1      36.249  14.914  12.714  0.00  0.00    -0.232 N 
HETATM    5  C   UNK N   1      35.728  13.954  13.508  0.00  0.00     0.329 C 
HETATM    6  O   UNK N   1      34.803  13.255  13.117  0.00  0.00    -0.246 OA
HETATM    7  N   UNK N   1      36.267  13.766  14.736  0.00  0.00    -0.342 N 
HETATM    8  H   UNK N   1      37.014  14.347  15.010  0.00  0.00     0.164 HD
HETATM    9  H   UNK N   1      36.930  15.505  13.108  0.00  0.00     0.183 HD
BRANCH   7  10
HETATM   10  C   UNK N   1      35.809  12.766  15.663  0.00  0.00     0.124 C 
BRANCH  10  11
HETATM   11  C   UNK N   1      34.717  13.372  16.526  0.00  0.00     0.015 C 
HETATM   12  C   UNK N   1      35.232  13.606  17.930  0.00  0.00     0.006 C 
ENDBRANCH  10  11
ENDBRANCH   7  10
ENDBRANCH   1   4
BRANCH   1  13
HETATM   13  C   UNK N   1      34.518  15.787   9.916  0.00  0.00     0.080 A 
HETATM   14  C   UNK N   1      34.543  17.077   9.366  0.00  0.00     0.027 A 
HETATM   15  C   UNK N   1      33.494  17.503   8.537  0.00  0.00     0.025 A 
HETATM   16  C   UNK N   1      32.416  16.648   8.266  0.00  0.00     0.034 A 
HETATM   17 Cl   UNK N   1      31.102  17.172   7.234  0.00  0.00    -0.084 Cl
HETATM   18  C   UNK N   1      32.382  15.372   8.824  0.00  0.00     0.025 A 
HETATM   19  C   UNK N   1      33.424  14.946   9.647  0.00  0.00     0.027 A 
ENDBRANCH   1  13
TORSDOF 4
ENDMDL
MODEL 3
REMARK VINA RESULT:      -6.0      4.736      8.905
REMARK  4 active torsions:
REMARK  status: ('A' for Active; 'I' for Inactive)
REMARK    1  A    between atoms: S_2  and  N_6 
REMARK    2  A    between atoms: S_2  and  C_9 
REMARK       I    between atoms: N_6  and  C_11 
REMARK    3  A    between atoms: N_7  and  C_8 
REMARK       I    between atoms: N_7  and  C_11 
REMARK    4  A    between atoms: C_8  and  C_10 
ROOT
HETATM    1  S   UNK N   1      34.562  17.575   8.305  0.00  0.00     0.266 S 
HETATM    2  O   UNK N   1      34.942  19.063   8.297  0.00  0.00    -0.200 OA
HETATM    3  O   UNK N   1      33.284  17.941   9.079  0.00  0.00    -0.200 OA
ENDROOT
BRANCH   1   4
HETATM    4  N   UNK N   1      35.034  17.173   9.950  0.00  0.00    -0.232 N 
HETATM    5  C   UNK N   1      35.119  15.924  10.455  0.00  0.00     0.329 C 
HETATM    6  O   UNK N   1      34.755  14.958   9.796  0.00  0.00    -0.246 OA
HETATM    7  N   UNK N   1      35.637  15.760  11.695  0.00  0.00    -0.342 N 
HETATM    8  H   UNK N   1      35.922  16.563  12.189  0.00  0.00     0.164 HD
HETATM    9  H   UNK N   1      35.256  17.919  10.552  0.00  0.00     0.183 HD
BRANCH   7  10
HETATM   10  C   UNK N   1      35.792  14.479  12.331  0.00  0.00     0.124 C 
BRANCH  10  11
HETATM   11  C   UNK N   1      36.399  14.692  13.705  0.00  0.00     0.015 C 
HETATM   12  C   UNK N   1      35.973  13.583  14.642  0.00  0.00     0.006 C 
ENDBRANCH  10  11
ENDBRANCH   7  10
ENDBRANCH   1   4
BRANCH   1  13
HETATM   13  C   UNK N   1      33.243  17.467   7.070  0.00  0.00     0.080 A 
HETATM   14  C   UNK N   1      31.899  17.282   7.428  0.00  0.00     0.027 A 
HETATM   15  C   UNK N   1      30.920  17.164   6.429  0.00  0.00     0.025 A 
HETATM   16  C   UNK N   1      31.282  17.217   5.076  0.00  0.00     0.034 A 
HETATM   17 Cl   UNK N   1      30.067  17.068   3.824  0.00  0.00    -0.084 Cl
HETATM   18  C   UNK N   1      32.618  17.384   4.719  0.00  0.00     0.025 A 
HETATM   19  C   UNK N   1      33.592  17.504   5.709  0.00  0.00     0.027 A 
ENDBRANCH   1  13
TORSDOF 4
ENDMDL
MODEL 4
REMARK VINA RESULT:      -5.9     17.958     19.781
REMARK  4 active torsions:
REMARK  status: ('A' for Active; 'I' for Inactive)
REMARK    1  A    between atoms: S_2  and  N_6 
REMARK    2  A    between atoms: S_2  and  C_9 
REMARK       I    between atoms: N_6  and  C_11 
REMARK    3  A    between atoms: N_7  and  C_8 
REMARK       I    between atoms: N_7  and  C_11 
REMARK    4  A    between atoms: C_8  and  C_10 
ROOT
HETATM    1  S   UNK N   1      30.044  22.649  -2.862  0.00  0.00     0.266 S 
HETATM    2  O   UNK N   1      30.387  23.040  -1.417  0.00  0.00    -0.200 OA
HETATM    3  O   UNK N   1      31.169  23.582  -3.343  0.00  0.00    -0.200 OA
ENDROOT
BRANCH   1   4
HETATM    4  N   UNK N   1      29.127  24.074  -3.329  0.00  0.00    -0.232 N 
HETATM    5  C   UNK N   1      28.453  24.224  -4.488  0.00  0.00     0.329 C 
HETATM    6  O   UNK N   1      28.528  23.376  -5.368  0.00  0.00    -0.246 OA
HETATM    7  N   UNK N   1      27.672  25.319  -4.647  0.00  0.00    -0.342 N 
HETATM    8  H   UNK N   1      27.635  25.974  -3.913  0.00  0.00     0.164 HD
HETATM    9  H   UNK N   1      29.103  24.825  -2.692  0.00  0.00     0.183 HD
BRANCH   7  10
HETATM   10  C   UNK N   1      26.894  25.578  -5.830  0.00  0.00     0.124 C 
BRANCH  10  11
HETATM   11  C   UNK N   1      25.427  25.614  -5.444  0.00  0.00     0.015 C 
HETATM   12  C   UNK N   1      24.860  26.998  -5.673  0.00  0.00     0.006 C 
ENDBRANCH  10  11
ENDBRANCH   7  10
ENDBRANCH   1   4
BRANCH   1  13
HETATM   13  C   UNK N   1      31.387  21.529  -3.328  0.00  0.00     0.080 A 
HETATM   14  C   UNK N   1      32.654  21.594  -2.730  0.00  0.00     0.027 A 
HETATM   15  C   UNK N   1      33.673  20.729  -3.157  0.00  0.00     0.025 A 
HETATM   16  C   UNK N   1      33.434  19.810  -4.189  0.00  0.00     0.034 A 
HETATM   17 Cl   UNK N   1      34.701  18.728  -4.729  0.00  0.00    -0.084 Cl
HETATM   18  C   UNK N   1      32.180  19.755  -4.795  0.00  0.00     0.025 A 
HETATM   19  C   UNK N   1      31.166  20.612  -4.371  0.00  0.00     0.027 A 
ENDBRANCH   1  13
TORSDOF 4
ENDMDL
MODEL 5
REMARK VINA RESULT:      -5.6      4.258      8.177
REMARK  4 active torsions:
REMARK  status: ('A' for Active; 'I' for Inactive)
REMARK    1  A    between atoms: S_2  and  N_6 
REMARK    2  A    between atoms: S_2  and  C_9 
REMARK       I    between atoms: N_6  and  C_11 
REMARK    3  A    between atoms: N_7  and  C_8 
REMARK       I    between atoms: N_7  and  C_11 
REMARK    4  A    between atoms: C_8  and  C_10 
ROOT
HETATM    1  S   UNK N   1      35.562  15.314  10.151  0.00  0.00     0.266 S 
HETATM    2  O   UNK N   1      36.467  16.403  10.748  0.00  0.00    -0.200 OA
HETATM    3  O   UNK N   1      34.340  16.123  10.619  0.00  0.00    -0.200 OA
ENDROOT
BRANCH   1   4
HETATM    4  N   UNK N   1      35.136  14.462  11.628  0.00  0.00    -0.232 N 
HETATM    5  C   UNK N   1      34.905  13.136  11.725  0.00  0.00     0.329 C 
HETATM    6  O   UNK N   1      34.876  12.433  10.724  0.00  0.00    -0.246 OA
HETATM    7  N   UNK N   1      34.730  12.597  12.955  0.00  0.00    -0.342 N 
HETATM    8  H   UNK N   1      34.766  13.197  13.735  0.00  0.00     0.164 HD
HETATM    9  H   UNK N   1      35.061  14.995  12.452  0.00  0.00     0.183 HD
BRANCH   7  10
HETATM   10  C   UNK N   1      34.494  11.196  13.185  0.00  0.00     0.124 C 
BRANCH  10  11
HETATM   11  C   UNK N   1      33.785  11.039  14.517  0.00  0.00     0.015 C 
HETATM   12  C   UNK N   1      34.589  10.144  15.435  0.00  0.00     0.006 C 
ENDBRANCH  10  11
ENDBRANCH   7  10
ENDBRANCH   1   4
BRANCH   1  13
HETATM   13  C   UNK N   1      34.922  16.077   8.639  0.00  0.00     0.080 A 
HETATM   14  C   UNK N   1      34.332  17.350   8.637  0.00  0.00     0.027 A 
HETATM   15  C   UNK N   1      33.815  17.877   7.444  0.00  0.00     0.025 A 
HETATM   16  C   UNK N   1      33.873  17.133   6.258  0.00  0.00     0.034 A 
HETATM   17 Cl   UNK N   1      33.227  17.783   4.766  0.00  0.00    -0.084 Cl
HETATM   18  C   UNK N   1      34.444  15.861   6.262  0.00  0.00     0.025 A 
HETATM   19  C   UNK N   1      34.961  15.336   7.444  0.00  0.00     0.027 A 
ENDBRANCH   1  13
TORSDOF 4
ENDMDL
MODEL 6
REMARK VINA RESULT:      -5.6      3.381      4.036
REMARK  4 active torsions:
REMARK  status: ('A' for Active; 'I' for Inactive)
REMARK    1  A    between atoms: S_2  and  N_6 
REMARK    2  A    between atoms: S_2  and  C_9 
REMARK       I    between atoms: N_6  and  C_11 
REMARK    3  A    between atoms: N_7  and  C_8 
REMARK       I    between atoms: N_7  and  C_11 
REMARK    4  A    between atoms: C_8  and  C_10 
ROOT
HETATM    1  S   UNK N   1      36.058  12.724  14.049  0.00  0.00     0.266 S 
HETATM    2  O   UNK N   1      34.854  13.592  13.652  0.00  0.00    -0.200 OA
HETATM    3  O   UNK N   1      36.628  13.931  14.816  0.00  0.00    -0.200 OA
ENDROOT
BRANCH   1   4
HETATM    4  N   UNK N   1      37.236  13.334  12.895  0.00  0.00    -0.232 N 
HETATM    5  C   UNK N   1      37.653  12.684  11.788  0.00  0.00     0.329 C 
HETATM    6  O   UNK N   1      37.295  11.534  11.567  0.00  0.00    -0.246 OA
HETATM    7  N   UNK N   1      38.455  13.339  10.916  0.00  0.00    -0.342 N 
HETATM    8  H   UNK N   1      38.715  14.264  11.129  0.00  0.00     0.164 HD
HETATM    9  H   UNK N   1      37.623  14.222  13.070  0.00  0.00     0.183 HD
BRANCH   7  10
HETATM   10  C   UNK N   1      38.949  12.756   9.696  0.00  0.00     0.124 C 
BRANCH  10  11
HETATM   11  C   UNK N   1      38.643  13.705   8.551  0.00  0.00     0.015 C 
HETATM   12  C   UNK N   1      37.205  13.541   8.107  0.00  0.00     0.006 C 
ENDBRANCH  10  11
ENDBRANCH   7  10
ENDBRANCH   1   4
BRANCH   1  13
HETATM   13  C   UNK N   1      35.746  12.339  15.790  0.00  0.00     0.080 A 
HETATM   14  C   UNK N   1      35.264  13.299  16.692  0.00  0.00     0.027 A 
HETATM   15  C   UNK N   1      35.079  12.958  18.041  0.00  0.00     0.025 A 
HETATM   16  C   UNK N   1      35.386  11.667  18.492  0.00  0.00     0.034 A 
HETATM   17 Cl   UNK N   1      35.160  11.235  20.174  0.00  0.00    -0.084 Cl
HETATM   18  C   UNK N   1      35.881  10.717  17.601  0.00  0.00     0.025 A 
HETATM   19  C   UNK N   1      36.064  11.052  16.260  0.00  0.00     0.027 A 
ENDBRANCH   1  13
TORSDOF 4
ENDMDL
MODEL 7
REMARK VINA RESULT:      -5.4      5.447      9.391
REMARK  4 active torsions:
REMARK  status: ('A' for Active; 'I' for Inactive)
REMARK    1  A    between atoms: S_2  and  N_6 
REMARK    2  A    between atoms: S_2  and  C_9 
REMARK       I    between atoms: N_6  and  C_11 
REMARK    3  A    between atoms: N_7  and  C_8 
REMARK       I    between atoms: N_7  and  C_11 
REMARK    4  A    between atoms: C_8  and  C_10 
ROOT
HETATM    1  S   UNK N   1      32.786  16.972   7.909  0.00  0.00     0.266 S 
HETATM    2  O   UNK N   1      33.507  18.328   7.891  0.00  0.00    -0.200 OA
HETATM    3  O   UNK N   1      31.658  17.622   8.729  0.00  0.00    -0.200 OA
ENDROOT
BRANCH   1   4
HETATM    4  N   UNK N   1      33.206  16.452   9.535  0.00  0.00    -0.232 N 
HETATM    5  C   UNK N   1      34.396  15.936   9.907  0.00  0.00     0.329 C 
HETATM    6  O   UNK N   1      35.258  15.692   9.074  0.00  0.00    -0.246 OA
HETATM    7  N   UNK N   1      34.624  15.716  11.224  0.00  0.00    -0.342 N 
HETATM    8  H   UNK N   1      33.905  15.931  11.862  0.00  0.00     0.164 HD
HETATM    9  H   UNK N   1      32.517  16.546  10.232  0.00  0.00     0.183 HD
BRANCH   7  10
HETATM   10  C   UNK N   1      35.858  15.186  11.741  0.00  0.00     0.124 C 
BRANCH  10  11
HETATM   11  C   UNK N   1      35.531  14.094  12.743  0.00  0.00     0.015 C 
HETATM   12  C   UNK N   1      36.403  14.234  13.971  0.00  0.00     0.006 C 
ENDBRANCH  10  11
ENDBRANCH   7  10
ENDBRANCH   1   4
BRANCH   1  13
HETATM   13  C   UNK N   1      31.437  17.192   6.722  0.00  0.00     0.080 A 
HETATM   14  C   UNK N   1      31.660  17.221   5.337  0.00  0.00     0.027 A 
HETATM   15  C   UNK N   1      30.584  17.437   4.462  0.00  0.00     0.025 A 
HETATM   16  C   UNK N   1      29.291  17.636   4.967  0.00  0.00     0.034 A 
HETATM   17 Cl   UNK N   1      27.944  17.907   3.881  0.00  0.00    -0.084 Cl
HETATM   18  C   UNK N   1      29.072  17.623   6.343  0.00  0.00     0.025 A 
HETATM   19  C   UNK N   1      30.138  17.408   7.214  0.00  0.00     0.027 A 
ENDBRANCH   1  13
TORSDOF 4
ENDMDL
MODEL 8
REMARK VINA RESULT:      -5.3      7.360     10.878
REMARK  4 active torsions:
REMARK  status: ('A' for Active; 'I' for Inactive)
REMARK    1  A    between atoms: S_2  and  N_6 
REMARK    2  A    between atoms: S_2  and  C_9 
REMARK       I    between atoms: N_6  and  C_11 
REMARK    3  A    between atoms: N_7  and  C_8 
REMARK       I    between atoms: N_7  and  C_11 
REMARK    4  A    between atoms: C_8  and  C_10 
ROOT
HETATM    1  S   UNK N   1      35.032  11.039  19.892  0.00  0.00     0.266 S 
HETATM    2  O   UNK N   1      36.407  10.929  20.569  0.00  0.00    -0.200 OA
HETATM    3  O   UNK N   1      35.158  12.571  19.965  0.00  0.00    -0.200 OA
ENDROOT
BRANCH   1   4
HETATM    4  N   UNK N   1      34.050  11.394  21.307  0.00  0.00    -0.232 N 
HETATM    5  C   UNK N   1      33.443  10.474  22.086  0.00  0.00     0.329 C 
HETATM    6  O   UNK N   1      33.456   9.289  21.779  0.00  0.00    -0.246 OA
HETATM    7  N   UNK N   1      32.840  10.887  23.226  0.00  0.00    -0.342 N 
HETATM    8  H   UNK N   1      32.857  11.848  23.439  0.00  0.00     0.164 HD
HETATM    9  H   UNK N   1      33.934  12.340  21.551  0.00  0.00     0.183 HD
BRANCH   7  10
HETATM   10  C   UNK N   1      32.177   9.999  24.143  0.00  0.00     0.124 C 
BRANCH  10  11
HETATM   11  C   UNK N   1      31.969  10.729  25.457  0.00  0.00     0.015 C 
HETATM   12  C   UNK N   1      30.556  10.517  25.955  0.00  0.00     0.006 C 
ENDBRANCH  10  11
ENDBRANCH   7  10
ENDBRANCH   1   4
BRANCH   1  13
HETATM   13  C   UNK N   1      35.432  11.539  18.199  0.00  0.00     0.080 A 
HETATM   14  C   UNK N   1      36.075  10.676  17.299  0.00  0.00     0.027 A 
HETATM   15  C   UNK N   1      36.399  11.128  16.010  0.00  0.00     0.025 A 
HETATM   16  C   UNK N   1      36.094  12.440  15.623  0.00  0.00     0.034 A 
HETATM   17 Cl   UNK N   1      36.498  13.012  14.018  0.00  0.00    -0.084 Cl
HETATM   18  C   UNK N   1      35.470  13.303  16.522  0.00  0.00     0.025 A 
HETATM   19  C   UNK N   1      35.145  12.857  17.802  0.00  0.00     0.027 A 
ENDBRANCH   1  13
TORSDOF 4
ENDMDL
MODEL 9
REMARK VINA RESULT:      -5.3     13.816     14.758
REMARK  4 active torsions:
REMARK  status: ('A' for Active; 'I' for Inactive)
REMARK    1  A    between atoms: S_2  and  N_6 
REMARK    2  A    between atoms: S_2  and  C_9 
REMARK       I    between atoms: N_6  and  C_11 
REMARK    3  A    between atoms: N_7  and  C_8 
REMARK       I    between atoms: N_7  and  C_11 
REMARK    4  A    between atoms: C_8  and  C_10 
ROOT
HETATM    1  S   UNK N   1      21.432  13.255   6.977  0.00  0.00     0.266 S 
HETATM    2  O   UNK N   1      20.552  12.058   6.586  0.00  0.00    -0.200 OA
HETATM    3  O   UNK N   1      20.286  13.761   7.871  0.00  0.00    -0.200 OA
ENDROOT
BRANCH   1   4
HETATM    4  N   UNK N   1      20.712  14.482   5.944  0.00  0.00    -0.232 N 
HETATM    5  C   UNK N   1      21.397  15.360   5.181  0.00  0.00     0.329 C 
HETATM    6  O   UNK N   1      22.617  15.424   5.245  0.00  0.00    -0.246 OA
HETATM    7  N   UNK N   1      20.706  16.151   4.326  0.00  0.00    -0.342 N 
HETATM    8  H   UNK N   1      19.726  16.065   4.302  0.00  0.00     0.164 HD
HETATM    9  H   UNK N   1      19.730  14.533   5.920  0.00  0.00     0.183 HD
BRANCH   7  10
HETATM   10  C   UNK N   1      21.327  17.111   3.452  0.00  0.00     0.124 C 
BRANCH  10  11
HETATM   11  C   UNK N   1      21.288  18.471   4.124  0.00  0.00     0.015 C 
HETATM   12  C   UNK N   1      22.311  19.393   3.497  0.00  0.00     0.006 C 
ENDBRANCH  10  11
ENDBRANCH   7  10
ENDBRANCH   1   4
BRANCH   1  13
HETATM   13  C   UNK N   1      21.966  12.857   8.660  0.00  0.00     0.080 A 
HETATM   14  C   UNK N   1      23.276  12.445   8.950  0.00  0.00     0.027 A 
HETATM   15  C   UNK N   1      23.626  12.109  10.266  0.00  0.00     0.025 A 
HETATM   16  C   UNK N   1      22.670  12.171  11.290  0.00  0.00     0.034 A 
HETATM   17 Cl   UNK N   1      23.100  11.751  12.935  0.00  0.00    -0.084 Cl
HETATM   18  C   UNK N   1      21.366  12.565  11.001  0.00  0.00     0.025 A 
HETATM   19  C   UNK N   1      21.015  12.901   9.695  0.00  0.00     0.027 A 
ENDBRANCH   1  13
TORSDOF 4
ENDMDL
