REMARK  4 active torsions:
REMARK  status: ('A' for Active; 'I' for Inactive)
REMARK    1  A    between atoms: S_2  and  N_6 
REMARK    2  A    between atoms: S_2  and  C_9 
REMARK       I    between atoms: N_6  and  C_11 
REMARK    3  A    between atoms: N_7  and  C_8 
REMARK       I    between atoms: N_7  and  C_11 
REMARK    4  A    between atoms: C_8  and  C_10 
ROOT
HETATM    1  S   UNK N   1       1.793  -0.125  -0.245  0.00  0.00     0.266 S 
HETATM    2  O   UNK N   1       0.291   0.075   0.007  0.00  0.00    -0.200 OA
HETATM    3  O   UNK N   1       1.975  -0.383   1.261  0.00  0.00    -0.200 OA
ENDROOT
BRANCH   1   4
HETATM    4  N   UNK N   1       2.380   1.440   0.299  0.00  0.00    -0.232 N 
HETATM    5  C   UNK N   1       3.439   2.099  -0.217  0.00  0.00     0.329 C 
HETATM    6  O   UNK N   1       4.148   1.574  -1.065  0.00  0.00    -0.246 OA
HETATM    7  N   UNK N   1       3.685   3.362   0.206  0.00  0.00    -0.342 N 
HETATM    8  H   UNK N   1       3.087   3.749   0.886  0.00  0.00     0.164 HD
HETATM    9  H   UNK N   1       1.897   1.872   1.040  0.00  0.00     0.183 HD
BRANCH   7  10
HETATM   10  C   UNK N   1       4.772   4.168  -0.283  0.00  0.00     0.124 C 
BRANCH  10  11
HETATM   11  C   UNK N   1       4.646   5.559   0.311  0.00  0.00     0.015 C 
HETATM   12  C   UNK N   1       5.905   6.356   0.046  0.00  0.00     0.006 C 
ENDBRANCH  10  11
ENDBRANCH   7  10
ENDBRANCH   1   4
BRANCH   1  13
HETATM   13  C   UNK N   1       2.009  -1.918  -0.119  0.00  0.00     0.080 A 
HETATM   14  C   UNK N   1       3.265  -2.529  -0.251  0.00  0.00     0.027 A 
HETATM   15  C   UNK N   1       3.371  -3.927  -0.186  0.00  0.00     0.025 A 
HETATM   16  C   UNK N   1       2.226  -4.715  -0.003  0.00  0.00     0.034 A 
HETATM   17 Cl   UNK N   1       2.350  -6.460   0.077  0.00  0.00    -0.084 Cl
HETATM   18  C   UNK N   1       0.976  -4.110   0.112  0.00  0.00     0.025 A 
HETATM   19  C   UNK N   1       0.868  -2.722   0.050  0.00  0.00     0.027 A 
ENDBRANCH   1  13
TORSDOF 4
