MODEL 1
REMARK VINA RESULT:     -10.0      0.000      0.000
REMARK  4 active torsions:
REMARK  status: ('A' for Active; 'I' for Inactive)
REMARK    1  A    between atoms: C_7  and  C_11 
REMARK    2  A    between atoms: C_13  and  C_15 
REMARK    3  A    between atoms: C_14  and  C_16 
REMARK    4  A    between atoms: C_18  and  C_19 
ROOT
HETATM    1  O   UNK N   1      22.693  13.790   9.467  0.00  0.00    -0.341 OA
HETATM    2  O   UNK N   1      19.737  14.807   9.072  0.00  0.00    -0.392 OA
HETATM    3  O   UNK N   1      24.263  13.009   9.904  0.00  0.00    -0.353 OA
HETATM    4  N   UNK N   1      20.646  12.336  11.234  0.00  0.00    -0.413 N 
HETATM    5  C   UNK N   1      21.549  13.422  10.034  0.00  0.00     0.036 A 
HETATM    6  C   UNK N   1      20.770  13.315  10.284  0.00  0.00     0.148 A 
HETATM    7  C   UNK N   1      22.153  12.961  10.354  0.00  0.00     0.001 A 
HETATM    8  C   UNK N   1      20.742  13.404  10.205  0.00  0.00     0.040 A 
HETATM    9  C   UNK N   1      20.167  13.777   9.963  0.00  0.00     0.069 A 
HETATM   10  C   UNK N   1      21.723  13.991   9.462  0.00  0.00    -0.011 A 
HETATM   11  C   UNK N   1      22.858  13.190  10.002  0.00  0.00     0.110 A 
HETATM   12  C   UNK N   1      20.340  12.921  10.739  0.00  0.00     0.118 A 
HETATM   13  C   UNK N   1      22.100  12.368  10.925  0.00  0.00    -0.030 A 
HETATM   14  C   UNK N   1      20.342  14.345   9.393  0.00  0.00     0.143 A 
HETATM   15  C   UNK N   1      21.429  12.089  11.316  0.00  0.00     0.155 A 
HETATM   16  C   UNK N   1      21.120  14.453   9.142  0.00  0.00     0.002 A 
HETATM   17  C   UNK N   1      23.536  12.802  10.239  0.00  0.00     0.102 A 
HETATM   18  C   UNK N   1      22.795  11.997  11.142  0.00  0.00     0.012 A 
HETATM   19  C   UNK N   1      23.506  12.212  10.803  0.00  0.00     0.040 A 
HETATM   20  C   UNK N   1      20.096  11.945  11.708  0.00  0.00     0.143 A 
HETATM   21  C   UNK N   1      24.951  12.620  10.140  0.00  0.00     0.210 A 
HETATM   22  H   UNK N   1      19.943  15.476   8.400  0.00  0.00     0.210 HD
ENDROOT
TORSDOF 4
ENDMDL
MODEL 2
REMARK VINA RESULT:      -9.9      1.250      1.999
REMARK  4 active torsions:
REMARK  status: ('A' for Active; 'I' for Inactive)
REMARK    1  A    between atoms: C_7  and  C_11 
REMARK    2  A    between atoms: C_13  and  C_15 
REMARK    3  A    between atoms: C_14  and  C_16 
REMARK    4  A    between atoms: C_18  and  C_19 
ROOT
HETATM    1  O   UNK N   1      22.659  13.152   9.300  0.00  0.00    -0.341 OA
HETATM    2  O   UNK N   1      20.029  12.579  10.937  0.00  0.00    -0.392 OA
HETATM    3  O   UNK N   1      24.317  13.361   8.611  0.00  0.00    -0.353 OA
HETATM    4  N   UNK N   1      23.175  11.899  12.054  0.00  0.00    -0.413 N 
HETATM    5  C   UNK N   1      22.465  12.629  10.505  0.00  0.00     0.036 A 
HETATM    6  C   UNK N   1      22.178  12.329  11.218  0.00  0.00     0.148 A 
HETATM    7  C   UNK N   1      23.277  12.645  10.361  0.00  0.00     0.001 A 
HETATM    8  C   UNK N   1      22.067  12.355  11.174  0.00  0.00     0.040 A 
HETATM    9  C   UNK N   1      21.366  12.313  11.362  0.00  0.00     0.069 A 
HETATM   10  C   UNK N   1      21.939  12.912   9.936  0.00  0.00    -0.011 A 
HETATM   11  C   UNK N   1      23.394  12.969   9.616  0.00  0.00     0.110 A 
HETATM   12  C   UNK N   1      22.382  12.030  11.863  0.00  0.00     0.118 A 
HETATM   13  C   UNK N   1      23.892  12.392  10.850  0.00  0.00    -0.030 A 
HETATM   14  C   UNK N   1      20.842  12.596  10.793  0.00  0.00     0.143 A 
HETATM   15  C   UNK N   1      23.846  12.060  11.603  0.00  0.00     0.155 A 
HETATM   16  C   UNK N   1      21.127  12.896  10.080  0.00  0.00     0.002 A 
HETATM   17  C   UNK N   1      24.165  13.039   9.356  0.00  0.00     0.102 A 
HETATM   18  C   UNK N   1      24.652  12.475  10.563  0.00  0.00     0.012 A 
HETATM   19  C   UNK N   1      24.788  12.795   9.824  0.00  0.00     0.040 A 
HETATM   20  C   UNK N   1      23.313  11.562  12.794  0.00  0.00     0.143 A 
HETATM   21  C   UNK N   1      25.094  13.434   8.343  0.00  0.00     0.210 A 
HETATM   22  H   UNK N   1      19.411  12.913  10.268  0.00  0.00     0.210 HD
ENDROOT
TORSDOF 4
ENDMDL
MODEL 3
REMARK VINA RESULT:      -9.7      1.575      3.670
REMARK  4 active torsions:
REMARK  status: ('A' for Active; 'I' for Inactive)
REMARK    1  A    between atoms: C_7  and  C_11 
REMARK    2  A    between atoms: C_13  and  C_15 
REMARK    3  A    between atoms: C_14  and  C_16 
REMARK    4  A    between atoms: C_18  and  C_19 
ROOT
HETATM    1  O   UNK N   1      22.254  11.892  11.873  0.00  0.00    -0.341 OA
HETATM    2  O   UNK N   1      25.361  11.965  11.350  0.00  0.00    -0.392 OA
HETATM    3  O   UNK N   1      20.451  12.001  11.898  0.00  0.00    -0.353 OA
HETATM    4  N   UNK N   1      23.025  13.269   9.240  0.00  0.00    -0.413 N 
HETATM    5  C   UNK N   1      22.970  12.388  10.870  0.00  0.00     0.036 A 
HETATM    6  C   UNK N   1      23.548  12.638  10.338  0.00  0.00     0.148 A 
HETATM    7  C   UNK N   1      22.173  12.529  10.710  0.00  0.00     0.001 A 
HETATM    8  C   UNK N   1      23.628  12.590  10.417  0.00  0.00     0.040 A 
HETATM    9  C   UNK N   1      24.345  12.497  10.498  0.00  0.00     0.069 A 
HETATM   10  C   UNK N   1      23.189  11.997  11.563  0.00  0.00    -0.011 A 
HETATM   11  C   UNK N   1      21.733  12.222  11.332  0.00  0.00     0.110 A 
HETATM   12  C   UNK N   1      23.654  12.982   9.691  0.00  0.00     0.118 A 
HETATM   13  C   UNK N   1      21.838  12.906  10.057  0.00  0.00    -0.030 A 
HETATM   14  C   UNK N   1      24.563  12.106  11.190  0.00  0.00     0.143 A 
HETATM   15  C   UNK N   1      22.217  13.236   9.403  0.00  0.00     0.155 A 
HETATM   16  C   UNK N   1      23.985  11.856  11.723  0.00  0.00     0.002 A 
HETATM   17  C   UNK N   1      20.922  12.300  11.289  0.00  0.00     0.102 A 
HETATM   18  C   UNK N   1      21.024  12.970  10.042  0.00  0.00     0.012 A 
HETATM   19  C   UNK N   1      20.570  12.670  10.651  0.00  0.00     0.040 A 
HETATM   20  C   UNK N   1      23.233  13.639   8.533  0.00  0.00     0.143 A 
HETATM   21  C   UNK N   1      19.630  12.077  11.860  0.00  0.00     0.210 A 
HETATM   22  H   UNK N   1      25.617  11.505  12.166  0.00  0.00     0.210 HD
ENDROOT
TORSDOF 4
ENDMDL
MODEL 4
REMARK VINA RESULT:      -9.6      1.755      2.875
REMARK  4 active torsions:
REMARK  status: ('A' for Active; 'I' for Inactive)
REMARK    1  A    between atoms: C_7  and  C_11 
REMARK    2  A    between atoms: C_13  and  C_15 
REMARK    3  A    between atoms: C_14  and  C_16 
REMARK    4  A    between atoms: C_18  and  C_19 
ROOT
HETATM    1  O   UNK N   1      24.262  12.062  10.350  0.00  0.00    -0.341 OA
HETATM    2  O   UNK N   1      23.595  11.876  13.424  0.00  0.00    -0.392 OA
HETATM    3  O   UNK N   1      24.334  12.201   8.550  0.00  0.00    -0.353 OA
HETATM    4  N   UNK N   1      21.266  12.303  10.975  0.00  0.00    -0.413 N 
HETATM    5  C   UNK N   1      23.110  12.120  11.010  0.00  0.00     0.036 A 
HETATM    6  C   UNK N   1      22.495  12.136  11.558  0.00  0.00     0.148 A 
HETATM    7  C   UNK N   1      22.949  12.202  10.205  0.00  0.00     0.001 A 
HETATM    8  C   UNK N   1      22.582  12.120  11.643  0.00  0.00     0.040 A 
HETATM    9  C   UNK N   1      22.656  12.054  12.363  0.00  0.00     0.069 A 
HETATM   10  C   UNK N   1      23.889  12.023  11.267  0.00  0.00    -0.011 A 
HETATM   11  C   UNK N   1      23.662  12.165   9.800  0.00  0.00     0.110 A 
HETATM   12  C   UNK N   1      21.761  12.202  11.628  0.00  0.00     0.118 A 
HETATM   13  C   UNK N   1      22.219  12.303   9.834  0.00  0.00    -0.030 A 
HETATM   14  C   UNK N   1      23.434  11.958  12.619  0.00  0.00     0.143 A 
HETATM   15  C   UNK N   1      21.470  12.348  10.177  0.00  0.00     0.155 A 
HETATM   16  C   UNK N   1      24.050  11.942  12.071  0.00  0.00     0.002 A 
HETATM   17  C   UNK N   1      23.634  12.234   8.987  0.00  0.00     0.102 A 
HETATM   18  C   UNK N   1      22.222  12.369   9.020  0.00  0.00     0.012 A 
HETATM   19  C   UNK N   1      22.921  12.335   8.600  0.00  0.00     0.040 A 
HETATM   20  C   UNK N   1      20.462  12.368  11.143  0.00  0.00     0.143 A 
HETATM   21  C   UNK N   1      24.311  12.270   7.729  0.00  0.00     0.210 A 
HETATM   22  H   UNK N   1      24.511  11.762  13.726  0.00  0.00     0.210 HD
ENDROOT
TORSDOF 4
ENDMDL
MODEL 5
REMARK VINA RESULT:      -9.4      1.404      3.419
REMARK  4 active torsions:
REMARK  status: ('A' for Active; 'I' for Inactive)
REMARK    1  A    between atoms: C_7  and  C_11 
REMARK    2  A    between atoms: C_13  and  C_15 
REMARK    3  A    between atoms: C_14  and  C_16 
REMARK    4  A    between atoms: C_18  and  C_19 
ROOT
HETATM    1  O   UNK N   1      21.038  12.866  10.799  0.00  0.00    -0.341 OA
HETATM    2  O   UNK N   1      22.538  11.177  12.996  0.00  0.00    -0.392 OA
HETATM    3  O   UNK N   1      20.462  13.865   9.408  0.00  0.00    -0.353 OA
HETATM    4  N   UNK N   1      24.058  12.619  10.310  0.00  0.00    -0.413 N 
HETATM    5  C   UNK N   1      22.317  12.537  10.940  0.00  0.00     0.036 A 
HETATM    6  C   UNK N   1      23.057  12.253  11.170  0.00  0.00     0.148 A 
HETATM    7  C   UNK N   1      22.244  12.991  10.255  0.00  0.00     0.001 A 
HETATM    8  C   UNK N   1      22.998  12.203  11.265  0.00  0.00     0.040 A 
HETATM    9  C   UNK N   1      23.130  11.799  11.855  0.00  0.00     0.069 A 
HETATM   10  C   UNK N   1      21.651  12.368  11.397  0.00  0.00    -0.011 A 
HETATM   11  C   UNK N   1      21.452  13.192  10.170  0.00  0.00     0.110 A 
HETATM   12  C   UNK N   1      23.773  12.239  10.985  0.00  0.00     0.118 A 
HETATM   13  C   UNK N   1      22.832  13.222   9.725  0.00  0.00    -0.030 A 
HETATM   14  C   UNK N   1      22.464  11.631  12.310  0.00  0.00     0.143 A 
HETATM   15  C   UNK N   1      23.640  13.056   9.749  0.00  0.00     0.155 A 
HETATM   16  C   UNK N   1      21.724  11.915  12.082  0.00  0.00     0.002 A 
HETATM   17  C   UNK N   1      21.250  13.645   9.523  0.00  0.00     0.102 A 
HETATM   18  C   UNK N   1      22.600  13.675   9.086  0.00  0.00     0.012 A 
HETATM   19  C   UNK N   1      21.817  13.885   8.986  0.00  0.00     0.040 A 
HETATM   20  C   UNK N   1      24.870  12.552  10.179  0.00  0.00     0.143 A 
HETATM   21  C   UNK N   1      20.252  14.323   8.755  0.00  0.00     0.210 A 
HETATM   22  H   UNK N   1      21.754  10.978  13.533  0.00  0.00     0.210 HD
ENDROOT
TORSDOF 4
ENDMDL
MODEL 6
REMARK VINA RESULT:      -9.1     10.652     12.535
REMARK  4 active torsions:
REMARK  status: ('A' for Active; 'I' for Inactive)
REMARK    1  A    between atoms: C_7  and  C_11 
REMARK    2  A    between atoms: C_13  and  C_15 
REMARK    3  A    between atoms: C_14  and  C_16 
REMARK    4  A    between atoms: C_18  and  C_19 
ROOT
HETATM    1  O   UNK N   1      33.992  17.837   5.931  0.00  0.00    -0.341 OA
HETATM    2  O   UNK N   1      32.443  17.027   3.309  0.00  0.00    -0.392 OA
HETATM    3  O   UNK N   1      34.611  18.230   7.582  0.00  0.00    -0.353 OA
HETATM    4  N   UNK N   1      31.097  16.949   6.438  0.00  0.00    -0.413 N 
HETATM    5  C   UNK N   1      32.750  17.408   5.735  0.00  0.00     0.036 A 
HETATM    6  C   UNK N   1      32.025  17.138   5.448  0.00  0.00     0.148 A 
HETATM    7  C   UNK N   1      32.852  17.535   6.544  0.00  0.00     0.001 A 
HETATM    8  C   UNK N   1      32.078  17.142   5.338  0.00  0.00     0.040 A 
HETATM    9  C   UNK N   1      31.923  17.011   4.639  0.00  0.00     0.069 A 
HETATM   10  C   UNK N   1      33.372  17.551   5.213  0.00  0.00    -0.011 A 
HETATM   11  C   UNK N   1      33.620  17.800   6.662  0.00  0.00     0.110 A 
HETATM   12  C   UNK N   1      31.342  16.938   5.650  0.00  0.00     0.118 A 
HETATM   13  C   UNK N   1      32.308  17.427   7.154  0.00  0.00    -0.030 A 
HETATM   14  C   UNK N   1      32.545  17.154   4.118  0.00  0.00     0.143 A 
HETATM   15  C   UNK N   1      31.527  17.167   7.107  0.00  0.00     0.155 A 
HETATM   16  C   UNK N   1      33.270  17.424   4.404  0.00  0.00     0.002 A 
HETATM   17  C   UNK N   1      33.845  17.962   7.429  0.00  0.00     0.102 A 
HETATM   18  C   UNK N   1      32.562  17.598   7.912  0.00  0.00     0.012 A 
HETATM   19  C   UNK N   1      33.322  17.862   8.049  0.00  0.00     0.040 A 
HETATM   20  C   UNK N   1      30.320  16.710   6.574  0.00  0.00     0.143 A 
HETATM   21  C   UNK N   1      34.844  18.396   8.356  0.00  0.00     0.210 A 
HETATM   22  H   UNK N   1      33.175  17.196   2.695  0.00  0.00     0.210 HD
ENDROOT
TORSDOF 4
ENDMDL
MODEL 7
REMARK VINA RESULT:      -9.1      1.555      2.422
REMARK  4 active torsions:
REMARK  status: ('A' for Active; 'I' for Inactive)
REMARK    1  A    between atoms: C_7  and  C_11 
REMARK    2  A    between atoms: C_13  and  C_15 
REMARK    3  A    between atoms: C_14  and  C_16 
REMARK    4  A    between atoms: C_18  and  C_19 
ROOT
HETATM    1  O   UNK N   1      21.713  12.544  11.304  0.00  0.00    -0.341 OA
HETATM    2  O   UNK N   1      20.306  13.667   8.718  0.00  0.00    -0.392 OA
HETATM    3  O   UNK N   1      22.781  11.903  12.613  0.00  0.00    -0.353 OA
HETATM    4  N   UNK N   1      23.625  12.929   8.934  0.00  0.00    -0.413 N 
HETATM    5  C   UNK N   1      22.186  12.840  10.099  0.00  0.00     0.036 A 
HETATM    6  C   UNK N   1      22.317  13.067   9.317  0.00  0.00     0.148 A 
HETATM    7  C   UNK N   1      22.813  12.564  10.559  0.00  0.00     0.001 A 
HETATM    8  C   UNK N   1      22.197  13.093   9.314  0.00  0.00     0.040 A 
HETATM    9  C   UNK N   1      21.690  13.343   8.857  0.00  0.00     0.069 A 
HETATM   10  C   UNK N   1      21.428  12.888  10.420  0.00  0.00    -0.011 A 
HETATM   11  C   UNK N   1      22.517  12.382  11.303  0.00  0.00     0.110 A 
HETATM   12  C   UNK N   1      22.837  13.132   8.795  0.00  0.00     0.118 A 
HETATM   13  C   UNK N   1      23.605  12.473  10.348  0.00  0.00    -0.030 A 
HETATM   14  C   UNK N   1      20.933  13.391   9.179  0.00  0.00     0.143 A 
HETATM   15  C   UNK N   1      23.966  12.635   9.625  0.00  0.00     0.155 A 
HETATM   16  C   UNK N   1      20.801  13.164   9.960  0.00  0.00     0.002 A 
HETATM   17  C   UNK N   1      23.046  12.096  11.855  0.00  0.00     0.102 A 
HETATM   18  C   UNK N   1      24.111  12.185  10.921  0.00  0.00     0.012 A 
HETATM   19  C   UNK N   1      23.835  11.998  11.667  0.00  0.00     0.040 A 
HETATM   20  C   UNK N   1      24.138  13.032   8.297  0.00  0.00     0.143 A 
HETATM   21  C   UNK N   1      23.312  11.614  13.174  0.00  0.00     0.210 A 
HETATM   22  H   UNK N   1      19.414  13.724   9.097  0.00  0.00     0.210 HD
ENDROOT
TORSDOF 4
ENDMDL
MODEL 8
REMARK VINA RESULT:      -9.0      8.327      9.712
REMARK  4 active torsions:
REMARK  status: ('A' for Active; 'I' for Inactive)
REMARK    1  A    between atoms: C_7  and  C_11 
REMARK    2  A    between atoms: C_13  and  C_15 
REMARK    3  A    between atoms: C_14  and  C_16 
REMARK    4  A    between atoms: C_18  and  C_19 
ROOT
HETATM    1  O   UNK N   1      30.630  18.164   9.070  0.00  0.00    -0.341 OA
HETATM    2  O   UNK N   1      27.500  18.283   9.413  0.00  0.00    -0.392 OA
HETATM    3  O   UNK N   1      32.362  17.947   8.604  0.00  0.00    -0.353 OA
HETATM    4  N   UNK N   1      29.089  16.857   6.758  0.00  0.00    -0.413 N 
HETATM    5  C   UNK N   1      29.640  17.720   8.304  0.00  0.00     0.036 A 
HETATM    6  C   UNK N   1      28.924  17.510   7.951  0.00  0.00     0.148 A 
HETATM    7  C   UNK N   1      30.353  17.533   7.934  0.00  0.00     0.001 A 
HETATM    8  C   UNK N   1      28.871  17.563   8.048  0.00  0.00     0.040 A 
HETATM    9  C   UNK N   1      28.211  17.698   8.321  0.00  0.00     0.069 A 
HETATM   10  C   UNK N   1      29.641  18.118   9.027  0.00  0.00    -0.011 A 
HETATM   11  C   UNK N   1      30.963  17.808   8.409  0.00  0.00     0.110 A 
HETATM   12  C   UNK N   1      28.626  17.179   7.361  0.00  0.00     0.118 A 
HETATM   13  C   UNK N   1      30.474  17.142   7.218  0.00  0.00    -0.030 A 
HETATM   14  C   UNK N   1      28.214  18.095   9.043  0.00  0.00     0.143 A 
HETATM   15  C   UNK N   1      29.912  16.841   6.695  0.00  0.00     0.155 A 
HETATM   16  C   UNK N   1      28.928  18.306   9.396  0.00  0.00     0.002 A 
HETATM   17  C   UNK N   1      31.725  17.682   8.148  0.00  0.00     0.102 A 
HETATM   18  C   UNK N   1      31.248  17.029   6.982  0.00  0.00     0.012 A 
HETATM   19  C   UNK N   1      31.868  17.296   7.442  0.00  0.00     0.040 A 
HETATM   20  C   UNK N   1      28.675  16.506   6.137  0.00  0.00     0.143 A 
HETATM   21  C   UNK N   1      33.135  17.821   8.344  0.00  0.00     0.210 A 
HETATM   22  H   UNK N   1      27.502  18.751  10.263  0.00  0.00     0.210 HD
ENDROOT
TORSDOF 4
ENDMDL
MODEL 9
REMARK VINA RESULT:      -8.9     14.430     15.633
REMARK  4 active torsions:
REMARK  status: ('A' for Active; 'I' for Inactive)
REMARK    1  A    between atoms: C_7  and  C_11 
REMARK    2  A    between atoms: C_13  and  C_15 
REMARK    3  A    between atoms: C_14  and  C_16 
REMARK    4  A    between atoms: C_18  and  C_19 
ROOT
HETATM    1  O   UNK N   1      35.163  13.469  17.174  0.00  0.00    -0.341 OA
HETATM    2  O   UNK N   1      35.065  13.153  20.308  0.00  0.00    -0.392 OA
HETATM    3  O   UNK N   1      35.267  13.339  15.375  0.00  0.00    -0.353 OA
HETATM    4  N   UNK N   1      35.570  10.581  18.132  0.00  0.00    -0.413 N 
HETATM    5  C   UNK N   1      35.292  12.405  17.959  0.00  0.00     0.036 A 
HETATM    6  C   UNK N   1      35.349  11.858  18.574  0.00  0.00     0.148 A 
HETATM    7  C   UNK N   1      35.368  12.156  17.177  0.00  0.00     0.001 A 
HETATM    8  C   UNK N   1      35.331  11.954  18.649  0.00  0.00     0.040 A 
HETATM    9  C   UNK N   1      35.274  12.108  19.357  0.00  0.00     0.069 A 
HETATM   10  C   UNK N   1      35.160  13.202  18.128  0.00  0.00    -0.011 A 
HETATM   11  C   UNK N   1      35.287  12.815  16.694  0.00  0.00     0.110 A 
HETATM   12  C   UNK N   1      35.454  11.142  18.726  0.00  0.00     0.118 A 
HETATM   13  C   UNK N   1      35.501  11.394  16.890  0.00  0.00    -0.030 A 
HETATM   14  C   UNK N   1      35.141  12.904  19.525  0.00  0.00     0.143 A 
HETATM   15  C   UNK N   1      35.591  10.693  17.315  0.00  0.00     0.155 A 
HETATM   16  C   UNK N   1      35.084  13.451  18.911  0.00  0.00     0.002 A 
HETATM   17  C   UNK N   1      35.344  12.696  15.889  0.00  0.00     0.102 A 
HETATM   18  C   UNK N   1      35.552  11.306  16.079  0.00  0.00     0.012 A 
HETATM   19  C   UNK N   1      35.475  11.950  15.583  0.00  0.00     0.040 A 
HETATM   20  C   UNK N   1      35.679   9.805  18.390  0.00  0.00     0.143 A 
HETATM   21  C   UNK N   1      35.323  13.225  14.560  0.00  0.00     0.210 A 
HETATM   22  H   UNK N   1      34.909  14.090  20.506  0.00  0.00     0.210 HD
ENDROOT
TORSDOF 4
ENDMDL
