MODEL 1
REMARK VINA RESULT:      -6.6      0.000      0.000
REMARK  8 active torsions:
REMARK  status: ('A' for Active; 'I' for Inactive)
REMARK    1  A    between atoms: O_1  and  C_12 
REMARK    2  A    between atoms: O_1  and  C_20 
REMARK    3  A    between atoms: N_2  and  C_19 
REMARK    4  A    between atoms: C_3  and  C_5 
REMARK    5  A    between atoms: C_3  and  C_7 
REMARK    6  A    between atoms: C_4  and  C_6 
REMARK    7  A    between atoms: C_4  and  C_8 
REMARK    8  A    between atoms: C_19  and  C_20 
ROOT
HETATM    1  C   UNK N   1      27.349  25.788  -5.355  0.00  0.00    -0.009 C 
HETATM    2  C   UNK N   1      26.631  25.218  -6.406  0.00  0.00    -0.036 C 
ENDROOT
BRANCH   1   3
HETATM    3  C   UNK N   1      28.304  24.966  -4.497  0.00  0.00    -0.024 A 
HETATM    4  C   UNK N   1      29.697  25.068  -4.668  0.00  0.00     0.015 A 
HETATM    5  C   UNK N   1      30.582  24.323  -3.880  0.00  0.00     0.037 A 
HETATM    6  C   UNK N   1      30.093  23.459  -2.901  0.00  0.00     0.068 A 
HETATM    7  C   UNK N   1      28.710  23.371  -2.694  0.00  0.00     0.037 A 
HETATM    8  C   UNK N   1      27.834  24.126  -3.472  0.00  0.00     0.015 A 
BRANCH   6   9
HETATM    9  O   UNK N   1      30.967  22.715  -2.176  0.00  0.00    -0.349 OA
BRANCH   9  10
HETATM   10  C   UNK N   1      31.837  21.801  -2.735  0.00  0.00     0.206 C 
BRANCH  10  11
HETATM   11  C   UNK N   1      31.071  20.818  -3.610  0.00  0.00     0.297 C 
BRANCH  11  12
HETATM   12  N   UNK N   1      31.835  20.524  -4.810  0.00  0.00     0.082 N 
HETATM   13  C   UNK N   1      32.945  21.459  -4.861  0.00  0.00     0.309 C 
HETATM   14  C   UNK N   1      30.979  20.820  -5.945  0.00  0.00     0.309 C 
ENDBRANCH  11  12
ENDBRANCH  10  11
ENDBRANCH   9  10
ENDBRANCH   6   9
ENDBRANCH   1   3
BRANCH   1  15
HETATM   15  C   UNK N   1      27.146  27.253  -4.966  0.00  0.00    -0.025 A 
HETATM   16  C   UNK N   1      26.350  27.636  -3.869  0.00  0.00     0.012 A 
HETATM   17  C   UNK N   1      26.181  28.981  -3.526  0.00  0.00     0.001 A 
HETATM   18  C   UNK N   1      26.812  29.974  -4.273  0.00  0.00     0.000 A 
HETATM   19  C   UNK N   1      27.604  29.624  -5.364  0.00  0.00     0.001 A 
HETATM   20  C   UNK N   1      27.767  28.278  -5.707  0.00  0.00     0.012 A 
ENDBRANCH   1  15
BRANCH   2  21
HETATM   21  C   UNK N   1      25.561  26.010  -7.125  0.00  0.00     0.036 C 
HETATM   22  C   UNK N   1      25.918  26.274  -8.577  0.00  0.00     0.010 C 
ENDBRANCH   2  21
BRANCH   2  23
HETATM   23  C   UNK N   1      26.856  23.829  -6.937  0.00  0.00    -0.029 A 
HETATM   24  C   UNK N   1      28.083  23.458  -7.517  0.00  0.00     0.012 A 
HETATM   25  C   UNK N   1      28.266  22.178  -8.048  0.00  0.00     0.001 A 
HETATM   26  C   UNK N   1      27.220  21.255  -8.020  0.00  0.00     0.000 A 
HETATM   27  C   UNK N   1      25.984  21.619  -7.484  0.00  0.00     0.001 A 
HETATM   28  C   UNK N   1      25.799  22.903  -6.965  0.00  0.00     0.012 A 
ENDBRANCH   2  23
TORSDOF 8
ENDMDL
MODEL 2
REMARK VINA RESULT:      -6.4     11.558     14.449
REMARK  8 active torsions:
REMARK  status: ('A' for Active; 'I' for Inactive)
REMARK    1  A    between atoms: O_1  and  C_12 
REMARK    2  A    between atoms: O_1  and  C_20 
REMARK    3  A    between atoms: N_2  and  C_19 
REMARK    4  A    between atoms: C_3  and  C_5 
REMARK    5  A    between atoms: C_3  and  C_7 
REMARK    6  A    between atoms: C_4  and  C_6 
REMARK    7  A    between atoms: C_4  and  C_8 
REMARK    8  A    between atoms: C_19  and  C_20 
ROOT
HETATM    1  C   UNK N   1      29.988  17.375   6.118  0.00  0.00    -0.009 C 
HETATM    2  C   UNK N   1      30.363  17.644   7.434  0.00  0.00    -0.036 C 
ENDROOT
BRANCH   1   3
HETATM    3  C   UNK N   1      30.967  16.783   5.110  0.00  0.00    -0.024 A 
HETATM    4  C   UNK N   1      31.837  17.613   4.378  0.00  0.00     0.015 A 
HETATM    5  C   UNK N   1      32.745  17.079   3.456  0.00  0.00     0.037 A 
HETATM    6  C   UNK N   1      32.806  15.701   3.247  0.00  0.00     0.068 A 
HETATM    7  C   UNK N   1      31.971  14.859   3.994  0.00  0.00     0.037 A 
HETATM    8  C   UNK N   1      31.078  15.395   4.920  0.00  0.00     0.015 A 
BRANCH   6   9
HETATM    9  O   UNK N   1      33.665  15.208   2.320  0.00  0.00    -0.349 OA
BRANCH   9  10
HETATM   10  C   UNK N   1      34.513  14.145   2.556  0.00  0.00     0.206 C 
BRANCH  10  11
HETATM   11  C   UNK N   1      34.467  13.169   1.388  0.00  0.00     0.297 C 
BRANCH  11  12
HETATM   12  N   UNK N   1      33.103  12.719   1.172  0.00  0.00     0.082 N 
HETATM   13  C   UNK N   1      32.837  11.659   2.130  0.00  0.00     0.309 C 
HETATM   14  C   UNK N   1      33.056  12.118  -0.148  0.00  0.00     0.309 C 
ENDBRANCH  11  12
ENDBRANCH  10  11
ENDBRANCH   9  10
ENDBRANCH   6   9
ENDBRANCH   1   3
BRANCH   1  15
HETATM   15  C   UNK N   1      28.595  17.741   5.606  0.00  0.00    -0.025 A 
HETATM   16  C   UNK N   1      27.486  16.888   5.770  0.00  0.00     0.012 A 
HETATM   17  C   UNK N   1      26.218  17.242   5.299  0.00  0.00     0.001 A 
HETATM   18  C   UNK N   1      26.031  18.465   4.657  0.00  0.00     0.000 A 
HETATM   19  C   UNK N   1      27.111  19.328   4.479  0.00  0.00     0.001 A 
HETATM   20  C   UNK N   1      28.378  18.967   4.947  0.00  0.00     0.012 A 
ENDBRANCH   1  15
BRANCH   2  21
HETATM   21  C   UNK N   1      29.431  18.393   8.361  0.00  0.00     0.036 C 
HETATM   22  C   UNK N   1      28.672  17.462   9.291  0.00  0.00     0.010 C 
ENDBRANCH   2  21
BRANCH   2  23
HETATM   23  C   UNK N   1      31.660  17.207   8.057  0.00  0.00    -0.029 A 
HETATM   24  C   UNK N   1      32.788  18.049   8.063  0.00  0.00     0.012 A 
HETATM   25  C   UNK N   1      34.001  17.615   8.605  0.00  0.00     0.001 A 
HETATM   26  C   UNK N   1      34.109  16.329   9.135  0.00  0.00     0.000 A 
HETATM   27  C   UNK N   1      33.012  15.467   9.100  0.00  0.00     0.001 A 
HETATM   28  C   UNK N   1      31.803  15.898   8.547  0.00  0.00     0.012 A 
ENDBRANCH   2  23
TORSDOF 8
ENDMDL
MODEL 3
REMARK VINA RESULT:      -6.3     11.477     14.607
REMARK  8 active torsions:
REMARK  status: ('A' for Active; 'I' for Inactive)
REMARK    1  A    between atoms: O_1  and  C_12 
REMARK    2  A    between atoms: O_1  and  C_20 
REMARK    3  A    between atoms: N_2  and  C_19 
REMARK    4  A    between atoms: C_3  and  C_5 
REMARK    5  A    between atoms: C_3  and  C_7 
REMARK    6  A    between atoms: C_4  and  C_6 
REMARK    7  A    between atoms: C_4  and  C_8 
REMARK    8  A    between atoms: C_19  and  C_20 
ROOT
HETATM    1  C   UNK N   1      29.869  17.458   6.009  0.00  0.00    -0.009 C 
HETATM    2  C   UNK N   1      30.210  17.672   7.344  0.00  0.00    -0.036 C 
ENDROOT
BRANCH   1   3
HETATM    3  C   UNK N   1      30.854  16.848   5.017  0.00  0.00    -0.024 A 
HETATM    4  C   UNK N   1      30.716  15.513   4.593  0.00  0.00     0.015 A 
HETATM    5  C   UNK N   1      31.610  14.947   3.677  0.00  0.00     0.037 A 
HETATM    6  C   UNK N   1      32.663  15.704   3.163  0.00  0.00     0.068 A 
HETATM    7  C   UNK N   1      32.792  17.046   3.548  0.00  0.00     0.037 A 
HETATM    8  C   UNK N   1      31.891  17.608   4.450  0.00  0.00     0.015 A 
BRANCH   6   9
HETATM    9  O   UNK N   1      33.542  15.124   2.307  0.00  0.00    -0.349 OA
BRANCH   9  10
HETATM   10  C   UNK N   1      34.041  13.848   2.477  0.00  0.00     0.206 C 
BRANCH  10  11
HETATM   11  C   UNK N   1      35.090  13.840   3.581  0.00  0.00     0.297 C 
BRANCH  11  12
HETATM   12  N   UNK N   1      34.819  12.759   4.513  0.00  0.00     0.082 N 
HETATM   13  C   UNK N   1      33.778  11.930   3.929  0.00  0.00     0.309 C 
HETATM   14  C   UNK N   1      34.261  13.358   5.712  0.00  0.00     0.309 C 
ENDBRANCH  11  12
ENDBRANCH  10  11
ENDBRANCH   9  10
ENDBRANCH   6   9
ENDBRANCH   1   3
BRANCH   1  15
HETATM   15  C   UNK N   1      28.512  17.902   5.462  0.00  0.00    -0.025 A 
HETATM   16  C   UNK N   1      28.328  19.146   4.827  0.00  0.00     0.012 A 
HETATM   17  C   UNK N   1      27.080  19.531   4.328  0.00  0.00     0.001 A 
HETATM   18  C   UNK N   1      25.987  18.676   4.451  0.00  0.00     0.000 A 
HETATM   19  C   UNK N   1      26.140  17.440   5.076  0.00  0.00     0.001 A 
HETATM   20  C   UNK N   1      27.388  17.060   5.577  0.00  0.00     0.012 A 
ENDBRANCH   1  15
BRANCH   2  21
HETATM   21  C   UNK N   1      29.283  18.438   8.262  0.00  0.00     0.036 C 
HETATM   22  C   UNK N   1      28.433  17.519   9.120  0.00  0.00     0.010 C 
ENDBRANCH   2  21
BRANCH   2  23
HETATM   23  C   UNK N   1      31.465  17.158   7.996  0.00  0.00    -0.029 A 
HETATM   24  C   UNK N   1      32.588  17.987   8.174  0.00  0.00     0.012 A 
HETATM   25  C   UNK N   1      33.763  17.485   8.740  0.00  0.00     0.001 A 
HETATM   26  C   UNK N   1      33.838  16.146   9.124  0.00  0.00     0.000 A 
HETATM   27  C   UNK N   1      32.746  15.301   8.918  0.00  0.00     0.001 A 
HETATM   28  C   UNK N   1      31.576  15.800   8.340  0.00  0.00     0.012 A 
ENDBRANCH   2  23
TORSDOF 8
ENDMDL
MODEL 4
REMARK VINA RESULT:      -6.2     18.951     23.528
REMARK  8 active torsions:
REMARK  status: ('A' for Active; 'I' for Inactive)
REMARK    1  A    between atoms: O_1  and  C_12 
REMARK    2  A    between atoms: O_1  and  C_20 
REMARK    3  A    between atoms: N_2  and  C_19 
REMARK    4  A    between atoms: C_3  and  C_5 
REMARK    5  A    between atoms: C_3  and  C_7 
REMARK    6  A    between atoms: C_4  and  C_6 
REMARK    7  A    between atoms: C_4  and  C_8 
REMARK    8  A    between atoms: C_19  and  C_20 
ROOT
HETATM    1  C   UNK N   1      36.187  12.558  14.613  0.00  0.00    -0.009 C 
HETATM    2  C   UNK N   1      36.278  11.189  14.868  0.00  0.00    -0.036 C 
ENDROOT
BRANCH   1   3
HETATM    3  C   UNK N   1      36.119  13.106  13.192  0.00  0.00    -0.024 A 
HETATM    4  C   UNK N   1      37.207  12.963  12.311  0.00  0.00     0.015 A 
HETATM    5  C   UNK N   1      37.152  13.456  11.003  0.00  0.00     0.037 A 
HETATM    6  C   UNK N   1      36.004  14.101  10.543  0.00  0.00     0.068 A 
HETATM    7  C   UNK N   1      34.898  14.220  11.396  0.00  0.00     0.037 A 
HETATM    8  C   UNK N   1      34.954  13.715  12.694  0.00  0.00     0.015 A 
BRANCH   6   9
HETATM    9  O   UNK N   1      35.986  14.608   9.284  0.00  0.00    -0.349 OA
BRANCH   9  10
HETATM   10  C   UNK N   1      34.826  14.838   8.572  0.00  0.00     0.206 C 
BRANCH  10  11
HETATM   11  C   UNK N   1      34.724  16.312   8.202  0.00  0.00     0.297 C 
BRANCH  11  12
HETATM   12  N   UNK N   1      33.579  16.911   8.865  0.00  0.00     0.082 N 
HETATM   13  C   UNK N   1      32.494  15.947   8.820  0.00  0.00     0.309 C 
HETATM   14  C   UNK N   1      33.168  18.050   8.063  0.00  0.00     0.309 C 
ENDBRANCH  11  12
ENDBRANCH  10  11
ENDBRANCH   9  10
ENDBRANCH   6   9
ENDBRANCH   1   3
BRANCH   1  15
HETATM   15  C   UNK N   1      36.234  13.575  15.753  0.00  0.00    -0.025 A 
HETATM   16  C   UNK N   1      35.384  13.490  16.873  0.00  0.00     0.012 A 
HETATM   17  C   UNK N   1      35.447  14.428  17.908  0.00  0.00     0.001 A 
HETATM   18  C   UNK N   1      36.368  15.472  17.847  0.00  0.00     0.000 A 
HETATM   19  C   UNK N   1      37.220  15.581  16.749  0.00  0.00     0.001 A 
HETATM   20  C   UNK N   1      37.151  14.644  15.715  0.00  0.00     0.012 A 
ENDBRANCH   1  15
BRANCH   2  21
HETATM   21  C   UNK N   1      36.523  10.683  16.272  0.00  0.00     0.036 C 
HETATM   22  C   UNK N   1      35.387   9.813  16.778  0.00  0.00     0.010 C 
ENDBRANCH   2  21
BRANCH   2  23
HETATM   23  C   UNK N   1      36.114  10.116  13.827  0.00  0.00    -0.029 A 
HETATM   24  C   UNK N   1      34.859   9.840  13.252  0.00  0.00     0.012 A 
HETATM   25  C   UNK N   1      34.711   8.811  12.319  0.00  0.00     0.001 A 
HETATM   26  C   UNK N   1      35.811   8.032  11.957  0.00  0.00     0.000 A 
HETATM   27  C   UNK N   1      37.054   8.266  12.547  0.00  0.00     0.001 A 
HETATM   28  C   UNK N   1      37.198   9.288  13.489  0.00  0.00     0.012 A 
ENDBRANCH   2  23
TORSDOF 8
ENDMDL
MODEL 5
REMARK VINA RESULT:      -6.2     11.331     13.839
REMARK  8 active torsions:
REMARK  status: ('A' for Active; 'I' for Inactive)
REMARK    1  A    between atoms: O_1  and  C_12 
REMARK    2  A    between atoms: O_1  and  C_20 
REMARK    3  A    between atoms: N_2  and  C_19 
REMARK    4  A    between atoms: C_3  and  C_5 
REMARK    5  A    between atoms: C_3  and  C_7 
REMARK    6  A    between atoms: C_4  and  C_6 
REMARK    7  A    between atoms: C_4  and  C_8 
REMARK    8  A    between atoms: C_19  and  C_20 
ROOT
HETATM    1  C   UNK N   1      28.759  17.481   4.949  0.00  0.00    -0.009 C 
HETATM    2  C   UNK N   1      28.084  16.381   4.420  0.00  0.00    -0.036 C 
ENDROOT
BRANCH   1   3
HETATM    3  C   UNK N   1      30.224  17.399   5.363  0.00  0.00    -0.024 A 
HETATM    4  C   UNK N   1      30.583  17.090   6.688  0.00  0.00     0.015 A 
HETATM    5  C   UNK N   1      31.925  17.004   7.076  0.00  0.00     0.037 A 
HETATM    6  C   UNK N   1      32.941  17.225   6.146  0.00  0.00     0.068 A 
HETATM    7  C   UNK N   1      32.600  17.499   4.814  0.00  0.00     0.037 A 
HETATM    8  C   UNK N   1      31.262  17.569   4.430  0.00  0.00     0.015 A 
BRANCH   6   9
HETATM    9  O   UNK N   1      34.235  17.178   6.552  0.00  0.00    -0.349 OA
BRANCH   9  10
HETATM   10  C   UNK N   1      34.636  17.426   7.849  0.00  0.00     0.206 C 
BRANCH  10  11
HETATM   11  C   UNK N   1      34.899  16.114   8.575  0.00  0.00     0.297 C 
BRANCH  11  12
HETATM   12  N   UNK N   1      34.379  16.184   9.930  0.00  0.00     0.082 N 
HETATM   13  C   UNK N   1      35.480  16.556  10.801  0.00  0.00     0.309 C 
HETATM   14  C   UNK N   1      33.978  14.840  10.303  0.00  0.00     0.309 C 
ENDBRANCH  11  12
ENDBRANCH  10  11
ENDBRANCH   9  10
ENDBRANCH   6   9
ENDBRANCH   1   3
BRANCH   1  15
HETATM   15  C   UNK N   1      28.031  18.799   5.214  0.00  0.00    -0.025 A 
HETATM   16  C   UNK N   1      27.548  19.614   4.171  0.00  0.00     0.012 A 
HETATM   17  C   UNK N   1      26.880  20.813   4.434  0.00  0.00     0.001 A 
HETATM   18  C   UNK N   1      26.675  21.222   5.750  0.00  0.00     0.000 A 
HETATM   19  C   UNK N   1      27.144  20.436   6.802  0.00  0.00     0.001 A 
HETATM   20  C   UNK N   1      27.816  19.240   6.535  0.00  0.00     0.012 A 
ENDBRANCH   1  15
BRANCH   2  21
HETATM   21  C   UNK N   1      26.591  16.436   4.185  0.00  0.00     0.036 C 
HETATM   22  C   UNK N   1      25.798  16.017   5.411  0.00  0.00     0.010 C 
ENDBRANCH   2  21
BRANCH   2  23
HETATM   23  C   UNK N   1      28.743  15.093   4.011  0.00  0.00    -0.029 A 
HETATM   24  C   UNK N   1      29.019  14.082   4.951  0.00  0.00     0.012 A 
HETATM   25  C   UNK N   1      29.672  12.908   4.567  0.00  0.00     0.001 A 
HETATM   26  C   UNK N   1      30.071  12.732   3.242  0.00  0.00     0.000 A 
HETATM   27  C   UNK N   1      29.841  13.741   2.305  0.00  0.00     0.001 A 
HETATM   28  C   UNK N   1      29.199  14.920   2.693  0.00  0.00     0.012 A 
ENDBRANCH   2  23
TORSDOF 8
ENDMDL
MODEL 6
REMARK VINA RESULT:      -6.2     11.298     13.316
REMARK  8 active torsions:
REMARK  status: ('A' for Active; 'I' for Inactive)
REMARK    1  A    between atoms: O_1  and  C_12 
REMARK    2  A    between atoms: O_1  and  C_20 
REMARK    3  A    between atoms: N_2  and  C_19 
REMARK    4  A    between atoms: C_3  and  C_5 
REMARK    5  A    between atoms: C_3  and  C_7 
REMARK    6  A    between atoms: C_4  and  C_6 
REMARK    7  A    between atoms: C_4  and  C_8 
REMARK    8  A    between atoms: C_19  and  C_20 
ROOT
HETATM    1  C   UNK N   1      28.777  17.462   5.019  0.00  0.00    -0.009 C 
HETATM    2  C   UNK N   1      28.019  16.393   4.542  0.00  0.00    -0.036 C 
ENDROOT
BRANCH   1   3
HETATM    3  C   UNK N   1      30.272  17.327   5.287  0.00  0.00    -0.024 A 
HETATM    4  C   UNK N   1      31.214  17.615   4.282  0.00  0.00     0.015 A 
HETATM    5  C   UNK N   1      32.588  17.502   4.520  0.00  0.00     0.037 A 
HETATM    6  C   UNK N   1      33.053  17.100   5.772  0.00  0.00     0.068 A 
HETATM    7  C   UNK N   1      32.130  16.843   6.795  0.00  0.00     0.037 A 
HETATM    8  C   UNK N   1      30.762  16.970   6.555  0.00  0.00     0.015 A 
BRANCH   6   9
HETATM    9  O   UNK N   1      34.388  16.957   5.970  0.00  0.00    -0.349 OA
BRANCH   9  10
HETATM   10  C   UNK N   1      34.965  15.811   6.480  0.00  0.00     0.206 C 
BRANCH  10  11
HETATM   11  C   UNK N   1      35.044  14.741   5.399  0.00  0.00     0.297 C 
BRANCH  11  12
HETATM   12  N   UNK N   1      34.400  13.523   5.859  0.00  0.00     0.082 N 
HETATM   13  C   UNK N   1      33.071  13.485   5.274  0.00  0.00     0.309 C 
HETATM   14  C   UNK N   1      34.227  13.648   7.296  0.00  0.00     0.309 C 
ENDBRANCH  11  12
ENDBRANCH  10  11
ENDBRANCH   9  10
ENDBRANCH   6   9
ENDBRANCH   1   3
BRANCH   1  15
HETATM   15  C   UNK N   1      28.122  18.797   5.371  0.00  0.00    -0.025 A 
HETATM   16  C   UNK N   1      27.706  19.714   4.385  0.00  0.00     0.012 A 
HETATM   17  C   UNK N   1      27.103  20.928   4.728  0.00  0.00     0.001 A 
HETATM   18  C   UNK N   1      26.898  21.250   6.068  0.00  0.00     0.000 A 
HETATM   19  C   UNK N   1      27.301  20.362   7.064  0.00  0.00     0.001 A 
HETATM   20  C   UNK N   1      27.907  19.151   6.718  0.00  0.00     0.012 A 
ENDBRANCH   1  15
BRANCH   2  21
HETATM   21  C   UNK N   1      26.512  16.498   4.453  0.00  0.00     0.036 C 
HETATM   22  C   UNK N   1      26.028  16.648   3.022  0.00  0.00     0.010 C 
ENDBRANCH   2  21
BRANCH   2  23
HETATM   23  C   UNK N   1      28.593  15.091   4.053  0.00  0.00    -0.029 A 
HETATM   24  C   UNK N   1      28.778  14.001   4.923  0.00  0.00     0.012 A 
HETATM   25  C   UNK N   1      29.354  12.812   4.467  0.00  0.00     0.001 A 
HETATM   26  C   UNK N   1      29.765  12.700   3.139  0.00  0.00     0.000 A 
HETATM   27  C   UNK N   1      29.625  13.785   2.273  0.00  0.00     0.001 A 
HETATM   28  C   UNK N   1      29.061  14.978   2.733  0.00  0.00     0.012 A 
ENDBRANCH   2  23
TORSDOF 8
ENDMDL
MODEL 7
REMARK VINA RESULT:      -6.1     10.385     13.612
REMARK  8 active torsions:
REMARK  status: ('A' for Active; 'I' for Inactive)
REMARK    1  A    between atoms: O_1  and  C_12 
REMARK    2  A    between atoms: O_1  and  C_20 
REMARK    3  A    between atoms: N_2  and  C_19 
REMARK    4  A    between atoms: C_3  and  C_5 
REMARK    5  A    between atoms: C_3  and  C_7 
REMARK    6  A    between atoms: C_4  and  C_6 
REMARK    7  A    between atoms: C_4  and  C_8 
REMARK    8  A    between atoms: C_19  and  C_20 
ROOT
HETATM    1  C   UNK N   1      27.767  17.987   5.737  0.00  0.00    -0.009 C 
HETATM    2  C   UNK N   1      27.188  19.254   5.665  0.00  0.00    -0.036 C 
ENDROOT
BRANCH   1   3
HETATM    3  C   UNK N   1      27.270  16.829   4.879  0.00  0.00    -0.024 A 
HETATM    4  C   UNK N   1      27.757  16.638   3.572  0.00  0.00     0.015 A 
HETATM    5  C   UNK N   1      27.313  15.574   2.779  0.00  0.00     0.037 A 
HETATM    6  C   UNK N   1      26.373  14.672   3.277  0.00  0.00     0.068 A 
HETATM    7  C   UNK N   1      25.904  14.827   4.589  0.00  0.00     0.037 A 
HETATM    8  C   UNK N   1      26.360  15.881   5.378  0.00  0.00     0.015 A 
BRANCH   6   9
HETATM    9  O   UNK N   1      25.925  13.671   2.477  0.00  0.00    -0.349 OA
BRANCH   9  10
HETATM   10  C   UNK N   1      24.591  13.465   2.189  0.00  0.00     0.206 C 
BRANCH  10  11
HETATM   11  C   UNK N   1      24.185  14.288   0.974  0.00  0.00     0.297 C 
BRANCH  11  12
HETATM   12  N   UNK N   1      22.756  14.543   1.003  0.00  0.00     0.082 N 
HETATM   13  C   UNK N   1      22.377  14.746   2.391  0.00  0.00     0.309 C 
HETATM   14  C   UNK N   1      22.096  13.330   0.557  0.00  0.00     0.309 C 
ENDBRANCH  11  12
ENDBRANCH  10  11
ENDBRANCH   9  10
ENDBRANCH   6   9
ENDBRANCH   1   3
BRANCH   1  15
HETATM   15  C   UNK N   1      28.878  17.685   6.743  0.00  0.00    -0.025 A 
HETATM   16  C   UNK N   1      28.655  17.696   8.134  0.00  0.00     0.012 A 
HETATM   17  C   UNK N   1      29.682  17.411   9.038  0.00  0.00     0.001 A 
HETATM   18  C   UNK N   1      30.958  17.103   8.569  0.00  0.00     0.000 A 
HETATM   19  C   UNK N   1      31.207  17.086   7.197  0.00  0.00     0.001 A 
HETATM   20  C   UNK N   1      30.178  17.376   6.297  0.00  0.00     0.012 A 
ENDBRANCH   1  15
BRANCH   2  21
HETATM   21  C   UNK N   1      27.578  20.334   6.649  0.00  0.00     0.036 C 
HETATM   22  C   UNK N   1      26.395  21.192   7.062  0.00  0.00     0.010 C 
ENDBRANCH   2  21
BRANCH   2  23
HETATM   23  C   UNK N   1      26.185  19.674   4.627  0.00  0.00    -0.029 A 
HETATM   24  C   UNK N   1      24.854  19.220   4.670  0.00  0.00     0.012 A 
HETATM   25  C   UNK N   1      23.942  19.582   3.675  0.00  0.00     0.001 A 
HETATM   26  C   UNK N   1      24.350  20.391   2.614  0.00  0.00     0.000 A 
HETATM   27  C   UNK N   1      25.676  20.818   2.535  0.00  0.00     0.001 A 
HETATM   28  C   UNK N   1      26.590  20.445   3.524  0.00  0.00     0.012 A 
ENDBRANCH   2  23
TORSDOF 8
ENDMDL
MODEL 8
REMARK VINA RESULT:      -6.1     25.401     29.803
REMARK  8 active torsions:
REMARK  status: ('A' for Active; 'I' for Inactive)
REMARK    1  A    between atoms: O_1  and  C_12 
REMARK    2  A    between atoms: O_1  and  C_20 
REMARK    3  A    between atoms: N_2  and  C_19 
REMARK    4  A    between atoms: C_3  and  C_5 
REMARK    5  A    between atoms: C_3  and  C_7 
REMARK    6  A    between atoms: C_4  and  C_6 
REMARK    7  A    between atoms: C_4  and  C_8 
REMARK    8  A    between atoms: C_19  and  C_20 
ROOT
HETATM    1  C   UNK N   1      36.335   9.939  20.809  0.00  0.00    -0.009 C 
HETATM    2  C   UNK N   1      35.457   8.991  21.332  0.00  0.00    -0.036 C 
ENDROOT
BRANCH   1   3
HETATM    3  C   UNK N   1      35.950  10.823  19.628  0.00  0.00    -0.024 A 
HETATM    4  C   UNK N   1      35.475  12.132  19.832  0.00  0.00     0.015 A 
HETATM    5  C   UNK N   1      35.126  12.954  18.754  0.00  0.00     0.037 A 
HETATM    6  C   UNK N   1      35.246  12.487  17.446  0.00  0.00     0.068 A 
HETATM    7  C   UNK N   1      35.751  11.198  17.224  0.00  0.00     0.037 A 
HETATM    8  C   UNK N   1      36.110  10.389  18.301  0.00  0.00     0.015 A 
BRANCH   6   9
HETATM    9  O   UNK N   1      34.864  13.285  16.417  0.00  0.00    -0.349 OA
BRANCH   9  10
HETATM   10  C   UNK N   1      35.007  12.937  15.089  0.00  0.00     0.206 C 
BRANCH  10  11
HETATM   11  C   UNK N   1      36.146  13.730  14.461  0.00  0.00     0.297 C 
BRANCH  11  12
HETATM   12  N   UNK N   1      36.505  13.150  13.178  0.00  0.00     0.082 N 
HETATM   13  C   UNK N   1      35.271  12.770  12.512  0.00  0.00     0.309 C 
HETATM   14  C   UNK N   1      37.234  11.925  13.452  0.00  0.00     0.309 C 
ENDBRANCH  11  12
ENDBRANCH  10  11
ENDBRANCH   9  10
ENDBRANCH   6   9
ENDBRANCH   1   3
BRANCH   1  15
HETATM   15  C   UNK N   1      37.759  10.076  21.349  0.00  0.00    -0.025 A 
HETATM   16  C   UNK N   1      38.832   9.317  20.841  0.00  0.00     0.012 A 
HETATM   17  C   UNK N   1      40.128   9.461  21.345  0.00  0.00     0.001 A 
HETATM   18  C   UNK N   1      40.381  10.375  22.366  0.00  0.00     0.000 A 
HETATM   19  C   UNK N   1      39.338  11.138  22.888  0.00  0.00     0.001 A 
HETATM   20  C   UNK N   1      38.042  10.988  22.385  0.00  0.00     0.012 A 
ENDBRANCH   1  15
BRANCH   2  21
HETATM   21  C   UNK N   1      35.923   8.008  22.383  0.00  0.00     0.036 C 
HETATM   22  C   UNK N   1      35.611   8.478  23.792  0.00  0.00     0.010 C 
ENDBRANCH   2  21
BRANCH   2  23
HETATM   23  C   UNK N   1      34.007   8.871  20.952  0.00  0.00    -0.029 A 
HETATM   24  C   UNK N   1      33.025   9.685  21.547  0.00  0.00     0.012 A 
HETATM   25  C   UNK N   1      31.675   9.534  21.218  0.00  0.00     0.001 A 
HETATM   26  C   UNK N   1      31.285   8.558  20.301  0.00  0.00     0.000 A 
HETATM   27  C   UNK N   1      32.241   7.716  19.732  0.00  0.00     0.001 A 
HETATM   28  C   UNK N   1      33.589   7.859  20.070  0.00  0.00     0.012 A 
ENDBRANCH   2  23
TORSDOF 8
ENDMDL
MODEL 9
REMARK VINA RESULT:      -6.0     23.293     27.721
REMARK  8 active torsions:
REMARK  status: ('A' for Active; 'I' for Inactive)
REMARK    1  A    between atoms: O_1  and  C_12 
REMARK    2  A    between atoms: O_1  and  C_20 
REMARK    3  A    between atoms: N_2  and  C_19 
REMARK    4  A    between atoms: C_3  and  C_5 
REMARK    5  A    between atoms: C_3  and  C_7 
REMARK    6  A    between atoms: C_4  and  C_6 
REMARK    7  A    between atoms: C_4  and  C_8 
REMARK    8  A    between atoms: C_19  and  C_20 
ROOT
HETATM    1  C   UNK N   1      34.860   9.175  18.148  0.00  0.00    -0.009 C 
HETATM    2  C   UNK N   1      35.671   8.054  17.971  0.00  0.00    -0.036 C 
ENDROOT
BRANCH   1   3
HETATM    3  C   UNK N   1      34.864  10.332  17.155  0.00  0.00    -0.024 A 
HETATM    4  C   UNK N   1      34.277  10.193  15.883  0.00  0.00     0.015 A 
HETATM    5  C   UNK N   1      34.268  11.251  14.967  0.00  0.00     0.037 A 
HETATM    6  C   UNK N   1      34.846  12.475  15.303  0.00  0.00     0.068 A 
HETATM    7  C   UNK N   1      35.403  12.642  16.578  0.00  0.00     0.037 A 
HETATM    8  C   UNK N   1      35.397  11.589  17.491  0.00  0.00     0.015 A 
BRANCH   6   9
HETATM    9  O   UNK N   1      34.863  13.476  14.386  0.00  0.00    -0.349 OA
BRANCH   9  10
HETATM   10  C   UNK N   1      36.023  14.018  13.872  0.00  0.00     0.206 C 
BRANCH  10  11
HETATM   11  C   UNK N   1      35.964  14.032  12.350  0.00  0.00     0.297 C 
BRANCH  11  12
HETATM   12  N   UNK N   1      37.124  13.349  11.803  0.00  0.00     0.082 N 
HETATM   13  C   UNK N   1      37.181  13.654  10.384  0.00  0.00     0.309 C 
HETATM   14  C   UNK N   1      36.876  11.924  11.921  0.00  0.00     0.309 C 
ENDBRANCH  11  12
ENDBRANCH  10  11
ENDBRANCH   9  10
ENDBRANCH   6   9
ENDBRANCH   1   3
BRANCH   1  15
HETATM   15  C   UNK N   1      33.989   9.328  19.394  0.00  0.00    -0.025 A 
HETATM   16  C   UNK N   1      34.389  10.101  20.502  0.00  0.00     0.012 A 
HETATM   17  C   UNK N   1      33.576  10.233  21.631  0.00  0.00     0.001 A 
HETATM   18  C   UNK N   1      32.337   9.596  21.674  0.00  0.00     0.000 A 
HETATM   19  C   UNK N   1      31.915   8.824  20.593  0.00  0.00     0.001 A 
HETATM   20  C   UNK N   1      32.734   8.691  19.468  0.00  0.00     0.012 A 
ENDBRANCH   1  15
BRANCH   2  21
HETATM   21  C   UNK N   1      35.782   7.006  19.056  0.00  0.00     0.036 C 
HETATM   22  C   UNK N   1      36.951   7.264  19.989  0.00  0.00     0.010 C 
ENDBRANCH   2  21
BRANCH   2  23
HETATM   23  C   UNK N   1      36.460   7.761  16.724  0.00  0.00    -0.029 A 
HETATM   24  C   UNK N   1      35.975   6.877  15.743  0.00  0.00     0.012 A 
HETATM   25  C   UNK N   1      36.737   6.578  14.611  0.00  0.00     0.001 A 
HETATM   26  C   UNK N   1      38.001   7.147  14.449  0.00  0.00     0.000 A 
HETATM   27  C   UNK N   1      38.513   7.995  15.432  0.00  0.00     0.001 A 
HETATM   28  C   UNK N   1      37.756   8.284  16.569  0.00  0.00     0.012 A 
ENDBRANCH   2  23
TORSDOF 8
ENDMDL
