MODEL 1
REMARK VINA RESULT:      -5.8      0.000      0.000
REMARK  4 active torsions:
REMARK  status: ('A' for Active; 'I' for Inactive)
REMARK    1  A    between atoms: O_1  and  C_4 
REMARK    2  A    between atoms: O_1  and  C_8 
REMARK    3  A    between atoms: C_3  and  C_4 
REMARK    4  A    between atoms: C_5  and  C_8 
ROOT
HETATM    1  O   UNK N   1      25.200  25.051  -6.527  0.00  0.00    -0.313 OA
ENDROOT
BRANCH   1   2
HETATM    2  C   UNK N   1      25.907  26.071  -7.125  0.00  0.00     0.217 C 
BRANCH   2   3
HETATM    3  C   UNK N   1      26.155  27.206  -6.191  0.00  0.00    -0.034 A 
HETATM    4  C   UNK N   1      27.208  28.100  -6.422  0.00  0.00     0.009 A 
HETATM    5  C   UNK N   1      27.470  29.124  -5.506  0.00  0.00     0.001 A 
HETATM    6  C   UNK N   1      26.685  29.251  -4.355  0.00  0.00     0.000 A 
HETATM    7  C   UNK N   1      25.637  28.356  -4.121  0.00  0.00     0.001 A 
HETATM    8  C   UNK N   1      25.374  27.333  -5.038  0.00  0.00     0.009 A 
ENDBRANCH   2   3
ENDBRANCH   1   2
BRANCH   1   9
HETATM    9  C   UNK N   1      25.753  23.871  -6.128  0.00  0.00     0.293 C 
HETATM   10  O   UNK N   1      25.228  22.834  -6.498  0.00  0.00    -0.259 OA
BRANCH   9  11
HETATM   11  C   UNK N   1      26.976  23.792  -5.275  0.00  0.00     0.039 A 
HETATM   12  C   UNK N   1      26.957  24.170  -3.924  0.00  0.00     0.017 A 
HETATM   13  C   UNK N   1      28.108  24.064  -3.138  0.00  0.00     0.001 A 
HETATM   14  C   UNK N   1      29.295  23.588  -3.699  0.00  0.00     0.000 A 
HETATM   15  C   UNK N   1      29.328  23.209  -5.042  0.00  0.00     0.001 A 
HETATM   16  C   UNK N   1      28.173  23.300  -5.824  0.00  0.00     0.017 A 
ENDBRANCH   9  11
ENDBRANCH   1   9
TORSDOF 4
ENDMDL
MODEL 2
REMARK VINA RESULT:      -5.7     12.430     15.349
REMARK  4 active torsions:
REMARK  status: ('A' for Active; 'I' for Inactive)
REMARK    1  A    between atoms: O_1  and  C_4 
REMARK    2  A    between atoms: O_1  and  C_8 
REMARK    3  A    between atoms: C_3  and  C_4 
REMARK    4  A    between atoms: C_5  and  C_8 
ROOT
HETATM    1  O   UNK N   1      29.810  18.669   8.691  0.00  0.00    -0.313 OA
ENDROOT
BRANCH   1   2
HETATM    2  C   UNK N   1      30.587  17.545   8.864  0.00  0.00     0.217 C 
BRANCH   2   3
HETATM    3  C   UNK N   1      31.697  17.471   7.871  0.00  0.00    -0.034 A 
HETATM    4  C   UNK N   1      32.984  17.905   8.210  0.00  0.00     0.009 A 
HETATM    5  C   UNK N   1      34.003  17.889   7.251  0.00  0.00     0.001 A 
HETATM    6  C   UNK N   1      33.733  17.447   5.952  0.00  0.00     0.000 A 
HETATM    7  C   UNK N   1      32.447  17.018   5.611  0.00  0.00     0.001 A 
HETATM    8  C   UNK N   1      31.429  17.033   6.570  0.00  0.00     0.009 A 
ENDBRANCH   2   3
ENDBRANCH   1   2
BRANCH   1   9
HETATM    9  C   UNK N   1      28.512  18.641   8.276  0.00  0.00     0.293 C 
HETATM   10  O   UNK N   1      27.680  18.142   9.016  0.00  0.00    -0.259 OA
BRANCH   9  11
HETATM   11  C   UNK N   1      28.062  19.204   6.968  0.00  0.00     0.039 A 
HETATM   12  C   UNK N   1      28.289  18.530   5.759  0.00  0.00     0.017 A 
HETATM   13  C   UNK N   1      27.838  19.065   4.549  0.00  0.00     0.001 A 
HETATM   14  C   UNK N   1      27.162  20.286   4.535  0.00  0.00     0.000 A 
HETATM   15  C   UNK N   1      26.929  20.968   5.731  0.00  0.00     0.001 A 
HETATM   16  C   UNK N   1      27.367  20.426   6.943  0.00  0.00     0.017 A 
ENDBRANCH   9  11
ENDBRANCH   1   9
TORSDOF 4
ENDMDL
MODEL 3
REMARK VINA RESULT:      -5.7     14.188     15.846
REMARK  4 active torsions:
REMARK  status: ('A' for Active; 'I' for Inactive)
REMARK    1  A    between atoms: O_1  and  C_4 
REMARK    2  A    between atoms: O_1  and  C_8 
REMARK    3  A    between atoms: C_3  and  C_4 
REMARK    4  A    between atoms: C_5  and  C_8 
ROOT
HETATM    1  O   UNK N   1      33.092  16.993   8.043  0.00  0.00    -0.313 OA
ENDROOT
BRANCH   1   2
HETATM    2  C   UNK N   1      31.923  16.269   7.957  0.00  0.00     0.217 C 
BRANCH   2   3
HETATM    3  C   UNK N   1      30.718  17.147   7.936  0.00  0.00    -0.034 A 
HETATM    4  C   UNK N   1      30.360  17.888   9.069  0.00  0.00     0.009 A 
HETATM    5  C   UNK N   1      29.194  18.661   9.059  0.00  0.00     0.001 A 
HETATM    6  C   UNK N   1      28.381  18.686   7.921  0.00  0.00     0.000 A 
HETATM    7  C   UNK N   1      28.736  17.943   6.791  0.00  0.00     0.001 A 
HETATM    8  C   UNK N   1      29.902  17.172   6.801  0.00  0.00     0.009 A 
ENDBRANCH   2   3
ENDBRANCH   1   2
BRANCH   1   9
HETATM    9  C   UNK N   1      33.789  17.445   6.963  0.00  0.00     0.293 C 
HETATM   10  O   UNK N   1      34.614  18.327   7.138  0.00  0.00    -0.259 OA
BRANCH   9  11
HETATM   11  C   UNK N   1      33.599  16.902   5.585  0.00  0.00     0.039 A 
HETATM   12  C   UNK N   1      34.131  15.662   5.202  0.00  0.00     0.017 A 
HETATM   13  C   UNK N   1      33.920  15.163   3.914  0.00  0.00     0.001 A 
HETATM   14  C   UNK N   1      33.181  15.905   2.991  0.00  0.00     0.000 A 
HETATM   15  C   UNK N   1      32.645  17.141   3.358  0.00  0.00     0.001 A 
HETATM   16  C   UNK N   1      32.844  17.633   4.651  0.00  0.00     0.017 A 
ENDBRANCH   9  11
ENDBRANCH   1   9
TORSDOF 4
ENDMDL
MODEL 4
REMARK VINA RESULT:      -5.7      2.885      4.373
REMARK  4 active torsions:
REMARK  status: ('A' for Active; 'I' for Inactive)
REMARK    1  A    between atoms: O_1  and  C_4 
REMARK    2  A    between atoms: O_1  and  C_8 
REMARK    3  A    between atoms: C_3  and  C_4 
REMARK    4  A    between atoms: C_5  and  C_8 
ROOT
HETATM    1  O   UNK N   1      28.913  24.069  -2.958  0.00  0.00    -0.313 OA
ENDROOT
BRANCH   1   2
HETATM    2  C   UNK N   1      27.558  23.899  -2.783  0.00  0.00     0.217 C 
BRANCH   2   3
HETATM    3  C   UNK N   1      26.761  24.695  -3.760  0.00  0.00    -0.034 A 
HETATM    4  C   UNK N   1      26.309  24.112  -4.950  0.00  0.00     0.009 A 
HETATM    5  C   UNK N   1      25.615  24.885  -5.888  0.00  0.00     0.001 A 
HETATM    6  C   UNK N   1      25.382  26.242  -5.641  0.00  0.00     0.000 A 
HETATM    7  C   UNK N   1      25.838  26.825  -4.455  0.00  0.00     0.001 A 
HETATM    8  C   UNK N   1      26.529  26.052  -3.517  0.00  0.00     0.009 A 
ENDBRANCH   2   3
ENDBRANCH   1   2
BRANCH   1   9
HETATM    9  C   UNK N   1      29.836  23.086  -2.764  0.00  0.00     0.293 C 
HETATM   10  O   UNK N   1      30.359  22.995  -1.665  0.00  0.00    -0.259 OA
BRANCH   9  11
HETATM   11  C   UNK N   1      30.223  22.110  -3.826  0.00  0.00     0.039 A 
HETATM   12  C   UNK N   1      29.713  22.200  -5.129  0.00  0.00     0.017 A 
HETATM   13  C   UNK N   1      30.108  21.290  -6.114  0.00  0.00     0.001 A 
HETATM   14  C   UNK N   1      31.013  20.273  -5.801  0.00  0.00     0.000 A 
HETATM   15  C   UNK N   1      31.529  20.172  -4.508  0.00  0.00     0.001 A 
HETATM   16  C   UNK N   1      31.145  21.091  -3.528  0.00  0.00     0.017 A 
ENDBRANCH   9  11
ENDBRANCH   1   9
TORSDOF 4
ENDMDL
MODEL 5
REMARK VINA RESULT:      -5.7      1.573      2.105
REMARK  4 active torsions:
REMARK  status: ('A' for Active; 'I' for Inactive)
REMARK    1  A    between atoms: O_1  and  C_4 
REMARK    2  A    between atoms: O_1  and  C_8 
REMARK    3  A    between atoms: C_3  and  C_4 
REMARK    4  A    between atoms: C_5  and  C_8 
ROOT
HETATM    1  O   UNK N   1      26.233  24.780  -5.296  0.00  0.00    -0.313 OA
ENDROOT
BRANCH   1   2
HETATM    2  C   UNK N   1      25.305  25.786  -5.455  0.00  0.00     0.217 C 
BRANCH   2   3
HETATM    3  C   UNK N   1      25.913  27.139  -5.305  0.00  0.00    -0.034 A 
HETATM    4  C   UNK N   1      26.832  27.614  -6.248  0.00  0.00     0.009 A 
HETATM    5  C   UNK N   1      27.443  28.860  -6.065  0.00  0.00     0.001 A 
HETATM    6  C   UNK N   1      27.142  29.626  -4.934  0.00  0.00     0.000 A 
HETATM    7  C   UNK N   1      26.228  29.151  -3.990  0.00  0.00     0.001 A 
HETATM    8  C   UNK N   1      25.616  27.907  -4.174  0.00  0.00     0.009 A 
ENDBRANCH   2   3
ENDBRANCH   1   2
BRANCH   1   9
HETATM    9  C   UNK N   1      26.854  24.496  -4.117  0.00  0.00     0.293 C 
HETATM   10  O   UNK N   1      26.166  24.132  -3.177  0.00  0.00    -0.259 OA
BRANCH   9  11
HETATM   11  C   UNK N   1      28.332  24.595  -3.929  0.00  0.00     0.039 A 
HETATM   12  C   UNK N   1      29.127  23.457  -3.729  0.00  0.00     0.017 A 
HETATM   13  C   UNK N   1      30.512  23.573  -3.580  0.00  0.00     0.001 A 
HETATM   14  C   UNK N   1      31.116  24.831  -3.621  0.00  0.00     0.000 A 
HETATM   15  C   UNK N   1      30.336  25.972  -3.820  0.00  0.00     0.001 A 
HETATM   16  C   UNK N   1      28.953  25.855  -3.983  0.00  0.00     0.017 A 
ENDBRANCH   9  11
ENDBRANCH   1   9
TORSDOF 4
ENDMDL
MODEL 6
REMARK VINA RESULT:      -5.6      2.330      6.041
REMARK  4 active torsions:
REMARK  status: ('A' for Active; 'I' for Inactive)
REMARK    1  A    between atoms: O_1  and  C_4 
REMARK    2  A    between atoms: O_1  and  C_8 
REMARK    3  A    between atoms: C_3  and  C_4 
REMARK    4  A    between atoms: C_5  and  C_8 
ROOT
HETATM    1  O   UNK N   1      28.636  24.459  -3.477  0.00  0.00    -0.313 OA
ENDROOT
BRANCH   1   2
HETATM    2  C   UNK N   1      29.274  24.176  -4.665  0.00  0.00     0.217 C 
BRANCH   2   3
HETATM    3  C   UNK N   1      29.842  22.797  -4.682  0.00  0.00    -0.034 A 
HETATM    4  C   UNK N   1      30.525  22.296  -3.566  0.00  0.00     0.009 A 
HETATM    5  C   UNK N   1      31.107  21.025  -3.616  0.00  0.00     0.001 A 
HETATM    6  C   UNK N   1      31.016  20.258  -4.782  0.00  0.00     0.000 A 
HETATM    7  C   UNK N   1      30.338  20.760  -5.897  0.00  0.00     0.001 A 
HETATM    8  C   UNK N   1      29.754  22.030  -5.847  0.00  0.00     0.009 A 
ENDBRANCH   2   3
ENDBRANCH   1   2
BRANCH   1   9
HETATM    9  C   UNK N   1      27.283  24.534  -3.337  0.00  0.00     0.293 C 
HETATM   10  O   UNK N   1      26.725  23.685  -2.662  0.00  0.00    -0.259 OA
BRANCH   9  11
HETATM   11  C   UNK N   1      26.458  25.612  -3.959  0.00  0.00     0.039 A 
HETATM   12  C   UNK N   1      26.357  26.887  -3.383  0.00  0.00     0.017 A 
HETATM   13  C   UNK N   1      25.598  27.888  -3.996  0.00  0.00     0.001 A 
HETATM   14  C   UNK N   1      24.925  27.621  -5.189  0.00  0.00     0.000 A 
HETATM   15  C   UNK N   1      25.016  26.357  -5.774  0.00  0.00     0.001 A 
HETATM   16  C   UNK N   1      25.787  25.360  -5.169  0.00  0.00     0.017 A 
ENDBRANCH   9  11
ENDBRANCH   1   9
TORSDOF 4
ENDMDL
MODEL 7
REMARK VINA RESULT:      -5.5     16.482     19.549
REMARK  4 active torsions:
REMARK  status: ('A' for Active; 'I' for Inactive)
REMARK    1  A    between atoms: O_1  and  C_4 
REMARK    2  A    between atoms: O_1  and  C_8 
REMARK    3  A    between atoms: C_3  and  C_4 
REMARK    4  A    between atoms: C_5  and  C_8 
ROOT
HETATM    1  O   UNK N   1      35.349  17.040   9.111  0.00  0.00    -0.313 OA
ENDROOT
BRANCH   1   2
HETATM    2  C   UNK N   1      35.156  16.783  10.450  0.00  0.00     0.217 C 
BRANCH   2   3
HETATM    3  C   UNK N   1      35.887  15.564  10.900  0.00  0.00    -0.034 A 
HETATM    4  C   UNK N   1      36.626  14.802   9.987  0.00  0.00     0.009 A 
HETATM    5  C   UNK N   1      37.257  13.625  10.406  0.00  0.00     0.001 A 
HETATM    6  C   UNK N   1      37.141  13.205  11.736  0.00  0.00     0.000 A 
HETATM    7  C   UNK N   1      36.399  13.963  12.646  0.00  0.00     0.001 A 
HETATM    8  C   UNK N   1      35.770  15.140  12.227  0.00  0.00     0.009 A 
ENDBRANCH   2   3
ENDBRANCH   1   2
BRANCH   1   9
HETATM    9  C   UNK N   1      34.665  17.988   8.410  0.00  0.00     0.293 C 
HETATM   10  O   UNK N   1      35.086  19.133   8.427  0.00  0.00    -0.259 OA
BRANCH   9  11
HETATM   11  C   UNK N   1      33.438  17.686   7.616  0.00  0.00     0.039 A 
HETATM   12  C   UNK N   1      32.174  17.595   8.218  0.00  0.00     0.017 A 
HETATM   13  C   UNK N   1      31.035  17.335   7.451  0.00  0.00     0.001 A 
HETATM   14  C   UNK N   1      31.150  17.155   6.071  0.00  0.00     0.000 A 
HETATM   15  C   UNK N   1      32.401  17.243   5.458  0.00  0.00     0.001 A 
HETATM   16  C   UNK N   1      33.538  17.517   6.223  0.00  0.00     0.017 A 
ENDBRANCH   9  11
ENDBRANCH   1   9
TORSDOF 4
ENDMDL
MODEL 8
REMARK VINA RESULT:      -5.5     12.268     14.606
REMARK  4 active torsions:
REMARK  status: ('A' for Active; 'I' for Inactive)
REMARK    1  A    between atoms: O_1  and  C_4 
REMARK    2  A    between atoms: O_1  and  C_8 
REMARK    3  A    between atoms: C_3  and  C_4 
REMARK    4  A    between atoms: C_5  and  C_8 
ROOT
HETATM    1  O   UNK N   1      28.829  17.701   7.961  0.00  0.00    -0.313 OA
ENDROOT
BRANCH   1   2
HETATM    2  C   UNK N   1      28.448  19.016   7.804  0.00  0.00     0.217 C 
BRANCH   2   3
HETATM    3  C   UNK N   1      27.921  19.288   6.436  0.00  0.00    -0.034 A 
HETATM    4  C   UNK N   1      28.039  18.327   5.425  0.00  0.00     0.009 A 
HETATM    5  C   UNK N   1      27.597  18.616   4.129  0.00  0.00     0.001 A 
HETATM    6  C   UNK N   1      27.047  19.870   3.842  0.00  0.00     0.000 A 
HETATM    7  C   UNK N   1      26.933  20.832   4.850  0.00  0.00     0.001 A 
HETATM    8  C   UNK N   1      27.373  20.541   6.145  0.00  0.00     0.009 A 
ENDBRANCH   2   3
ENDBRANCH   1   2
BRANCH   1   9
HETATM    9  C   UNK N   1      30.045  17.312   8.438  0.00  0.00     0.293 C 
HETATM   10  O   UNK N   1      30.101  16.854   9.568  0.00  0.00    -0.259 OA
BRANCH   9  11
HETATM   11  C   UNK N   1      31.302  17.407   7.638  0.00  0.00     0.039 A 
HETATM   12  C   UNK N   1      32.482  17.935   8.182  0.00  0.00     0.017 A 
HETATM   13  C   UNK N   1      33.654  17.992   7.422  0.00  0.00     0.001 A 
HETATM   14  C   UNK N   1      33.654  17.529   6.104  0.00  0.00     0.000 A 
HETATM   15  C   UNK N   1      32.486  17.001   5.550  0.00  0.00     0.001 A 
HETATM   16  C   UNK N   1      31.319  16.930   6.315  0.00  0.00     0.017 A 
ENDBRANCH   9  11
ENDBRANCH   1   9
TORSDOF 4
ENDMDL
MODEL 9
REMARK VINA RESULT:      -5.4     11.599     14.520
REMARK  4 active torsions:
REMARK  status: ('A' for Active; 'I' for Inactive)
REMARK    1  A    between atoms: O_1  and  C_4 
REMARK    2  A    between atoms: O_1  and  C_8 
REMARK    3  A    between atoms: C_3  and  C_4 
REMARK    4  A    between atoms: C_5  and  C_8 
ROOT
HETATM    1  O   UNK N   1      29.533  16.528   5.215  0.00  0.00    -0.313 OA
ENDROOT
BRANCH   1   2
HETATM    2  C   UNK N   1      30.883  16.371   4.993  0.00  0.00     0.217 C 
BRANCH   2   3
HETATM    3  C   UNK N   1      31.705  16.985   6.076  0.00  0.00    -0.034 A 
HETATM    4  C   UNK N   1      33.044  17.324   5.846  0.00  0.00     0.009 A 
HETATM    5  C   UNK N   1      33.823  17.843   6.886  0.00  0.00     0.001 A 
HETATM    6  C   UNK N   1      33.266  18.013   8.158  0.00  0.00     0.000 A 
HETATM    7  C   UNK N   1      31.931  17.671   8.389  0.00  0.00     0.001 A 
HETATM    8  C   UNK N   1      31.152  17.154   7.349  0.00  0.00     0.009 A 
ENDBRANCH   2   3
ENDBRANCH   1   2
BRANCH   1   9
HETATM    9  C   UNK N   1      28.737  17.376   4.505  0.00  0.00     0.293 C 
HETATM   10  O   UNK N   1      28.472  17.087   3.349  0.00  0.00    -0.259 OA
BRANCH   9  11
HETATM   11  C   UNK N   1      28.167  18.631   5.079  0.00  0.00     0.039 A 
HETATM   12  C   UNK N   1      27.627  19.636   4.262  0.00  0.00     0.017 A 
HETATM   13  C   UNK N   1      27.076  20.791   4.824  0.00  0.00     0.001 A 
HETATM   14  C   UNK N   1      27.068  20.958   6.210  0.00  0.00     0.000 A 
HETATM   15  C   UNK N   1      27.602  19.966   7.035  0.00  0.00     0.001 A 
HETATM   16  C   UNK N   1      28.139  18.804   6.474  0.00  0.00     0.017 A 
ENDBRANCH   9  11
ENDBRANCH   1   9
TORSDOF 4
ENDMDL
