REMARK  4 active torsions:
REMARK  status: ('A' for Active; 'I' for Inactive)
REMARK    1  A    between atoms: P_1  and  O_3 
REMARK    2  A    between atoms: P_1  and  O_4 
REMARK    3  A    between atoms: O_3  and  C_6 
REMARK    4  A    between atoms: O_4  and  C_7 
ROOT
HETATM    1  P   UNK N   1       3.761   0.236   0.337  0.00  0.00     0.515 P 
HETATM    2  F   UNK N   1       4.090  -1.011  -0.800  0.00  0.00    -0.133 F 
HETATM    3  O   UNK N   1       4.106  -1.014   1.198  0.00  0.00    -0.223 OA
ENDROOT
BRANCH   1   4
HETATM    4  O   UNK N   1       5.138   0.697  -0.629  0.00  0.00    -0.285 OA
BRANCH   4   5
HETATM    5  C   UNK N   1       6.247   0.674   0.222  0.00  0.00     0.126 C 
HETATM    6  C   UNK N   1       7.061   1.937   0.033  0.00  0.00     0.040 C 
HETATM    7  C   UNK N   1       7.107  -0.533  -0.101  0.00  0.00     0.040 C 
ENDBRANCH   4   5
ENDBRANCH   1   4
BRANCH   1   8
HETATM    8  O   UNK N   1       2.343  -0.095  -0.613  0.00  0.00    -0.285 OA
BRANCH   8   9
HETATM    9  C   UNK N   1       1.266  -0.003   0.270  0.00  0.00     0.126 C 
HETATM   10  C   UNK N   1       0.383  -1.226   0.118  0.00  0.00     0.040 C 
HETATM   11  C   UNK N   1       0.462   1.245  -0.034  0.00  0.00     0.040 C 
ENDBRANCH   8   9
ENDBRANCH   1   8
TORSDOF 4
