MODEL 1
REMARK VINA RESULT:      -4.4      0.000      0.000
REMARK  4 active torsions:
REMARK  status: ('A' for Active; 'I' for Inactive)
REMARK    1  A    between atoms: P_1  and  O_3 
REMARK    2  A    between atoms: P_1  and  O_4 
REMARK    3  A    between atoms: O_3  and  C_6 
REMARK    4  A    between atoms: O_4  and  C_7 
ROOT
HETATM    1  P   UNK N   1      33.980  17.524   8.133  0.00  0.00     0.515 P 
HETATM    2  F   UNK N   1      34.519  19.146   8.316  0.00  0.00    -0.133 F 
HETATM    3  O   UNK N   1      34.658  17.878   6.778  0.00  0.00    -0.223 OA
ENDROOT
BRANCH   1   4
HETATM    4  O   UNK N   1      35.150  17.592   9.425  0.00  0.00    -0.285 OA
BRANCH   4   5
HETATM    5  C   UNK N   1      34.863  16.522  10.279  0.00  0.00     0.126 C 
HETATM    6  C   UNK N   1      36.142  16.026  10.921  0.00  0.00     0.040 C 
HETATM    7  C   UNK N   1      34.229  15.397   9.483  0.00  0.00     0.040 C 
ENDBRANCH   4   5
ENDBRANCH   1   4
BRANCH   1   8
HETATM    8  O   UNK N   1      32.622  18.579   8.388  0.00  0.00    -0.285 OA
BRANCH   8   9
HETATM    9  C   UNK N   1      31.514  17.742   8.532  0.00  0.00     0.126 C 
HETATM   10  C   UNK N   1      31.173  17.122   7.191  0.00  0.00     0.040 C 
HETATM   11  C   UNK N   1      30.331  18.543   9.037  0.00  0.00     0.040 C 
ENDBRANCH   8   9
ENDBRANCH   1   8
TORSDOF 4
ENDMDL
MODEL 2
REMARK VINA RESULT:      -4.3      2.251      3.905
REMARK  4 active torsions:
REMARK  status: ('A' for Active; 'I' for Inactive)
REMARK    1  A    between atoms: P_1  and  O_3 
REMARK    2  A    between atoms: P_1  and  O_4 
REMARK    3  A    between atoms: O_3  and  C_6 
REMARK    4  A    between atoms: O_4  and  C_7 
ROOT
HETATM    1  P   UNK N   1      33.507  17.419   8.157  0.00  0.00     0.515 P 
HETATM    2  F   UNK N   1      34.109  19.028   8.218  0.00  0.00    -0.133 F 
HETATM    3  O   UNK N   1      34.388  17.471   9.439  0.00  0.00    -0.223 OA
ENDROOT
BRANCH   1   4
HETATM    4  O   UNK N   1      32.164  18.522   8.307  0.00  0.00    -0.285 OA
BRANCH   4   5
HETATM    5  C   UNK N   1      31.058  17.754   8.684  0.00  0.00     0.126 C 
HETATM    6  C   UNK N   1      30.410  17.155   7.454  0.00  0.00     0.040 C 
HETATM    7  C   UNK N   1      30.055  18.634   9.405  0.00  0.00     0.040 C 
ENDBRANCH   4   5
ENDBRANCH   1   4
BRANCH   1   8
HETATM    8  O   UNK N   1      34.498  17.739   6.765  0.00  0.00    -0.285 OA
BRANCH   8   9
HETATM    9  C   UNK N   1      34.102  16.814   5.797  0.00  0.00     0.126 C 
HETATM   10  C   UNK N   1      33.032  17.431   4.918  0.00  0.00     0.040 C 
HETATM   11  C   UNK N   1      33.553  15.574   6.472  0.00  0.00     0.040 C 
ENDBRANCH   8   9
ENDBRANCH   1   8
TORSDOF 4
ENDMDL
MODEL 3
REMARK VINA RESULT:      -4.2      2.048      4.078
REMARK  4 active torsions:
REMARK  status: ('A' for Active; 'I' for Inactive)
REMARK    1  A    between atoms: P_1  and  O_3 
REMARK    2  A    between atoms: P_1  and  O_4 
REMARK    3  A    between atoms: O_3  and  C_6 
REMARK    4  A    between atoms: O_4  and  C_7 
ROOT
HETATM    1  P   UNK N   1      33.618  17.360   8.079  0.00  0.00     0.515 P 
HETATM    2  F   UNK N   1      34.180  18.978   8.232  0.00  0.00    -0.133 F 
HETATM    3  O   UNK N   1      32.340  18.207   8.344  0.00  0.00    -0.223 OA
ENDROOT
BRANCH   1   4
HETATM    4  O   UNK N   1      34.360  17.848   6.577  0.00  0.00    -0.285 OA
BRANCH   4   5
HETATM    5  C   UNK N   1      33.943  16.929   5.610  0.00  0.00     0.126 C 
HETATM    6  C   UNK N   1      32.839  17.538   4.771  0.00  0.00     0.040 C 
HETATM    7  C   UNK N   1      33.426  15.677   6.292  0.00  0.00     0.040 C 
ENDBRANCH   4   5
ENDBRANCH   1   4
BRANCH   1   8
HETATM    8  O   UNK N   1      34.689  17.494   9.442  0.00  0.00    -0.285 OA
BRANCH   8   9
HETATM    9  C   UNK N   1      35.076  16.188   9.749  0.00  0.00     0.126 C 
HETATM   10  C   UNK N   1      33.842  15.321   9.909  0.00  0.00     0.040 C 
HETATM   11  C   UNK N   1      35.872  16.182  11.038  0.00  0.00     0.040 C 
ENDBRANCH   8   9
ENDBRANCH   1   8
TORSDOF 4
ENDMDL
MODEL 4
REMARK VINA RESULT:      -4.0      1.887      2.275
REMARK  4 active torsions:
REMARK  status: ('A' for Active; 'I' for Inactive)
REMARK    1  A    between atoms: P_1  and  O_3 
REMARK    2  A    between atoms: P_1  and  O_4 
REMARK    3  A    between atoms: O_3  and  C_6 
REMARK    4  A    between atoms: O_4  and  C_7 
ROOT
HETATM    1  P   UNK N   1      34.393  17.786   7.886  0.00  0.00     0.515 P 
HETATM    2  F   UNK N   1      33.086  18.811   8.328  0.00  0.00    -0.133 F 
HETATM    3  O   UNK N   1      35.061  19.109   8.362  0.00  0.00    -0.223 OA
ENDROOT
BRANCH   1   4
HETATM    4  O   UNK N   1      33.515  17.051   9.201  0.00  0.00    -0.285 OA
BRANCH   4   5
HETATM    5  C   UNK N   1      34.321  16.019   9.691  0.00  0.00     0.126 C 
HETATM    6  C   UNK N   1      35.291  16.572  10.714  0.00  0.00     0.040 C 
HETATM    7  C   UNK N   1      35.096  15.396   8.546  0.00  0.00     0.040 C 
ENDBRANCH   4   5
ENDBRANCH   1   4
BRANCH   1   8
HETATM    8  O   UNK N   1      33.396  18.112   6.500  0.00  0.00    -0.285 OA
BRANCH   8   9
HETATM    9  C   UNK N   1      33.280  16.897   5.823  0.00  0.00     0.126 C 
HETATM   10  C   UNK N   1      33.144  17.159   4.336  0.00  0.00     0.040 C 
HETATM   11  C   UNK N   1      32.058  16.151   6.321  0.00  0.00     0.040 C 
ENDBRANCH   8   9
ENDBRANCH   1   8
TORSDOF 4
ENDMDL
MODEL 5
REMARK VINA RESULT:      -3.9      8.133      9.003
REMARK  4 active torsions:
REMARK  status: ('A' for Active; 'I' for Inactive)
REMARK    1  A    between atoms: P_1  and  O_3 
REMARK    2  A    between atoms: P_1  and  O_4 
REMARK    3  A    between atoms: O_3  and  C_6 
REMARK    4  A    between atoms: O_4  and  C_7 
ROOT
HETATM    1  P   UNK N   1      35.796  12.138  14.928  0.00  0.00     0.515 P 
HETATM    2  F   UNK N   1      35.179  13.712  14.620  0.00  0.00    -0.133 F 
HETATM    3  O   UNK N   1      36.528  12.612  13.639  0.00  0.00    -0.223 OA
ENDROOT
BRANCH   1   4
HETATM    4  O   UNK N   1      36.204  13.179  16.267  0.00  0.00    -0.285 OA
BRANCH   4   5
HETATM    5  C   UNK N   1      35.168  13.056  17.197  0.00  0.00     0.126 C 
HETATM    6  C   UNK N   1      35.189  14.237  18.144  0.00  0.00     0.040 C 
HETATM    7  C   UNK N   1      35.348  11.773  17.987  0.00  0.00     0.040 C 
ENDBRANCH   4   5
ENDBRANCH   1   4
BRANCH   1   8
HETATM    8  O   UNK N   1      34.087  12.059  14.622  0.00  0.00    -0.285 OA
BRANCH   8   9
HETATM    9  C   UNK N   1      33.805  10.712  14.392  0.00  0.00     0.126 C 
HETATM   10  C   UNK N   1      34.825   9.852  15.113  0.00  0.00     0.040 C 
HETATM   11  C   UNK N   1      33.860  10.426  12.905  0.00  0.00     0.040 C 
ENDBRANCH   8   9
ENDBRANCH   1   8
TORSDOF 4
ENDMDL
MODEL 6
REMARK VINA RESULT:      -3.9     16.685     17.561
REMARK  4 active torsions:
REMARK  status: ('A' for Active; 'I' for Inactive)
REMARK    1  A    between atoms: P_1  and  O_3 
REMARK    2  A    between atoms: P_1  and  O_4 
REMARK    3  A    between atoms: O_3  and  C_6 
REMARK    4  A    between atoms: O_4  and  C_7 
ROOT
HETATM    1  P   UNK N   1      26.696  24.674  -4.203  0.00  0.00     0.515 P 
HETATM    2  F   UNK N   1      28.272  25.055  -3.631  0.00  0.00    -0.133 F 
HETATM    3  O   UNK N   1      26.691  24.262  -2.702  0.00  0.00    -0.223 OA
ENDROOT
BRANCH   1   4
HETATM    4  O   UNK N   1      26.953  26.393  -4.352  0.00  0.00    -0.285 OA
BRANCH   4   5
HETATM    5  C   UNK N   1      25.692  26.991  -4.289  0.00  0.00     0.126 C 
HETATM    6  C   UNK N   1      25.016  26.899  -5.641  0.00  0.00     0.040 C 
HETATM    7  C   UNK N   1      25.843  28.449  -3.900  0.00  0.00     0.040 C 
ENDBRANCH   4   5
ENDBRANCH   1   4
BRANCH   1   8
HETATM    8  O   UNK N   1      27.884  23.731  -5.054  0.00  0.00    -0.285 OA
BRANCH   8   9
HETATM    9  C   UNK N   1      27.306  23.415  -6.284  0.00  0.00     0.126 C 
HETATM   10  C   UNK N   1      27.597  24.522  -7.278  0.00  0.00     0.040 C 
HETATM   11  C   UNK N   1      25.807  23.262  -6.119  0.00  0.00     0.040 C 
ENDBRANCH   8   9
ENDBRANCH   1   8
TORSDOF 4
ENDMDL
MODEL 7
REMARK VINA RESULT:      -3.8      2.675      3.313
REMARK  4 active torsions:
REMARK  status: ('A' for Active; 'I' for Inactive)
REMARK    1  A    between atoms: P_1  and  O_3 
REMARK    2  A    between atoms: P_1  and  O_4 
REMARK    3  A    between atoms: O_3  and  C_6 
REMARK    4  A    between atoms: O_4  and  C_7 
ROOT
HETATM    1  P   UNK N   1      33.099  16.771   5.597  0.00  0.00     0.515 P 
HETATM    2  F   UNK N   1      33.292  18.027   4.438  0.00  0.00    -0.133 F 
HETATM    3  O   UNK N   1      33.715  16.076   4.349  0.00  0.00    -0.223 OA
ENDROOT
BRANCH   1   4
HETATM    4  O   UNK N   1      34.207  17.961   6.228  0.00  0.00    -0.285 OA
BRANCH   4   5
HETATM    5  C   UNK N   1      34.310  17.721   7.601  0.00  0.00     0.126 C 
HETATM    6  C   UNK N   1      34.559  16.247   7.843  0.00  0.00     0.040 C 
HETATM    7  C   UNK N   1      33.020  18.133   8.285  0.00  0.00     0.040 C 
ENDBRANCH   4   5
ENDBRANCH   1   4
BRANCH   1   8
HETATM    8  O   UNK N   1      31.550  17.439   5.176  0.00  0.00    -0.285 OA
BRANCH   8   9
HETATM    9  C   UNK N   1      30.602  16.571   5.722  0.00  0.00     0.126 C 
HETATM   10  C   UNK N   1      29.723  17.331   6.695  0.00  0.00     0.040 C 
HETATM   11  C   UNK N   1      31.304  15.441   6.447  0.00  0.00     0.040 C 
ENDBRANCH   8   9
ENDBRANCH   1   8
TORSDOF 4
ENDMDL
MODEL 8
REMARK VINA RESULT:      -3.8      5.630      6.929
REMARK  4 active torsions:
REMARK  status: ('A' for Active; 'I' for Inactive)
REMARK    1  A    between atoms: P_1  and  O_3 
REMARK    2  A    between atoms: P_1  and  O_4 
REMARK    3  A    between atoms: O_3  and  C_6 
REMARK    4  A    between atoms: O_4  and  C_7 
ROOT
HETATM    1  P   UNK N   1      35.675  13.409  13.104  0.00  0.00     0.515 P 
HETATM    2  F   UNK N   1      36.502  14.197  14.389  0.00  0.00    -0.133 F 
HETATM    3  O   UNK N   1      36.999  12.610  13.281  0.00  0.00    -0.223 OA
ENDROOT
BRANCH   1   4
HETATM    4  O   UNK N   1      34.710  13.299  14.552  0.00  0.00    -0.285 OA
BRANCH   4   5
HETATM    5  C   UNK N   1      34.955  12.036  15.098  0.00  0.00     0.126 C 
HETATM    6  C   UNK N   1      33.821  11.097  14.741  0.00  0.00     0.040 C 
HETATM    7  C   UNK N   1      35.058  12.149  16.607  0.00  0.00     0.040 C 
ENDBRANCH   4   5
ENDBRANCH   1   4
BRANCH   1   8
HETATM    8  O   UNK N   1      36.049  15.047  12.657  0.00  0.00    -0.285 OA
BRANCH   8   9
HETATM    9  C   UNK N   1      35.781  15.138  11.291  0.00  0.00     0.126 C 
HETATM   10  C   UNK N   1      35.419  16.568  10.941  0.00  0.00     0.040 C 
HETATM   11  C   UNK N   1      34.629  14.221  10.935  0.00  0.00     0.040 C 
ENDBRANCH   8   9
ENDBRANCH   1   8
TORSDOF 4
ENDMDL
MODEL 9
REMARK VINA RESULT:      -3.8     13.081     13.884
REMARK  4 active torsions:
REMARK  status: ('A' for Active; 'I' for Inactive)
REMARK    1  A    between atoms: P_1  and  O_3 
REMARK    2  A    between atoms: P_1  and  O_4 
REMARK    3  A    between atoms: O_3  and  C_6 
REMARK    4  A    between atoms: O_4  and  C_7 
ROOT
HETATM    1  P   UNK N   1      44.252  22.657   3.083  0.00  0.00     0.515 P 
HETATM    2  F   UNK N   1      43.516  23.528   4.369  0.00  0.00    -0.133 F 
HETATM    3  O   UNK N   1      44.984  22.173   4.369  0.00  0.00    -0.223 OA
ENDROOT
BRANCH   1   4
HETATM    4  O   UNK N   1      42.561  22.235   3.161  0.00  0.00    -0.285 OA
BRANCH   4   5
HETATM    5  C   UNK N   1      42.087  22.247   1.846  0.00  0.00     0.126 C 
HETATM    6  C   UNK N   1      41.280  23.506   1.607  0.00  0.00     0.040 C 
HETATM    7  C   UNK N   1      41.207  21.033   1.615  0.00  0.00     0.040 C 
ENDBRANCH   4   5
ENDBRANCH   1   4
BRANCH   1   8
HETATM    8  O   UNK N   1      44.519  24.363   2.878  0.00  0.00    -0.285 OA
BRANCH   8   9
HETATM    9  C   UNK N   1      45.336  24.485   1.753  0.00  0.00     0.126 C 
HETATM   10  C   UNK N   1      46.510  25.388   2.078  0.00  0.00     0.040 C 
HETATM   11  C   UNK N   1      44.541  25.079   0.608  0.00  0.00     0.040 C 
ENDBRANCH   8   9
ENDBRANCH   1   8
TORSDOF 4
ENDMDL
