MODEL 1
REMARK VINA RESULT:      -7.9      0.000      0.000
REMARK  9 active torsions:
REMARK  status: ('A' for Active; 'I' for Inactive)
REMARK    1  A    between atoms: O_2  and  C_20 
REMARK    2  A    between atoms: N_3  and  C_14 
REMARK    3  A    between atoms: C_12  and  C_13 
REMARK    4  A    between atoms: C_13  and  C_15 
REMARK    5  A    between atoms: C_14  and  C_17 
REMARK    6  A    between atoms: C_15  and  C_18 
REMARK    7  A    between atoms: C_16  and  C_20 
REMARK    8  A    between atoms: C_23  and  C_27 
REMARK    9  A    between atoms: C_28  and  C_32 
ROOT
HETATM    1  C   UNK N   1      35.390  15.005  11.612  0.00  0.00    -0.040 A 
HETATM    2  C   UNK N   1      34.548  14.191  10.862  0.00  0.00     0.010 A 
HETATM    3  C   UNK N   1      35.622  16.310  11.181  0.00  0.00     0.010 A 
HETATM    4  C   UNK N   1      34.187  16.005   9.250  0.00  0.00    -0.025 A 
HETATM    5  C   UNK N   1      33.956  14.681   9.690  0.00  0.00     0.013 A 
HETATM    6  C   UNK N   1      35.032  16.796  10.018  0.00  0.00     0.013 A 
ENDROOT
BRANCH   1   7
HETATM    7  C   UNK N   1      36.097  14.611  12.871  0.00  0.00     0.169 C 
BRANCH   7   8
HETATM    8  N   UNK N   1      36.625  13.280  13.224  0.00  0.00    -0.331 N 
HETATM    9  C   UNK N   1      36.422  12.823  14.481  0.00  0.00     0.085 A 
HETATM   10  N   UNK N   1      36.945  11.593  14.682  0.00  0.00    -0.335 N 
HETATM   11  C   UNK N   1      37.496  11.259  13.501  0.00  0.00     0.130 A 
ATOM     12  HN  UNK N   1      36.926  11.042  15.539  1.00  0.00     0.168 HD
HETATM   13 Cl   UNK N   1      38.322   9.739  13.210  0.00  0.00    -0.062 Cl
HETATM   14  C   UNK N   1      37.303  12.285  12.596  0.00  0.00     0.075 A 
BRANCH   9  15
HETATM   15  C   UNK N   1      35.677  13.618  15.515  0.00  0.00     0.076 C 
BRANCH  15  16
HETATM   16  C   UNK N   1      34.620  12.863  16.286  0.00  0.00     0.007 C 
BRANCH  16  17
HETATM   17  C   UNK N   1      35.062  12.853  17.736  0.00  0.00    -0.004 C 
HETATM   18  C   UNK N   1      35.352  14.259  18.207  0.00  0.00     0.005 C 
ENDBRANCH  16  17
ENDBRANCH  15  16
ENDBRANCH   9  15
BRANCH  14  19
HETATM   19  C   UNK N   1      37.762  12.234  11.178  0.00  0.00     0.224 C 
BRANCH  19  20
HETATM   20  O   UNK N   1      38.675  13.257  10.930  0.00  0.00    -0.395 OA
HETATM   21  H   UNK N   1      39.517  13.715  11.085  0.00  0.00     0.209 HD
ENDBRANCH  19  20
ENDBRANCH  14  19
ENDBRANCH   7   8
ENDBRANCH   1   7
BRANCH   4  22
HETATM   22  C   UNK N   1      33.539  16.487   7.977  0.00  0.00    -0.012 A 
HETATM   23  C   UNK N   1      32.224  17.086   7.811  0.00  0.00     0.021 A 
HETATM   24  C   UNK N   1      31.837  17.474   6.514  0.00  0.00     0.016 A 
HETATM   25  C   UNK N   1      32.657  17.301   5.407  0.00  0.00     0.001 A 
HETATM   26  C   UNK N   1      33.904  16.726   5.560  0.00  0.00     0.001 A 
HETATM   27  C   UNK N   1      34.331  16.328   6.820  0.00  0.00     0.013 A 
BRANCH  23  28
HETATM   28  C   UNK N   1      31.171  17.347   8.847  0.00  0.00     0.145 A 
HETATM   29  N   UNK N   1      30.586  16.467   9.675  0.00  0.00    -0.271 N 
HETATM   30  N   UNK N   1      29.715  17.156  10.391  0.00  0.00    -0.225 N 
ATOM     31  HN  UNK N   1      30.774  15.466   9.737  1.00  0.00     0.190 HD
HETATM   32  N   UNK N   1      29.752  18.425  10.021  0.00  0.00    -0.005 NA
HETATM   33  H   UNK N   1      29.131  16.782  11.091  0.00  0.00     0.205 HD
HETATM   34  N   UNK N   1      30.647  18.573   9.062  0.00  0.00    -0.266 N 
ATOM     35  HN  UNK N   1      30.892  19.437   8.580  1.00  0.00     0.186 HD
ENDBRANCH  23  28
ENDBRANCH   4  22
TORSDOF 9
ENDMDL
MODEL 2
REMARK VINA RESULT:      -7.8      7.303     11.490
REMARK  9 active torsions:
REMARK  status: ('A' for Active; 'I' for Inactive)
REMARK    1  A    between atoms: O_2  and  C_20 
REMARK    2  A    between atoms: N_3  and  C_14 
REMARK    3  A    between atoms: C_12  and  C_13 
REMARK    4  A    between atoms: C_13  and  C_15 
REMARK    5  A    between atoms: C_14  and  C_17 
REMARK    6  A    between atoms: C_15  and  C_18 
REMARK    7  A    between atoms: C_16  and  C_20 
REMARK    8  A    between atoms: C_23  and  C_27 
REMARK    9  A    between atoms: C_28  and  C_32 
ROOT
HETATM    1  C   UNK N   1      27.397  16.655   4.450  0.00  0.00    -0.040 A 
HETATM    2  C   UNK N   1      28.502  16.894   3.640  0.00  0.00     0.010 A 
HETATM    3  C   UNK N   1      27.573  16.606   5.832  0.00  0.00     0.010 A 
HETATM    4  C   UNK N   1      29.952  17.028   5.615  0.00  0.00    -0.025 A 
HETATM    5  C   UNK N   1      29.768  17.074   4.214  0.00  0.00     0.013 A 
HETATM    6  C   UNK N   1      28.831  16.787   6.399  0.00  0.00     0.013 A 
ENDROOT
BRANCH   1   7
HETATM    7  C   UNK N   1      25.995  16.433   3.975  0.00  0.00     0.169 C 
BRANCH   7   8
HETATM    8  N   UNK N   1      24.746  16.714   4.708  0.00  0.00    -0.331 N 
HETATM    9  C   UNK N   1      24.188  17.940   4.577  0.00  0.00     0.085 A 
HETATM   10  N   UNK N   1      23.048  18.075   5.288  0.00  0.00    -0.335 N 
HETATM   11  C   UNK N   1      22.876  16.883   5.888  0.00  0.00     0.130 A 
ATOM     12  HN  UNK N   1      22.450  18.898   5.355  1.00  0.00     0.168 HD
HETATM   13 Cl   UNK N   1      21.526  16.514   6.947  0.00  0.00    -0.062 Cl
HETATM   14  C   UNK N   1      23.911  16.038   5.537  0.00  0.00     0.075 A 
BRANCH   9  15
HETATM   15  C   UNK N   1      24.792  19.009   3.712  0.00  0.00     0.076 C 
BRANCH  15  16
HETATM   16  C   UNK N   1      25.415  20.172   4.449  0.00  0.00     0.007 C 
BRANCH  16  17
HETATM   17  C   UNK N   1      26.877  20.208   4.049  0.00  0.00    -0.004 C 
HETATM   18  C   UNK N   1      27.756  20.308   5.274  0.00  0.00     0.005 C 
ENDBRANCH  16  17
ENDBRANCH  15  16
ENDBRANCH   9  15
BRANCH  14  19
HETATM   19  C   UNK N   1      24.017  14.625   6.002  0.00  0.00     0.224 C 
BRANCH  19  20
HETATM   20  O   UNK N   1      24.568  14.579   7.282  0.00  0.00    -0.395 OA
HETATM   21  H   UNK N   1      24.817  14.111   8.095  0.00  0.00     0.209 HD
ENDBRANCH  19  20
ENDBRANCH  14  19
ENDBRANCH   7   8
ENDBRANCH   1   7
BRANCH   4  22
HETATM   22  C   UNK N   1      31.334  17.214   6.188  0.00  0.00    -0.012 A 
HETATM   23  C   UNK N   1      31.703  17.488   7.568  0.00  0.00     0.021 A 
HETATM   24  C   UNK N   1      33.074  17.610   7.870  0.00  0.00     0.016 A 
HETATM   25  C   UNK N   1      34.065  17.481   6.907  0.00  0.00     0.001 A 
HETATM   26  C   UNK N   1      33.717  17.228   5.593  0.00  0.00     0.001 A 
HETATM   27  C   UNK N   1      32.379  17.099   5.246  0.00  0.00     0.013 A 
BRANCH  23  28
HETATM   28  C   UNK N   1      30.814  17.686   8.759  0.00  0.00     0.145 A 
HETATM   29  N   UNK N   1      30.407  16.769   9.652  0.00  0.00    -0.271 N 
HETATM   30  N   UNK N   1      29.626  17.406  10.506  0.00  0.00    -0.225 N 
ATOM     31  HN  UNK N   1      30.651  15.779   9.667  1.00  0.00     0.190 HD
HETATM   32  N   UNK N   1      29.543  18.680  10.157  0.00  0.00    -0.005 NA
HETATM   33  H   UNK N   1      29.177  16.997  11.281  0.00  0.00     0.205 HD
HETATM   34  N   UNK N   1      30.270  18.881   9.074  0.00  0.00    -0.266 N 
ATOM     35  HN  UNK N   1      30.395  19.762   8.574  1.00  0.00     0.186 HD
ENDBRANCH  23  28
ENDBRANCH   4  22
TORSDOF 9
ENDMDL
MODEL 3
REMARK VINA RESULT:      -7.5      9.529     12.546
REMARK  9 active torsions:
REMARK  status: ('A' for Active; 'I' for Inactive)
REMARK    1  A    between atoms: O_2  and  C_20 
REMARK    2  A    between atoms: N_3  and  C_14 
REMARK    3  A    between atoms: C_12  and  C_13 
REMARK    4  A    between atoms: C_13  and  C_15 
REMARK    5  A    between atoms: C_14  and  C_17 
REMARK    6  A    between atoms: C_15  and  C_18 
REMARK    7  A    between atoms: C_16  and  C_20 
REMARK    8  A    between atoms: C_23  and  C_27 
REMARK    9  A    between atoms: C_28  and  C_32 
ROOT
HETATM    1  C   UNK N   1      23.771  15.006   6.518  0.00  0.00    -0.040 A 
HETATM    2  C   UNK N   1      24.778  14.464   7.310  0.00  0.00     0.010 A 
HETATM    3  C   UNK N   1      24.105  15.979   5.578  0.00  0.00     0.010 A 
HETATM    4  C   UNK N   1      26.444  15.889   6.208  0.00  0.00    -0.025 A 
HETATM    5  C   UNK N   1      26.100  14.903   7.162  0.00  0.00     0.013 A 
HETATM    6  C   UNK N   1      25.419  16.412   5.432  0.00  0.00     0.013 A 
ENDROOT
BRANCH   1   7
HETATM    7  C   UNK N   1      22.320  14.643   6.576  0.00  0.00     0.169 C 
BRANCH   7   8
HETATM    8  N   UNK N   1      21.279  15.241   7.434  0.00  0.00    -0.331 N 
HETATM    9  C   UNK N   1      20.867  14.547   8.520  0.00  0.00     0.085 A 
HETATM   10  N   UNK N   1      19.918  15.199   9.228  0.00  0.00    -0.335 N 
HETATM   11  C   UNK N   1      19.728  16.353   8.564  0.00  0.00     0.130 A 
ATOM     12  HN  UNK N   1      19.451  14.884  10.077  1.00  0.00     0.168 HD
HETATM   13 Cl   UNK N   1      18.583  17.585   9.065  0.00  0.00    -0.062 Cl
HETATM   14  C   UNK N   1      20.560  16.392   7.462  0.00  0.00     0.075 A 
BRANCH   9  15
HETATM   15  C   UNK N   1      21.436  13.204   8.879  0.00  0.00     0.076 C 
BRANCH  15  16
HETATM   16  C   UNK N   1      21.573  12.926  10.357  0.00  0.00     0.007 C 
BRANCH  16  17
HETATM   17  C   UNK N   1      22.966  12.365  10.567  0.00  0.00    -0.004 C 
HETATM   18  C   UNK N   1      23.149  11.935  12.005  0.00  0.00     0.005 C 
ENDBRANCH  16  17
ENDBRANCH  15  16
ENDBRANCH   9  15
BRANCH  14  19
HETATM   19  C   UNK N   1      20.629  17.546   6.519  0.00  0.00     0.224 C 
BRANCH  19  20
HETATM   20  O   UNK N   1      21.066  18.689   7.188  0.00  0.00    -0.395 OA
HETATM   21  H   UNK N   1      21.311  19.173   7.992  0.00  0.00     0.209 HD
ENDBRANCH  19  20
ENDBRANCH  14  19
ENDBRANCH   7   8
ENDBRANCH   1   7
BRANCH   4  22
HETATM   22  C   UNK N   1      27.878  16.340   6.092  0.00  0.00    -0.012 A 
HETATM   23  C   UNK N   1      28.430  17.657   6.367  0.00  0.00     0.021 A 
HETATM   24  C   UNK N   1      29.816  17.838   6.200  0.00  0.00     0.016 A 
HETATM   25  C   UNK N   1      30.658  16.815   5.784  0.00  0.00     0.001 A 
HETATM   26  C   UNK N   1      30.137  15.564   5.516  0.00  0.00     0.001 A 
HETATM   27  C   UNK N   1      28.775  15.336   5.667  0.00  0.00     0.013 A 
BRANCH  23  28
HETATM   28  C   UNK N   1      27.717  18.904   6.801  0.00  0.00     0.145 A 
HETATM   29  N   UNK N   1      27.439  19.308   8.052  0.00  0.00    -0.271 N 
HETATM   30  N   UNK N   1      26.787  20.450   7.934  0.00  0.00    -0.225 N 
ATOM     31  HN  UNK N   1      27.683  18.828   8.919  1.00  0.00     0.190 HD
HETATM   32  N   UNK N   1      26.657  20.750   6.652  0.00  0.00    -0.005 NA
HETATM   33  H   UNK N   1      26.451  20.994   8.683  0.00  0.00     0.205 HD
HETATM   34  N   UNK N   1      27.224  19.805   5.926  0.00  0.00    -0.266 N 
ATOM     35  HN  UNK N   1      27.278  19.764   4.908  1.00  0.00     0.186 HD
ENDBRANCH  23  28
ENDBRANCH   4  22
TORSDOF 9
ENDMDL
MODEL 4
REMARK VINA RESULT:      -7.4      4.683      7.644
REMARK  9 active torsions:
REMARK  status: ('A' for Active; 'I' for Inactive)
REMARK    1  A    between atoms: O_2  and  C_20 
REMARK    2  A    between atoms: N_3  and  C_14 
REMARK    3  A    between atoms: C_12  and  C_13 
REMARK    4  A    between atoms: C_13  and  C_15 
REMARK    5  A    between atoms: C_14  and  C_17 
REMARK    6  A    between atoms: C_15  and  C_18 
REMARK    7  A    between atoms: C_16  and  C_20 
REMARK    8  A    between atoms: C_23  and  C_27 
REMARK    9  A    between atoms: C_28  and  C_32 
ROOT
HETATM    1  C   UNK N   1      32.490  17.108   6.059  0.00  0.00    -0.040 A 
HETATM    2  C   UNK N   1      31.380  16.659   6.766  0.00  0.00     0.010 A 
HETATM    3  C   UNK N   1      32.322  17.535   4.743  0.00  0.00     0.010 A 
HETATM    4  C   UNK N   1      29.945  17.064   4.818  0.00  0.00    -0.025 A 
HETATM    5  C   UNK N   1      30.121  16.631   6.153  0.00  0.00     0.013 A 
HETATM    6  C   UNK N   1      31.070  17.507   4.136  0.00  0.00     0.013 A 
ENDROOT
BRANCH   1   7
HETATM    7  C   UNK N   1      33.891  17.181   6.581  0.00  0.00     0.169 C 
BRANCH   7   8
HETATM    8  N   UNK N   1      34.613  16.155   7.357  0.00  0.00    -0.331 N 
HETATM    9  C   UNK N   1      35.194  15.134   6.686  0.00  0.00     0.085 A 
HETATM   10  N   UNK N   1      35.829  14.265   7.502  0.00  0.00    -0.335 N 
HETATM   11  C   UNK N   1      35.645  14.760   8.739  0.00  0.00     0.130 A 
ATOM     12  HN  UNK N   1      36.335  13.420   7.238  1.00  0.00     0.168 HD
HETATM   13 Cl   UNK N   1      36.273  14.003  10.192  0.00  0.00    -0.062 Cl
HETATM   14  C   UNK N   1      34.903  15.923   8.663  0.00  0.00     0.075 A 
BRANCH   9  15
HETATM   15  C   UNK N   1      35.133  15.019   5.189  0.00  0.00     0.076 C 
BRANCH  15  16
HETATM   16  C   UNK N   1      34.093  14.067   4.648  0.00  0.00     0.007 C 
BRANCH  16  17
HETATM   17  C   UNK N   1      33.685  14.594   3.286  0.00  0.00    -0.004 C 
HETATM   18  C   UNK N   1      32.268  14.180   2.964  0.00  0.00     0.005 C 
ENDBRANCH  16  17
ENDBRANCH  15  16
ENDBRANCH   9  15
BRANCH  14  19
HETATM   19  C   UNK N   1      34.540  16.750   9.850  0.00  0.00     0.224 C 
BRANCH  19  20
HETATM   20  O   UNK N   1      35.627  17.528  10.246  0.00  0.00    -0.395 OA
HETATM   21  H   UNK N   1      36.399  17.704  10.806  0.00  0.00     0.209 HD
ENDBRANCH  19  20
ENDBRANCH  14  19
ENDBRANCH   7   8
ENDBRANCH   1   7
BRANCH   4  22
HETATM   22  C   UNK N   1      28.573  17.005   4.194  0.00  0.00    -0.012 A 
HETATM   23  C   UNK N   1      27.442  17.888   4.429  0.00  0.00     0.021 A 
HETATM   24  C   UNK N   1      26.255  17.642   3.713  0.00  0.00     0.016 A 
HETATM   25  C   UNK N   1      26.133  16.597   2.807  0.00  0.00     0.001 A 
HETATM   26  C   UNK N   1      27.203  15.751   2.586  0.00  0.00     0.001 A 
HETATM   27  C   UNK N   1      28.396  15.954   3.268  0.00  0.00     0.013 A 
BRANCH  23  28
HETATM   28  C   UNK N   1      27.338  19.055   5.366  0.00  0.00     0.145 A 
HETATM   29  N   UNK N   1      27.032  19.043   6.674  0.00  0.00    -0.271 N 
HETATM   30  N   UNK N   1      27.046  20.304   7.067  0.00  0.00    -0.225 N 
ATOM     31  HN  UNK N   1      26.827  18.225   7.248  1.00  0.00     0.190 HD
HETATM   32  N   UNK N   1      27.347  21.080   6.039  0.00  0.00    -0.005 NA
HETATM   33  H   UNK N   1      26.861  20.617   7.983  0.00  0.00     0.205 HD
HETATM   34  N   UNK N   1      27.533  20.330   4.969  0.00  0.00    -0.266 N 
ATOM     35  HN  UNK N   1      27.773  20.649   4.031  1.00  0.00     0.186 HD
ENDBRANCH  23  28
ENDBRANCH   4  22
TORSDOF 9
ENDMDL
MODEL 5
REMARK VINA RESULT:      -7.3      3.001      5.203
REMARK  9 active torsions:
REMARK  status: ('A' for Active; 'I' for Inactive)
REMARK    1  A    between atoms: O_2  and  C_20 
REMARK    2  A    between atoms: N_3  and  C_14 
REMARK    3  A    between atoms: C_12  and  C_13 
REMARK    4  A    between atoms: C_13  and  C_15 
REMARK    5  A    between atoms: C_14  and  C_17 
REMARK    6  A    between atoms: C_15  and  C_18 
REMARK    7  A    between atoms: C_16  and  C_20 
REMARK    8  A    between atoms: C_23  and  C_27 
REMARK    9  A    between atoms: C_28  and  C_32 
ROOT
HETATM    1  C   UNK N   1      34.602  16.002   9.731  0.00  0.00    -0.040 A 
HETATM    2  C   UNK N   1      33.501  15.153   9.746  0.00  0.00     0.010 A 
HETATM    3  C   UNK N   1      34.496  17.230   9.078  0.00  0.00     0.010 A 
HETATM    4  C   UNK N   1      32.200  16.774   8.444  0.00  0.00    -0.025 A 
HETATM    5  C   UNK N   1      32.313  15.529   9.106  0.00  0.00     0.013 A 
HETATM    6  C   UNK N   1      33.314  17.602   8.444  0.00  0.00     0.013 A 
ENDROOT
BRANCH   1   7
HETATM    7  C   UNK N   1      35.932  15.726  10.359  0.00  0.00     0.169 C 
BRANCH   7   8
HETATM    8  N   UNK N   1      36.436  14.433  10.860  0.00  0.00    -0.331 N 
HETATM    9  C   UNK N   1      37.065  13.610   9.990  0.00  0.00     0.085 A 
HETATM   10  N   UNK N   1      37.485  12.462  10.565  0.00  0.00    -0.335 N 
HETATM   11  C   UNK N   1      37.110  12.568  11.853  0.00  0.00     0.130 A 
ATOM     12  HN  UNK N   1      37.977  11.687  10.121  1.00  0.00     0.168 HD
HETATM   13 Cl   UNK N   1      37.414  11.329  13.059  0.00  0.00    -0.062 Cl
HETATM   14  C   UNK N   1      36.467  13.775  12.047  0.00  0.00     0.075 A 
BRANCH   9  15
HETATM   15  C   UNK N   1      37.270  13.972   8.547  0.00  0.00     0.076 C 
BRANCH  15  16
HETATM   16  C   UNK N   1      36.224  13.455   7.587  0.00  0.00     0.007 C 
BRANCH  16  17
HETATM   17  C   UNK N   1      35.950  14.572   6.599  0.00  0.00    -0.004 C 
HETATM   18  C   UNK N   1      34.494  14.573   6.196  0.00  0.00     0.005 C 
ENDBRANCH  16  17
ENDBRANCH  15  16
ENDBRANCH   9  15
BRANCH  14  19
HETATM   19  C   UNK N   1      35.946  14.230  13.368  0.00  0.00     0.224 C 
BRANCH  19  20
HETATM   20  O   UNK N   1      36.912  14.983  14.034  0.00  0.00    -0.395 OA
HETATM   21  H   UNK N   1      37.202  15.570  14.749  0.00  0.00     0.209 HD
ENDBRANCH  19  20
ENDBRANCH  14  19
ENDBRANCH   7   8
ENDBRANCH   1   7
BRANCH   4  22
HETATM   22  C   UNK N   1      30.906  17.133   7.757  0.00  0.00    -0.012 A 
HETATM   23  C   UNK N   1      30.617  17.133   6.332  0.00  0.00     0.021 A 
HETATM   24  C   UNK N   1      29.318  17.495   5.924  0.00  0.00     0.016 A 
HETATM   25  C   UNK N   1      28.324  17.849   6.826  0.00  0.00     0.001 A 
HETATM   26  C   UNK N   1      28.597  17.856   8.181  0.00  0.00     0.001 A 
HETATM   27  C   UNK N   1      29.863  17.506   8.632  0.00  0.00     0.013 A 
BRANCH  23  28
HETATM   28  C   UNK N   1      31.530  16.812   5.186  0.00  0.00     0.145 A 
HETATM   29  N   UNK N   1      32.579  17.521   4.738  0.00  0.00    -0.271 N 
HETATM   30  N   UNK N   1      33.061  16.853   3.704  0.00  0.00    -0.225 N 
ATOM     31  HN  UNK N   1      32.931  18.399   5.117  1.00  0.00     0.190 HD
HETATM   32  N   UNK N   1      32.336  15.763   3.511  0.00  0.00    -0.005 NA
HETATM   33  H   UNK N   1      33.839  17.123   3.164  0.00  0.00     0.205 HD
HETATM   34  N   UNK N   1      31.376  15.713   4.416  0.00  0.00    -0.266 N 
ATOM     35  HN  UNK N   1      30.663  14.992   4.514  1.00  0.00     0.186 HD
ENDBRANCH  23  28
ENDBRANCH   4  22
TORSDOF 9
ENDMDL
MODEL 6
REMARK VINA RESULT:      -7.3      1.737      2.559
REMARK  9 active torsions:
REMARK  status: ('A' for Active; 'I' for Inactive)
REMARK    1  A    between atoms: O_2  and  C_20 
REMARK    2  A    between atoms: N_3  and  C_14 
REMARK    3  A    between atoms: C_12  and  C_13 
REMARK    4  A    between atoms: C_13  and  C_15 
REMARK    5  A    between atoms: C_14  and  C_17 
REMARK    6  A    between atoms: C_15  and  C_18 
REMARK    7  A    between atoms: C_16  and  C_20 
REMARK    8  A    between atoms: C_23  and  C_27 
REMARK    9  A    between atoms: C_28  and  C_32 
ROOT
HETATM    1  C   UNK N   1      34.670  16.081   9.978  0.00  0.00    -0.040 A 
HETATM    2  C   UNK N   1      34.729  17.290   9.292  0.00  0.00     0.010 A 
HETATM    3  C   UNK N   1      33.669  15.169   9.648  0.00  0.00     0.010 A 
HETATM    4  C   UNK N   1      32.772  16.655   7.955  0.00  0.00    -0.025 A 
HETATM    5  C   UNK N   1      33.788  17.579   8.294  0.00  0.00     0.013 A 
HETATM    6  C   UNK N   1      32.737  15.457   8.656  0.00  0.00     0.013 A 
ENDROOT
BRANCH   1   7
HETATM    7  C   UNK N   1      35.597  15.647  11.069  0.00  0.00     0.169 C 
BRANCH   7   8
HETATM    8  N   UNK N   1      36.450  14.444  11.096  0.00  0.00    -0.331 N 
HETATM    9  C   UNK N   1      36.684  13.850  12.288  0.00  0.00     0.085 A 
HETATM   10  N   UNK N   1      37.472  12.757  12.183  0.00  0.00    -0.335 N 
HETATM   11  C   UNK N   1      37.741  12.655  10.870  0.00  0.00     0.130 A 
ATOM     12  HN  UNK N   1      37.791  12.146  12.934  1.00  0.00     0.168 HD
HETATM   13 Cl   UNK N   1      38.741  11.389  10.178  0.00  0.00    -0.062 Cl
HETATM   14  C   UNK N   1      37.117  13.683  10.190  0.00  0.00     0.075 A 
BRANCH   9  15
HETATM   15  C   UNK N   1      36.102  14.369  13.572  0.00  0.00     0.076 C 
BRANCH  15  16
HETATM   16  C   UNK N   1      36.564  13.670  14.830  0.00  0.00     0.007 C 
BRANCH  16  17
HETATM   17  C   UNK N   1      35.338  13.022  15.443  0.00  0.00    -0.004 C 
HETATM   18  C   UNK N   1      35.277  13.310  16.925  0.00  0.00     0.005 C 
ENDBRANCH  16  17
ENDBRANCH  15  16
ENDBRANCH   9  15
BRANCH  14  19
HETATM   19  C   UNK N   1      37.181  13.854   8.710  0.00  0.00     0.224 C 
BRANCH  19  20
HETATM   20  O   UNK N   1      36.105  13.209   8.104  0.00  0.00    -0.395 OA
HETATM   21  H   UNK N   1      35.198  13.189   7.758  0.00  0.00     0.209 HD
ENDBRANCH  19  20
ENDBRANCH  14  19
ENDBRANCH   7   8
ENDBRANCH   1   7
BRANCH   4  22
HETATM   22  C   UNK N   1      31.773  17.013   6.883  0.00  0.00    -0.012 A 
HETATM   23  C   UNK N   1      30.360  17.318   7.041  0.00  0.00     0.021 A 
HETATM   24  C   UNK N   1      29.624  17.642   5.884  0.00  0.00     0.016 A 
HETATM   25  C   UNK N   1      30.197  17.675   4.619  0.00  0.00     0.001 A 
HETATM   26  C   UNK N   1      31.539  17.379   4.466  0.00  0.00     0.001 A 
HETATM   27  C   UNK N   1      32.306  17.055   5.577  0.00  0.00     0.013 A 
BRANCH  23  28
HETATM   28  C   UNK N   1      29.532  17.324   8.291  0.00  0.00     0.145 A 
HETATM   29  N   UNK N   1      29.950  17.435   9.562  0.00  0.00    -0.271 N 
HETATM   30  N   UNK N   1      28.866  17.371  10.314  0.00  0.00    -0.225 N 
ATOM     31  HN  UNK N   1      30.912  17.545   9.883  1.00  0.00     0.190 HD
HETATM   32  N   UNK N   1      27.804  17.221   9.540  0.00  0.00    -0.005 NA
HETATM   33  H   UNK N   1      28.851  17.427  11.298  0.00  0.00     0.205 HD
HETATM   34  N   UNK N   1      28.189  17.187   8.278  0.00  0.00    -0.266 N 
ATOM     35  HN  UNK N   1      27.592  17.078   7.458  1.00  0.00     0.186 HD
ENDBRANCH  23  28
ENDBRANCH   4  22
TORSDOF 9
ENDMDL
MODEL 7
REMARK VINA RESULT:      -7.3      1.907      3.950
REMARK  9 active torsions:
REMARK  status: ('A' for Active; 'I' for Inactive)
REMARK    1  A    between atoms: O_2  and  C_20 
REMARK    2  A    between atoms: N_3  and  C_14 
REMARK    3  A    between atoms: C_12  and  C_13 
REMARK    4  A    between atoms: C_13  and  C_15 
REMARK    5  A    between atoms: C_14  and  C_17 
REMARK    6  A    between atoms: C_15  and  C_18 
REMARK    7  A    between atoms: C_16  and  C_20 
REMARK    8  A    between atoms: C_23  and  C_27 
REMARK    9  A    between atoms: C_28  and  C_32 
ROOT
HETATM    1  C   UNK N   1      34.704  15.733  10.502  0.00  0.00    -0.040 A 
HETATM    2  C   UNK N   1      33.669  14.878  10.139  0.00  0.00     0.010 A 
HETATM    3  C   UNK N   1      34.907  16.896   9.760  0.00  0.00     0.010 A 
HETATM    4  C   UNK N   1      33.057  16.364   8.285  0.00  0.00    -0.025 A 
HETATM    5  C   UNK N   1      32.856  15.185   9.040  0.00  0.00     0.013 A 
HETATM    6  C   UNK N   1      34.097  17.200   8.670  0.00  0.00     0.013 A 
ENDROOT
BRANCH   1   7
HETATM    7  C   UNK N   1      35.653  15.526  11.640  0.00  0.00     0.169 C 
BRANCH   7   8
HETATM    8  N   UNK N   1      36.318  14.270  12.036  0.00  0.00    -0.331 N 
HETATM    9  C   UNK N   1      37.238  13.740  11.199  0.00  0.00     0.085 A 
HETATM   10  N   UNK N   1      37.780  12.597  11.673  0.00  0.00    -0.335 N 
HETATM   11  C   UNK N   1      37.180  12.400  12.861  0.00  0.00     0.130 A 
ATOM     12  HN  UNK N   1      38.487  12.012  11.228  1.00  0.00     0.168 HD
HETATM   13 Cl   UNK N   1      37.522  11.035  13.909  0.00  0.00    -0.062 Cl
HETATM   14  C   UNK N   1      36.281  13.423  13.097  0.00  0.00     0.075 A 
BRANCH   9  15
HETATM   15  C   UNK N   1      37.606  14.388   9.895  0.00  0.00     0.076 C 
BRANCH  15  16
HETATM   16  C   UNK N   1      37.477  13.514   8.670  0.00  0.00     0.007 C 
BRANCH  16  17
HETATM   17  C   UNK N   1      36.296  14.043   7.880  0.00  0.00    -0.004 C 
HETATM   18  C   UNK N   1      36.182  13.319   6.558  0.00  0.00     0.005 C 
ENDBRANCH  16  17
ENDBRANCH  15  16
ENDBRANCH   9  15
BRANCH  14  19
HETATM   19  C   UNK N   1      35.463  13.534  14.339  0.00  0.00     0.224 C 
BRANCH  19  20
HETATM   20  O   UNK N   1      34.386  12.651  14.287  0.00  0.00    -0.395 OA
HETATM   21  H   UNK N   1      33.774  12.070  13.809  0.00  0.00     0.209 HD
ENDBRANCH  19  20
ENDBRANCH  14  19
ENDBRANCH   7   8
ENDBRANCH   1   7
BRANCH   4  22
HETATM   22  C   UNK N   1      32.165  16.648   7.103  0.00  0.00    -0.012 A 
HETATM   23  C   UNK N   1      30.843  17.253   7.101  0.00  0.00     0.021 A 
HETATM   24  C   UNK N   1      30.203  17.432   5.859  0.00  0.00     0.016 A 
HETATM   25  C   UNK N   1      30.785  17.052   4.658  0.00  0.00     0.001 A 
HETATM   26  C   UNK N   1      32.039  16.470   4.656  0.00  0.00     0.001 A 
HETATM   27  C   UNK N   1      32.711  16.274   5.856  0.00  0.00     0.013 A 
BRANCH  23  28
HETATM   28  C   UNK N   1      30.019  17.717   8.265  0.00  0.00     0.145 A 
HETATM   29  N   UNK N   1      28.691  17.611   8.436  0.00  0.00    -0.271 N 
HETATM   30  N   UNK N   1      28.422  18.175   9.601  0.00  0.00    -0.225 N 
ATOM     31  HN  UNK N   1      28.023  17.182   7.795  1.00  0.00     0.190 HD
HETATM   32  N   UNK N   1      29.545  18.622  10.139  0.00  0.00    -0.005 NA
HETATM   33  H   UNK N   1      27.527  18.249  10.004  0.00  0.00     0.205 HD
HETATM   34  N   UNK N   1      30.552  18.353   9.330  0.00  0.00    -0.266 N 
ATOM     35  HN  UNK N   1      31.535  18.580   9.479  1.00  0.00     0.186 HD
ENDBRANCH  23  28
ENDBRANCH   4  22
TORSDOF 9
ENDMDL
MODEL 8
REMARK VINA RESULT:      -7.2      7.433     11.145
REMARK  9 active torsions:
REMARK  status: ('A' for Active; 'I' for Inactive)
REMARK    1  A    between atoms: O_2  and  C_20 
REMARK    2  A    between atoms: N_3  and  C_14 
REMARK    3  A    between atoms: C_12  and  C_13 
REMARK    4  A    between atoms: C_13  and  C_15 
REMARK    5  A    between atoms: C_14  and  C_17 
REMARK    6  A    between atoms: C_15  and  C_18 
REMARK    7  A    between atoms: C_16  and  C_20 
REMARK    8  A    between atoms: C_23  and  C_27 
REMARK    9  A    between atoms: C_28  and  C_32 
ROOT
HETATM    1  C   UNK N   1      27.495  16.301   4.556  0.00  0.00    -0.040 A 
HETATM    2  C   UNK N   1      28.194  15.321   5.253  0.00  0.00     0.010 A 
HETATM    3  C   UNK N   1      28.078  17.557   4.394  0.00  0.00     0.010 A 
HETATM    4  C   UNK N   1      30.055  16.877   5.622  0.00  0.00    -0.025 A 
HETATM    5  C   UNK N   1      29.459  15.605   5.786  0.00  0.00     0.013 A 
HETATM    6  C   UNK N   1      29.335  17.836   4.923  0.00  0.00     0.013 A 
ENDROOT
BRANCH   1   7
HETATM    7  C   UNK N   1      26.138  16.142   3.947  0.00  0.00     0.169 C 
BRANCH   7   8
HETATM    8  N   UNK N   1      24.834  16.440   4.570  0.00  0.00    -0.331 N 
HETATM    9  C   UNK N   1      24.079  15.404   5.001  0.00  0.00     0.085 A 
HETATM   10  N   UNK N   1      22.914  15.802   5.558  0.00  0.00    -0.335 N 
HETATM   11  C   UNK N   1      22.938  17.144   5.479  0.00  0.00     0.130 A 
ATOM     12  HN  UNK N   1      22.179  15.214   5.950  1.00  0.00     0.168 HD
HETATM   13 Cl   UNK N   1      21.645  18.175   6.066  0.00  0.00    -0.062 Cl
HETATM   14  C   UNK N   1      24.114  17.549   4.877  0.00  0.00     0.075 A 
BRANCH   9  15
HETATM   15  C   UNK N   1      24.525  13.976   4.873  0.00  0.00     0.076 C 
BRANCH  15  16
HETATM   16  C   UNK N   1      24.457  13.152   6.137  0.00  0.00     0.007 C 
BRANCH  16  17
HETATM   17  C   UNK N   1      25.387  13.811   7.137  0.00  0.00    -0.004 C 
HETATM   18  C   UNK N   1      24.991  13.440   8.548  0.00  0.00     0.005 C 
ENDBRANCH  16  17
ENDBRANCH  15  16
ENDBRANCH   9  15
BRANCH  14  19
HETATM   19  C   UNK N   1      24.480  18.978   4.658  0.00  0.00     0.224 C 
BRANCH  19  20
HETATM   20  O   UNK N   1      25.370  19.403   5.643  0.00  0.00    -0.395 OA
HETATM   21  H   UNK N   1      25.637  19.516   6.569  0.00  0.00     0.209 HD
ENDBRANCH  19  20
ENDBRANCH  14  19
ENDBRANCH   7   8
ENDBRANCH   1   7
BRANCH   4  22
HETATM   22  C   UNK N   1      31.413  17.142   6.224  0.00  0.00    -0.012 A 
HETATM   23  C   UNK N   1      31.734  17.471   7.604  0.00  0.00     0.021 A 
HETATM   24  C   UNK N   1      33.089  17.662   7.936  0.00  0.00     0.016 A 
HETATM   25  C   UNK N   1      34.110  17.552   7.001  0.00  0.00     0.001 A 
HETATM   26  C   UNK N   1      33.808  17.246   5.687  0.00  0.00     0.001 A 
HETATM   27  C   UNK N   1      32.486  17.047   5.311  0.00  0.00     0.013 A 
BRANCH  23  28
HETATM   28  C   UNK N   1      30.805  17.661   8.766  0.00  0.00     0.145 A 
HETATM   29  N   UNK N   1      30.407  16.749   9.667  0.00  0.00    -0.271 N 
HETATM   30  N   UNK N   1      29.580  17.375  10.486  0.00  0.00    -0.225 N 
ATOM     31  HN  UNK N   1      30.685  15.768   9.710  1.00  0.00     0.190 HD
HETATM   32  N   UNK N   1      29.463  18.638  10.108  0.00  0.00    -0.005 NA
HETATM   33  H   UNK N   1      29.125  16.967  11.258  0.00  0.00     0.205 HD
HETATM   34  N   UNK N   1      30.212  18.843   9.040  0.00  0.00    -0.266 N 
ATOM     35  HN  UNK N   1      30.320  19.717   8.525  1.00  0.00     0.186 HD
ENDBRANCH  23  28
ENDBRANCH   4  22
TORSDOF 9
ENDMDL
MODEL 9
REMARK VINA RESULT:      -7.1      7.668     11.519
REMARK  9 active torsions:
REMARK  status: ('A' for Active; 'I' for Inactive)
REMARK    1  A    between atoms: O_2  and  C_20 
REMARK    2  A    between atoms: N_3  and  C_14 
REMARK    3  A    between atoms: C_12  and  C_13 
REMARK    4  A    between atoms: C_13  and  C_15 
REMARK    5  A    between atoms: C_14  and  C_17 
REMARK    6  A    between atoms: C_15  and  C_18 
REMARK    7  A    between atoms: C_16  and  C_20 
REMARK    8  A    between atoms: C_23  and  C_27 
REMARK    9  A    between atoms: C_28  and  C_32 
ROOT
HETATM    1  C   UNK N   1      27.185  15.595   5.725  0.00  0.00    -0.040 A 
HETATM    2  C   UNK N   1      27.366  16.688   6.565  0.00  0.00     0.010 A 
HETATM    3  C   UNK N   1      28.309  14.931   5.234  0.00  0.00     0.010 A 
HETATM    4  C   UNK N   1      29.802  16.442   6.404  0.00  0.00    -0.025 A 
HETATM    5  C   UNK N   1      28.659  17.113   6.898  0.00  0.00     0.013 A 
HETATM    6  C   UNK N   1      29.592  15.354   5.567  0.00  0.00     0.013 A 
ENDROOT
BRANCH   1   7
HETATM    7  C   UNK N   1      25.869  15.041   5.278  0.00  0.00     0.169 C 
BRANCH   7   8
HETATM    8  N   UNK N   1      24.545  15.275   5.885  0.00  0.00    -0.331 N 
HETATM    9  C   UNK N   1      23.773  16.263   5.378  0.00  0.00     0.085 A 
HETATM   10  N   UNK N   1      22.585  16.376   6.011  0.00  0.00    -0.335 N 
HETATM   11  C   UNK N   1      22.606  15.416   6.952  0.00  0.00     0.130 A 
ATOM     12  HN  UNK N   1      21.838  17.042   5.817  1.00  0.00     0.168 HD
HETATM   13 Cl   UNK N   1      21.287  15.124   8.072  0.00  0.00    -0.062 Cl
HETATM   14  C   UNK N   1      23.803  14.730   6.883  0.00  0.00     0.075 A 
BRANCH   9  15
HETATM   15  C   UNK N   1      24.215  17.116   4.223  0.00  0.00     0.076 C 
BRANCH  15  16
HETATM   16  C   UNK N   1      24.839  18.442   4.590  0.00  0.00     0.007 C 
BRANCH  16  17
HETATM   17  C   UNK N   1      25.971  18.677   3.609  0.00  0.00    -0.004 C 
HETATM   18  C   UNK N   1      27.039  19.543   4.237  0.00  0.00     0.005 C 
ENDBRANCH  16  17
ENDBRANCH  15  16
ENDBRANCH   9  15
BRANCH  14  19
HETATM   19  C   UNK N   1      24.148  13.579   7.766  0.00  0.00     0.224 C 
BRANCH  19  20
HETATM   20  O   UNK N   1      25.291  13.868   8.511  0.00  0.00    -0.395 OA
HETATM   21  H   UNK N   1      25.766  14.357   9.200  0.00  0.00     0.209 HD
ENDBRANCH  19  20
ENDBRANCH  14  19
ENDBRANCH   7   8
ENDBRANCH   1   7
BRANCH   4  22
HETATM   22  C   UNK N   1      31.174  16.942   6.779  0.00  0.00    -0.012 A 
HETATM   23  C   UNK N   1      32.300  17.216   5.899  0.00  0.00     0.021 A 
HETATM   24  C   UNK N   1      33.489  17.694   6.483  0.00  0.00     0.016 A 
HETATM   25  C   UNK N   1      33.618  17.905   7.849  0.00  0.00     0.001 A 
HETATM   26  C   UNK N   1      32.552  17.639   8.689  0.00  0.00     0.001 A 
HETATM   27  C   UNK N   1      31.358  17.166   8.160  0.00  0.00     0.013 A 
BRANCH  23  28
HETATM   28  C   UNK N   1      32.396  17.044   4.413  0.00  0.00     0.145 A 
HETATM   29  N   UNK N   1      31.635  17.609   3.461  0.00  0.00    -0.271 N 
HETATM   30  N   UNK N   1      32.083  17.147   2.307  0.00  0.00    -0.225 N 
ATOM     31  HN  UNK N   1      30.865  18.263   3.601  1.00  0.00     0.190 HD
HETATM   32  N   UNK N   1      33.088  16.317   2.529  0.00  0.00    -0.005 NA
HETATM   33  H   UNK N   1      31.724  17.384   1.421  0.00  0.00     0.205 HD
HETATM   34  N   UNK N   1      33.304  16.232   3.829  0.00  0.00    -0.266 N 
ATOM     35  HN  UNK N   1      34.012  15.668   4.298  1.00  0.00     0.186 HD
ENDBRANCH  23  28
ENDBRANCH   4  22
TORSDOF 9
ENDMDL
