MODEL 1
REMARK VINA RESULT:      -7.5      0.000      0.000
REMARK  6 active torsions:
REMARK  status: ('A' for Active; 'I' for Inactive)
REMARK    1  A    between atoms: O_4  and  C_28 
REMARK    2  A    between atoms: O_4  and  C_29 
REMARK    3  A    between atoms: N_6  and  C_9 
REMARK       I    between atoms: N_7  and  C_15 
REMARK    4  A    between atoms: N_8  and  C_23 
REMARK       I    between atoms: N_8  and  C_28 
REMARK    5  A    between atoms: C_9  and  C_12 
REMARK    6  A    between atoms: C_12  and  C_15 
ROOT
HETATM    1  S   UNK N   1      24.183  20.688   3.065  0.00  0.00    -0.086 SA
HETATM    2  O   UNK N   1      24.768  16.066   5.799  0.00  0.00    -0.273 OA
HETATM    3  N   UNK N   1      23.901  17.802   4.570  0.00  0.00    -0.280 N 
HETATM    4  C   UNK N   1      23.795  16.568   5.252  0.00  0.00     0.230 C 
HETATM    5  C   UNK N   1      25.196  18.488   4.529  0.00  0.00     0.062 A 
HETATM    6  C   UNK N   1      22.730  18.394   3.916  0.00  0.00     0.059 A 
HETATM    7  C   UNK N   1      25.423  19.740   3.900  0.00  0.00     0.033 A 
HETATM    8  C   UNK N   1      22.760  19.643   3.237  0.00  0.00     0.033 A 
HETATM    9  C   UNK N   1      26.313  17.901   5.147  0.00  0.00     0.061 A 
HETATM   10  C   UNK N   1      21.486  17.725   3.932  0.00  0.00     0.031 A 
HETATM   11  C   UNK N   1      26.707  20.318   3.919  0.00  0.00     0.023 A 
HETATM   12  C   UNK N   1      27.576  18.461   5.174  0.00  0.00     0.039 A 
HETATM   13  C   UNK N   1      21.596  20.147   2.635  0.00  0.00     0.021 A 
HETATM   14  C   UNK N   1      27.784  19.688   4.550  0.00  0.00     0.031 A 
HETATM   15  C   UNK N   1      20.339  18.234   3.334  0.00  0.00     0.002 A 
HETATM   16  C   UNK N   1      20.394  19.453   2.682  0.00  0.00     0.002 A 
ENDROOT
BRANCH   4  17
HETATM   17  C   UNK N   1      22.528  15.772   5.386  0.00  0.00     0.134 C 
BRANCH  17  18
HETATM   18  C   UNK N   1      22.157  15.660   6.862  0.00  0.00     0.282 C 
BRANCH  18  19
HETATM   19  N   UNK N   1      20.834  15.078   7.099  0.00  0.00     0.093 N 
HETATM   20  C   UNK N   1      19.783  16.095   7.269  0.00  0.00     0.298 C 
HETATM   21  C   UNK N   1      19.484  16.363   8.745  0.00  0.00     0.198 C 
HETATM   22  O   UNK N   1      19.194  15.151   9.384  0.00  0.00    -0.388 OA
HETATM   23  C   UNK N   1      20.424  14.488   9.480  0.00  0.00     0.198 C 
HETATM   24  C   UNK N   1      20.835  13.988   8.092  0.00  0.00     0.298 C 
ENDBRANCH  18  19
ENDBRANCH  17  18
ENDBRANCH   4  17
BRANCH  12  25
HETATM   25  N   UNK N   1      28.587  17.731   5.851  0.00  0.00    -0.303 N 
HETATM   26  C   UNK N   1      28.962  17.804   7.149  0.00  0.00     0.365 C 
HETATM   27  O   UNK N   1      28.415  18.576   7.925  0.00  0.00    -0.238 OA
HETATM   28  H   UNK N   1      29.085  17.084   5.300  0.00  0.00     0.171 HD
BRANCH  26  29
HETATM   29  O   UNK N   1      29.964  16.993   7.562  0.00  0.00    -0.304 OA
BRANCH  29  30
HETATM   30  C   UNK N   1      30.690  17.188   8.710  0.00  0.00     0.176 C 
HETATM   31  C   UNK N   1      32.010  17.834   8.342  0.00  0.00     0.034 C 
ENDBRANCH  29  30
ENDBRANCH  26  29
ENDBRANCH  12  25
TORSDOF 6
ENDMDL
MODEL 2
REMARK VINA RESULT:      -7.1     12.810     15.577
REMARK  6 active torsions:
REMARK  status: ('A' for Active; 'I' for Inactive)
REMARK    1  A    between atoms: O_4  and  C_28 
REMARK    2  A    between atoms: O_4  and  C_29 
REMARK    3  A    between atoms: N_6  and  C_9 
REMARK       I    between atoms: N_7  and  C_15 
REMARK    4  A    between atoms: N_8  and  C_23 
REMARK       I    between atoms: N_8  and  C_28 
REMARK    5  A    between atoms: C_9  and  C_12 
REMARK    6  A    between atoms: C_12  and  C_15 
ROOT
HETATM    1  S   UNK N   1      27.229  29.457  -3.471  0.00  0.00    -0.086 SA
HETATM    2  O   UNK N   1      29.219  24.691  -5.056  0.00  0.00    -0.273 OA
HETATM    3  N   UNK N   1      28.973  26.769  -4.107  0.00  0.00    -0.280 N 
HETATM    4  C   UNK N   1      29.719  25.608  -4.419  0.00  0.00     0.230 C 
HETATM    5  C   UNK N   1      27.585  26.871  -4.564  0.00  0.00     0.062 A 
HETATM    6  C   UNK N   1      29.582  27.860  -3.341  0.00  0.00     0.059 A 
HETATM    7  C   UNK N   1      26.744  27.991  -4.338  0.00  0.00     0.033 A 
HETATM    8  C   UNK N   1      28.899  29.065  -3.016  0.00  0.00     0.033 A 
HETATM    9  C   UNK N   1      27.011  25.809  -5.285  0.00  0.00     0.061 A 
HETATM   10  C   UNK N   1      30.912  27.756  -2.878  0.00  0.00     0.031 A 
HETATM   11  C   UNK N   1      25.421  27.993  -4.823  0.00  0.00     0.023 A 
HETATM   12  C   UNK N   1      25.716  25.802  -5.767  0.00  0.00     0.039 A 
HETATM   13  C   UNK N   1      29.548  30.068  -2.280  0.00  0.00     0.021 A 
HETATM   14  C   UNK N   1      24.902  26.907  -5.534  0.00  0.00     0.031 A 
HETATM   15  C   UNK N   1      31.546  28.756  -2.150  0.00  0.00     0.002 A 
HETATM   16  C   UNK N   1      30.860  29.920  -1.850  0.00  0.00     0.002 A 
ENDROOT
BRANCH   4  17
HETATM   17  C   UNK N   1      31.153  25.384  -4.029  0.00  0.00     0.134 C 
BRANCH  17  18
HETATM   18  C   UNK N   1      31.743  24.272  -4.893  0.00  0.00     0.282 C 
BRANCH  18  19
HETATM   19  N   UNK N   1      32.212  23.114  -4.130  0.00  0.00     0.093 N 
HETATM   20  C   UNK N   1      32.735  22.037  -4.989  0.00  0.00     0.298 C 
HETATM   21  C   UNK N   1      31.691  20.946  -5.231  0.00  0.00     0.198 C 
HETATM   22  O   UNK N   1      31.206  20.490  -3.999  0.00  0.00    -0.388 OA
HETATM   23  C   UNK N   1      30.397  21.528  -3.520  0.00  0.00     0.198 C 
HETATM   24  C   UNK N   1      31.285  22.689  -3.065  0.00  0.00     0.298 C 
ENDBRANCH  18  19
ENDBRANCH  17  18
ENDBRANCH   4  17
BRANCH  12  25
HETATM   25  N   UNK N   1      25.303  24.647  -6.481  0.00  0.00    -0.303 N 
HETATM   26  C   UNK N   1      25.531  24.321  -7.773  0.00  0.00     0.365 C 
HETATM   27  O   UNK N   1      26.169  25.060  -8.511  0.00  0.00    -0.238 OA
HETATM   28  H   UNK N   1      24.778  23.993  -5.963  0.00  0.00     0.171 HD
BRANCH  26  29
HETATM   29  O   UNK N   1      25.029  23.148  -8.226  0.00  0.00    -0.304 OA
BRANCH  29  30
HETATM   30  C   UNK N   1      25.511  21.914  -7.869  0.00  0.00     0.176 C 
HETATM   31  C   UNK N   1      24.503  21.250  -6.954  0.00  0.00     0.034 C 
ENDBRANCH  29  30
ENDBRANCH  26  29
ENDBRANCH  12  25
TORSDOF 6
ENDMDL
MODEL 3
REMARK VINA RESULT:      -7.0     13.269     14.905
REMARK  6 active torsions:
REMARK  status: ('A' for Active; 'I' for Inactive)
REMARK    1  A    between atoms: O_4  and  C_28 
REMARK    2  A    between atoms: O_4  and  C_29 
REMARK    3  A    between atoms: N_6  and  C_9 
REMARK       I    between atoms: N_7  and  C_15 
REMARK    4  A    between atoms: N_8  and  C_23 
REMARK       I    between atoms: N_8  and  C_28 
REMARK    5  A    between atoms: C_9  and  C_12 
REMARK    6  A    between atoms: C_12  and  C_15 
ROOT
HETATM    1  S   UNK N   1      25.685  24.637  -7.737  0.00  0.00    -0.086 SA
HETATM    2  O   UNK N   1      28.801  24.647  -3.325  0.00  0.00    -0.273 OA
HETATM    3  N   UNK N   1      27.839  24.106  -5.339  0.00  0.00    -0.280 N 
HETATM    4  C   UNK N   1      28.744  23.879  -4.276  0.00  0.00     0.230 C 
HETATM    5  C   UNK N   1      26.956  25.274  -5.290  0.00  0.00     0.062 A 
HETATM    6  C   UNK N   1      27.779  23.180  -6.475  0.00  0.00     0.059 A 
HETATM    7  C   UNK N   1      25.991  25.595  -6.280  0.00  0.00     0.033 A 
HETATM    8  C   UNK N   1      26.876  23.334  -7.562  0.00  0.00     0.033 A 
HETATM    9  C   UNK N   1      27.036  26.160  -4.202  0.00  0.00     0.061 A 
HETATM   10  C   UNK N   1      28.644  22.067  -6.538  0.00  0.00     0.031 A 
HETATM   11  C   UNK N   1      25.186  26.743  -6.138  0.00  0.00     0.023 A 
HETATM   12  C   UNK N   1      26.250  27.287  -4.053  0.00  0.00     0.039 A 
HETATM   13  C   UNK N   1      26.875  22.405  -8.615  0.00  0.00     0.021 A 
HETATM   14  C   UNK N   1      25.310  27.590  -5.033  0.00  0.00     0.031 A 
HETATM   15  C   UNK N   1      28.635  21.152  -7.585  0.00  0.00     0.002 A 
HETATM   16  C   UNK N   1      27.744  21.322  -8.630  0.00  0.00     0.002 A 
ENDROOT
BRANCH   4  17
HETATM   17  C   UNK N   1      29.688  22.714  -4.191  0.00  0.00     0.134 C 
BRANCH  17  18
HETATM   18  C   UNK N   1      31.125  23.226  -4.206  0.00  0.00     0.282 C 
BRANCH  18  19
HETATM   19  N   UNK N   1      32.132  22.175  -4.048  0.00  0.00     0.093 N 
HETATM   20  C   UNK N   1      33.364  22.445  -4.808  0.00  0.00     0.298 C 
HETATM   21  C   UNK N   1      33.382  21.702  -6.145  0.00  0.00     0.198 C 
HETATM   22  O   UNK N   1      33.155  20.338  -5.918  0.00  0.00    -0.388 OA
HETATM   23  C   UNK N   1      31.798  20.247  -5.583  0.00  0.00     0.198 C 
HETATM   24  C   UNK N   1      31.589  20.810  -4.175  0.00  0.00     0.298 C 
ENDBRANCH  18  19
ENDBRANCH  17  18
ENDBRANCH   4  17
BRANCH  12  25
HETATM   25  N   UNK N   1      26.461  28.066  -2.885  0.00  0.00    -0.303 N 
HETATM   26  C   UNK N   1      27.459  28.938  -2.615  0.00  0.00     0.365 C 
HETATM   27  O   UNK N   1      28.353  29.150  -3.424  0.00  0.00    -0.238 OA
HETATM   28  H   UNK N   1      25.788  27.957  -2.174  0.00  0.00     0.171 HD
BRANCH  26  29
HETATM   29  O   UNK N   1      27.439  29.568  -1.417  0.00  0.00    -0.304 OA
BRANCH  29  30
HETATM   30  C   UNK N   1      28.563  29.938  -0.722  0.00  0.00     0.176 C 
HETATM   31  C   UNK N   1      28.188  30.123   0.735  0.00  0.00     0.034 C 
ENDBRANCH  29  30
ENDBRANCH  26  29
ENDBRANCH  12  25
TORSDOF 6
ENDMDL
MODEL 4
REMARK VINA RESULT:      -6.9      6.672     10.557
REMARK  6 active torsions:
REMARK  status: ('A' for Active; 'I' for Inactive)
REMARK    1  A    between atoms: O_4  and  C_28 
REMARK    2  A    between atoms: O_4  and  C_29 
REMARK    3  A    between atoms: N_6  and  C_9 
REMARK       I    between atoms: N_7  and  C_15 
REMARK    4  A    between atoms: N_8  and  C_23 
REMARK       I    between atoms: N_8  and  C_28 
REMARK    5  A    between atoms: C_9  and  C_12 
REMARK    6  A    between atoms: C_12  and  C_15 
ROOT
HETATM    1  S   UNK N   1      34.243  13.154   5.472  0.00  0.00    -0.086 SA
HETATM    2  O   UNK N   1      33.343  16.529   9.593  0.00  0.00    -0.273 OA
HETATM    3  N   UNK N   1      33.536  15.623   7.491  0.00  0.00    -0.280 N 
HETATM    4  C   UNK N   1      33.262  16.687   8.383  0.00  0.00     0.230 C 
HETATM    5  C   UNK N   1      33.929  14.319   8.032  0.00  0.00     0.062 A 
HETATM    6  C   UNK N   1      33.434  15.823   6.042  0.00  0.00     0.059 A 
HETATM    7  C   UNK N   1      34.252  13.185   7.242  0.00  0.00     0.033 A 
HETATM    8  C   UNK N   1      33.720  14.806   5.090  0.00  0.00     0.033 A 
HETATM    9  C   UNK N   1      34.007  14.140   9.424  0.00  0.00     0.061 A 
HETATM   10  C   UNK N   1      33.033  17.070   5.517  0.00  0.00     0.031 A 
HETATM   11  C   UNK N   1      34.623  11.975   7.860  0.00  0.00     0.023 A 
HETATM   12  C   UNK N   1      34.371  12.958  10.040  0.00  0.00     0.039 A 
HETATM   13  C   UNK N   1      33.603  15.072   3.717  0.00  0.00     0.021 A 
HETATM   14  C   UNK N   1      34.683  11.853   9.252  0.00  0.00     0.031 A 
HETATM   15  C   UNK N   1      32.920  17.324   4.155  0.00  0.00     0.002 A 
HETATM   16  C   UNK N   1      33.207  16.318   3.249  0.00  0.00     0.002 A 
ENDROOT
BRANCH   4  17
HETATM   17  C   UNK N   1      32.869  18.074   7.962  0.00  0.00     0.134 C 
BRANCH  17  18
HETATM   18  C   UNK N   1      31.487  18.399   8.520  0.00  0.00     0.282 C 
BRANCH  18  19
HETATM   19  N   UNK N   1      30.523  17.304   8.391  0.00  0.00     0.093 N 
HETATM   20  C   UNK N   1      29.878  17.263   7.068  0.00  0.00     0.298 C 
HETATM   21  C   UNK N   1      28.503  17.933   7.084  0.00  0.00     0.198 C 
HETATM   22  O   UNK N   1      27.725  17.365   8.100  0.00  0.00    -0.388 OA
HETATM   23  C   UNK N   1      28.272  17.855   9.293  0.00  0.00     0.198 C 
HETATM   24  C   UNK N   1      29.617  17.171   9.547  0.00  0.00     0.298 C 
ENDBRANCH  18  19
ENDBRANCH  17  18
ENDBRANCH   4  17
BRANCH  12  25
HETATM   25  N   UNK N   1      34.404  12.957  11.459  0.00  0.00    -0.303 N 
HETATM   26  C   UNK N   1      35.303  13.535  12.288  0.00  0.00     0.365 C 
HETATM   27  O   UNK N   1      36.257  14.165  11.850  0.00  0.00    -0.238 OA
HETATM   28  H   UNK N   1      33.671  12.468  11.900  0.00  0.00     0.171 HD
BRANCH  26  29
HETATM   29  O   UNK N   1      35.115  13.393  13.621  0.00  0.00    -0.304 OA
BRANCH  29  30
HETATM   30  C   UNK N   1      36.131  13.284  14.536  0.00  0.00     0.176 C 
HETATM   31  C   UNK N   1      35.525  13.224  15.924  0.00  0.00     0.034 C 
ENDBRANCH  29  30
ENDBRANCH  26  29
ENDBRANCH  12  25
TORSDOF 6
ENDMDL
MODEL 5
REMARK VINA RESULT:      -6.8      1.824      7.337
REMARK  6 active torsions:
REMARK  status: ('A' for Active; 'I' for Inactive)
REMARK    1  A    between atoms: O_4  and  C_28 
REMARK    2  A    between atoms: O_4  and  C_29 
REMARK    3  A    between atoms: N_6  and  C_9 
REMARK       I    between atoms: N_7  and  C_15 
REMARK    4  A    between atoms: N_8  and  C_23 
REMARK       I    between atoms: N_8  and  C_28 
REMARK    5  A    between atoms: C_9  and  C_12 
REMARK    6  A    between atoms: C_12  and  C_15 
ROOT
HETATM    1  S   UNK N   1      21.494  18.848   4.223  0.00  0.00    -0.086 SA
HETATM    2  O   UNK N   1      25.241  15.613   6.386  0.00  0.00    -0.273 OA
HETATM    3  N   UNK N   1      24.185  17.283   5.214  0.00  0.00    -0.280 N 
HETATM    4  C   UNK N   1      25.334  16.573   5.633  0.00  0.00     0.230 C 
HETATM    5  C   UNK N   1      22.866  16.852   5.686  0.00  0.00     0.062 A 
HETATM    6  C   UNK N   1      24.309  18.434   4.314  0.00  0.00     0.059 A 
HETATM    7  C   UNK N   1      21.640  17.465   5.317  0.00  0.00     0.033 A 
HETATM    8  C   UNK N   1      23.194  19.175   3.834  0.00  0.00     0.033 A 
HETATM    9  C   UNK N   1      22.766  15.756   6.560  0.00  0.00     0.061 A 
HETATM   10  C   UNK N   1      25.579  18.868   3.877  0.00  0.00     0.031 A 
HETATM   11  C   UNK N   1      20.422  16.971   5.824  0.00  0.00     0.023 A 
HETATM   12  C   UNK N   1      21.576  15.263   7.061  0.00  0.00     0.039 A 
HETATM   13  C   UNK N   1      23.390  20.265   2.971  0.00  0.00     0.021 A 
HETATM   14  C   UNK N   1      20.382  15.876   6.693  0.00  0.00     0.031 A 
HETATM   15  C   UNK N   1      25.762  19.949   3.022  0.00  0.00     0.002 A 
HETATM   16  C   UNK N   1      24.661  20.652   2.566  0.00  0.00     0.002 A 
ENDROOT
BRANCH   4  17
HETATM   17  C   UNK N   1      26.739  16.897   5.211  0.00  0.00     0.134 C 
BRANCH  17  18
HETATM   18  C   UNK N   1      27.678  16.720   6.401  0.00  0.00     0.282 C 
BRANCH  18  19
HETATM   19  N   UNK N   1      28.726  17.739   6.487  0.00  0.00     0.093 N 
HETATM   20  C   UNK N   1      30.006  17.293   5.911  0.00  0.00     0.298 C 
HETATM   21  C   UNK N   1      30.969  16.789   6.986  0.00  0.00     0.198 C 
HETATM   22  O   UNK N   1      31.116  17.773   7.972  0.00  0.00    -0.388 OA
HETATM   23  C   UNK N   1      29.905  17.764   8.677  0.00  0.00     0.198 C 
HETATM   24  C   UNK N   1      28.813  18.391   7.806  0.00  0.00     0.298 C 
ENDBRANCH  18  19
ENDBRANCH  17  18
ENDBRANCH   4  17
BRANCH  12  25
HETATM   25  N   UNK N   1      21.660  14.143   7.929  0.00  0.00    -0.303 N 
HETATM   26  C   UNK N   1      21.179  12.892   7.749  0.00  0.00     0.365 C 
HETATM   27  O   UNK N   1      20.571  12.585   6.732  0.00  0.00    -0.238 OA
HETATM   28  H   UNK N   1      22.134  14.299   8.779  0.00  0.00     0.171 HD
BRANCH  26  29
HETATM   29  O   UNK N   1      21.392  11.987   8.733  0.00  0.00    -0.304 OA
BRANCH  29  30
HETATM   30  C   UNK N   1      22.285  12.160   9.760  0.00  0.00     0.176 C 
HETATM   31  C   UNK N   1      21.513  12.243  11.062  0.00  0.00     0.034 C 
ENDBRANCH  29  30
ENDBRANCH  26  29
ENDBRANCH  12  25
TORSDOF 6
ENDMDL
MODEL 6
REMARK VINA RESULT:      -6.6      7.397     13.516
REMARK  6 active torsions:
REMARK  status: ('A' for Active; 'I' for Inactive)
REMARK    1  A    between atoms: O_4  and  C_28 
REMARK    2  A    between atoms: O_4  and  C_29 
REMARK    3  A    between atoms: N_6  and  C_9 
REMARK       I    between atoms: N_7  and  C_15 
REMARK    4  A    between atoms: N_8  and  C_23 
REMARK       I    between atoms: N_8  and  C_28 
REMARK    5  A    between atoms: C_9  and  C_12 
REMARK    6  A    between atoms: C_12  and  C_15 
ROOT
HETATM    1  S   UNK N   1      36.557  14.178   6.204  0.00  0.00    -0.086 SA
HETATM    2  O   UNK N   1      34.572  15.652  11.006  0.00  0.00    -0.273 OA
HETATM    3  N   UNK N   1      35.816  14.662   9.348  0.00  0.00    -0.280 N 
HETATM    4  C   UNK N   1      35.459  14.866  10.701  0.00  0.00     0.230 C 
HETATM    5  C   UNK N   1      35.105  15.401   8.301  0.00  0.00     0.062 A 
HETATM    6  C   UNK N   1      36.881  13.719   8.994  0.00  0.00     0.059 A 
HETATM    7  C   UNK N   1      35.353  15.265   6.911  0.00  0.00     0.033 A 
HETATM    8  C   UNK N   1      37.272  13.447   7.654  0.00  0.00     0.033 A 
HETATM    9  C   UNK N   1      34.097  16.313   8.658  0.00  0.00     0.061 A 
HETATM   10  C   UNK N   1      37.585  13.023  10.000  0.00  0.00     0.031 A 
HETATM   11  C   UNK N   1      34.610  16.020   5.982  0.00  0.00     0.023 A 
HETATM   12  C   UNK N   1      33.361  17.057   7.755  0.00  0.00     0.039 A 
HETATM   13  C   UNK N   1      38.300  12.528   7.392  0.00  0.00     0.021 A 
HETATM   14  C   UNK N   1      33.618  16.915   6.394  0.00  0.00     0.031 A 
HETATM   15  C   UNK N   1      38.602  12.114   9.730  0.00  0.00     0.002 A 
HETATM   16  C   UNK N   1      38.962  11.865   8.417  0.00  0.00     0.002 A 
ENDROOT
BRANCH   4  17
HETATM   17  C   UNK N   1      36.092  14.161  11.867  0.00  0.00     0.134 C 
BRANCH  17  18
HETATM   18  C   UNK N   1      35.049  13.284  12.554  0.00  0.00     0.282 C 
BRANCH  18  19
HETATM   19  N   UNK N   1      35.593  12.437  13.617  0.00  0.00     0.093 N 
HETATM   20  C   UNK N   1      34.573  12.021  14.596  0.00  0.00     0.298 C 
HETATM   21  C   UNK N   1      34.591  12.905  15.844  0.00  0.00     0.198 C 
HETATM   22  O   UNK N   1      35.888  12.934  16.371  0.00  0.00    -0.388 OA
HETATM   23  C   UNK N   1      36.625  13.724  15.478  0.00  0.00     0.198 C 
HETATM   24  C   UNK N   1      36.858  12.937  14.186  0.00  0.00     0.298 C 
ENDBRANCH  18  19
ENDBRANCH  17  18
ENDBRANCH   4  17
BRANCH  12  25
HETATM   25  N   UNK N   1      32.375  17.926   8.292  0.00  0.00    -0.303 N 
HETATM   26  C   UNK N   1      31.133  17.629   8.738  0.00  0.00     0.365 C 
HETATM   27  O   UNK N   1      30.708  16.481   8.716  0.00  0.00    -0.238 OA
HETATM   28  H   UNK N   1      32.631  18.876   8.346  0.00  0.00     0.171 HD
BRANCH  26  29
HETATM   29  O   UNK N   1      30.374  18.644   9.212  0.00  0.00    -0.304 OA
BRANCH  29  30
HETATM   30  C   UNK N   1      29.018  18.566   9.408  0.00  0.00     0.176 C 
HETATM   31  C   UNK N   1      28.323  18.866   8.095  0.00  0.00     0.034 C 
ENDBRANCH  29  30
ENDBRANCH  26  29
ENDBRANCH  12  25
TORSDOF 6
ENDMDL
MODEL 7
REMARK VINA RESULT:      -6.6      1.544      2.024
REMARK  6 active torsions:
REMARK  status: ('A' for Active; 'I' for Inactive)
REMARK    1  A    between atoms: O_4  and  C_28 
REMARK    2  A    between atoms: O_4  and  C_29 
REMARK    3  A    between atoms: N_6  and  C_9 
REMARK       I    between atoms: N_7  and  C_15 
REMARK    4  A    between atoms: N_8  and  C_23 
REMARK       I    between atoms: N_8  and  C_28 
REMARK    5  A    between atoms: C_9  and  C_12 
REMARK    6  A    between atoms: C_12  and  C_15 
ROOT
HETATM    1  S   UNK N   1      24.230  20.759   2.883  0.00  0.00    -0.086 SA
HETATM    2  O   UNK N   1      24.611  16.311   5.924  0.00  0.00    -0.273 OA
HETATM    3  N   UNK N   1      23.819  18.001   4.585  0.00  0.00    -0.280 N 
HETATM    4  C   UNK N   1      23.659  16.823   5.351  0.00  0.00     0.230 C 
HETATM    5  C   UNK N   1      25.146  18.616   4.487  0.00  0.00     0.062 A 
HETATM    6  C   UNK N   1      22.672  18.605   3.901  0.00  0.00     0.059 A 
HETATM    7  C   UNK N   1      25.429  19.808   3.772  0.00  0.00     0.033 A 
HETATM    8  C   UNK N   1      22.758  19.802   3.137  0.00  0.00     0.033 A 
HETATM    9  C   UNK N   1      26.239  18.016   5.137  0.00  0.00     0.061 A 
HETATM   10  C   UNK N   1      21.397  18.004   3.972  0.00  0.00     0.031 A 
HETATM   11  C   UNK N   1      26.741  20.321   3.742  0.00  0.00     0.023 A 
HETATM   12  C   UNK N   1      27.528  18.512   5.115  0.00  0.00     0.039 A 
HETATM   13  C   UNK N   1      21.614  20.323   2.511  0.00  0.00     0.021 A 
HETATM   14  C   UNK N   1      27.791  19.681   4.408  0.00  0.00     0.031 A 
HETATM   15  C   UNK N   1      20.270  18.528   3.349  0.00  0.00     0.002 A 
HETATM   16  C   UNK N   1      20.380  19.695   2.614  0.00  0.00     0.002 A 
ENDROOT
BRANCH   4  17
HETATM   17  C   UNK N   1      22.354  16.104   5.549  0.00  0.00     0.134 C 
BRANCH  17  18
HETATM   18  C   UNK N   1      22.555  14.958   6.536  0.00  0.00     0.282 C 
BRANCH  18  19
HETATM   19  N   UNK N   1      21.311  14.301   6.944  0.00  0.00     0.093 N 
HETATM   20  C   UNK N   1      21.542  13.071   7.721  0.00  0.00     0.298 C 
HETATM   21  C   UNK N   1      21.442  11.820   6.846  0.00  0.00     0.198 C 
HETATM   22  O   UNK N   1      20.217  11.828   6.167  0.00  0.00    -0.388 OA
HETATM   23  C   UNK N   1      20.350  12.823   5.190  0.00  0.00     0.198 C 
HETATM   24  C   UNK N   1      20.313  14.197   5.864  0.00  0.00     0.298 C 
ENDBRANCH  18  19
ENDBRANCH  17  18
ENDBRANCH   4  17
BRANCH  12  25
HETATM   25  N   UNK N   1      28.509  17.779   5.834  0.00  0.00    -0.303 N 
HETATM   26  C   UNK N   1      29.509  17.004   5.356  0.00  0.00     0.365 C 
HETATM   27  O   UNK N   1      29.672  16.849   4.153  0.00  0.00    -0.238 OA
HETATM   28  H   UNK N   1      28.453  17.844   6.816  0.00  0.00     0.171 HD
BRANCH  26  29
HETATM   29  O   UNK N   1      30.327  16.405   6.254  0.00  0.00    -0.304 OA
BRANCH  29  30
HETATM   30  C   UNK N   1      31.554  16.892   6.624  0.00  0.00     0.176 C 
HETATM   31  C   UNK N   1      31.452  17.433   8.036  0.00  0.00     0.034 C 
ENDBRANCH  29  30
ENDBRANCH  26  29
ENDBRANCH  12  25
TORSDOF 6
ENDMDL
MODEL 8
REMARK VINA RESULT:      -6.5      2.847      3.434
REMARK  6 active torsions:
REMARK  status: ('A' for Active; 'I' for Inactive)
REMARK    1  A    between atoms: O_4  and  C_28 
REMARK    2  A    between atoms: O_4  and  C_29 
REMARK    3  A    between atoms: N_6  and  C_9 
REMARK       I    between atoms: N_7  and  C_15 
REMARK    4  A    between atoms: N_8  and  C_23 
REMARK       I    between atoms: N_8  and  C_28 
REMARK    5  A    between atoms: C_9  and  C_12 
REMARK    6  A    between atoms: C_12  and  C_15 
ROOT
HETATM    1  S   UNK N   1      24.194  14.178   0.961  0.00  0.00    -0.086 SA
HETATM    2  O   UNK N   1      23.434  17.568   5.097  0.00  0.00    -0.273 OA
HETATM    3  N   UNK N   1      23.096  16.099   3.363  0.00  0.00    -0.280 N 
HETATM    4  C   UNK N   1      22.642  16.959   4.391  0.00  0.00     0.230 C 
HETATM    5  C   UNK N   1      24.536  15.947   3.142  0.00  0.00     0.062 A 
HETATM    6  C   UNK N   1      22.138  15.372   2.525  0.00  0.00     0.059 A 
HETATM    7  C   UNK N   1      25.113  15.136   2.130  0.00  0.00     0.033 A 
HETATM    8  C   UNK N   1      22.525  14.514   1.459  0.00  0.00     0.033 A 
HETATM    9  C   UNK N   1      25.442  16.639   3.964  0.00  0.00     0.061 A 
HETATM   10  C   UNK N   1      20.749  15.497   2.750  0.00  0.00     0.031 A 
HETATM   11  C   UNK N   1      26.514  15.060   1.998  0.00  0.00     0.023 A 
HETATM   12  C   UNK N   1      26.817  16.573   3.841  0.00  0.00     0.039 A 
HETATM   13  C   UNK N   1      21.549  13.852   0.697  0.00  0.00     0.021 A 
HETATM   14  C   UNK N   1      27.368  15.771   2.846  0.00  0.00     0.031 A 
HETATM   15  C   UNK N   1      19.791  14.837   1.989  0.00  0.00     0.002 A 
HETATM   16  C   UNK N   1      20.193  14.010   0.955  0.00  0.00     0.002 A 
ENDROOT
BRANCH   4  17
HETATM   17  C   UNK N   1      21.197  17.219   4.711  0.00  0.00     0.134 C 
BRANCH  17  18
HETATM   18  C   UNK N   1      20.985  17.103   6.218  0.00  0.00     0.282 C 
BRANCH  18  19
HETATM   19  N   UNK N   1      19.991  16.098   6.601  0.00  0.00     0.093 N 
HETATM   20  C   UNK N   1      19.450  16.316   7.954  0.00  0.00     0.298 C 
HETATM   21  C   UNK N   1      20.148  15.437   8.993  0.00  0.00     0.198 C 
HETATM   22  O   UNK N   1      20.092  14.100   8.580  0.00  0.00    -0.388 OA
HETATM   23  C   UNK N   1      20.994  14.012   7.511  0.00  0.00     0.198 C 
HETATM   24  C   UNK N   1      20.395  14.715   6.290  0.00  0.00     0.298 C 
ENDBRANCH  18  19
ENDBRANCH  17  18
ENDBRANCH   4  17
BRANCH  12  25
HETATM   25  N   UNK N   1      27.581  17.345   4.755  0.00  0.00    -0.303 N 
HETATM   26  C   UNK N   1      27.795  17.133   6.073  0.00  0.00     0.365 C 
HETATM   27  O   UNK N   1      27.304  16.172   6.650  0.00  0.00    -0.238 OA
HETATM   28  H   UNK N   1      28.014  18.145   4.376  0.00  0.00     0.171 HD
BRANCH  26  29
HETATM   29  O   UNK N   1      28.573  18.021   6.736  0.00  0.00    -0.304 OA
BRANCH  29  30
HETATM   30  C   UNK N   1      28.115  18.866   7.716  0.00  0.00     0.176 C 
HETATM   31  C   UNK N   1      28.390  18.233   9.065  0.00  0.00     0.034 C 
ENDBRANCH  29  30
ENDBRANCH  26  29
ENDBRANCH  12  25
TORSDOF 6
ENDMDL
MODEL 9
REMARK VINA RESULT:      -6.4      7.105     10.586
REMARK  6 active torsions:
REMARK  status: ('A' for Active; 'I' for Inactive)
REMARK    1  A    between atoms: O_4  and  C_28 
REMARK    2  A    between atoms: O_4  and  C_29 
REMARK    3  A    between atoms: N_6  and  C_9 
REMARK       I    between atoms: N_7  and  C_15 
REMARK    4  A    between atoms: N_8  and  C_23 
REMARK       I    between atoms: N_8  and  C_28 
REMARK    5  A    between atoms: C_9  and  C_12 
REMARK    6  A    between atoms: C_12  and  C_15 
ROOT
HETATM    1  S   UNK N   1      28.531  16.679   5.482  0.00  0.00    -0.086 SA
HETATM    2  O   UNK N   1      33.728  15.745   6.625  0.00  0.00    -0.273 OA
HETATM    3  N   UNK N   1      31.544  16.451   6.724  0.00  0.00    -0.280 N 
HETATM    4  C   UNK N   1      32.863  16.364   7.229  0.00  0.00     0.230 C 
HETATM    5  C   UNK N   1      31.219  15.795   5.455  0.00  0.00     0.062 A 
HETATM    6  C   UNK N   1      30.515  17.194   7.458  0.00  0.00     0.059 A 
HETATM    7  C   UNK N   1      29.943  15.831   4.834  0.00  0.00     0.033 A 
HETATM    8  C   UNK N   1      29.179  17.344   6.994  0.00  0.00     0.033 A 
HETATM    9  C   UNK N   1      32.213  15.073   4.772  0.00  0.00     0.061 A 
HETATM   10  C   UNK N   1      30.817  17.808   8.693  0.00  0.00     0.031 A 
HETATM   11  C   UNK N   1      29.733  15.168   3.609  0.00  0.00     0.023 A 
HETATM   12  C   UNK N   1      32.018  14.422   3.569  0.00  0.00     0.039 A 
HETATM   13  C   UNK N   1      28.247  18.073   7.751  0.00  0.00     0.021 A 
HETATM   14  C   UNK N   1      30.761  14.464   2.973  0.00  0.00     0.031 A 
HETATM   15  C   UNK N   1      29.888  18.528   9.434  0.00  0.00     0.002 A 
HETATM   16  C   UNK N   1      28.595  18.662   8.960  0.00  0.00     0.002 A 
ENDROOT
BRANCH   4  17
HETATM   17  C   UNK N   1      33.333  17.004   8.504  0.00  0.00     0.134 C 
BRANCH  17  18
HETATM   18  C   UNK N   1      33.776  15.918   9.481  0.00  0.00     0.282 C 
BRANCH  18  19
HETATM   19  N   UNK N   1      35.215  15.913   9.750  0.00  0.00     0.093 N 
HETATM   20  C   UNK N   1      35.891  14.712   9.230  0.00  0.00     0.298 C 
HETATM   21  C   UNK N   1      36.092  13.657  10.320  0.00  0.00     0.198 C 
HETATM   22  O   UNK N   1      36.752  14.239  11.409  0.00  0.00    -0.388 OA
HETATM   23  C   UNK N   1      35.795  15.064  12.015  0.00  0.00     0.198 C 
HETATM   24  C   UNK N   1      35.561  16.293  11.132  0.00  0.00     0.298 C 
ENDBRANCH  18  19
ENDBRANCH  17  18
ENDBRANCH   4  17
BRANCH  12  25
HETATM   25  N   UNK N   1      33.138  13.747   3.016  0.00  0.00    -0.303 N 
HETATM   26  C   UNK N   1      34.116  14.235   2.220  0.00  0.00     0.365 C 
HETATM   27  O   UNK N   1      34.124  15.409   1.871  0.00  0.00    -0.238 OA
HETATM   28  H   UNK N   1      33.211  12.791   3.242  0.00  0.00     0.171 HD
BRANCH  26  29
HETATM   29  O   UNK N   1      35.088  13.383   1.819  0.00  0.00    -0.304 OA
BRANCH  29  30
HETATM   30  C   UNK N   1      35.974  13.646   0.806  0.00  0.00     0.176 C 
HETATM   31  C   UNK N   1      35.358  13.194  -0.503  0.00  0.00     0.034 C 
ENDBRANCH  29  30
ENDBRANCH  26  29
ENDBRANCH  12  25
TORSDOF 6
ENDMDL
