MODEL 1
REMARK VINA RESULT:      -7.6      0.000      0.000
REMARK  1 active torsions:
REMARK  status: ('A' for Active; 'I' for Inactive)
REMARK    1  A    between atoms: C_12  and  C_17 
ROOT
HETATM    1 Cl   UNK N   1      27.868  17.928   9.402  0.00  0.00    -0.084 Cl
HETATM    2  N   UNK N   1      31.619  16.882   4.822  0.00  0.00    -0.301 N 
HETATM    3  N   UNK N   1      29.038  17.014   3.176  0.00  0.00    -0.383 N 
ATOM      4  HN  UNK N   1      28.602  17.303   2.301  1.00  0.00     0.160 HD
HETATM    5  N   UNK N   1      33.570  16.710   3.724  0.00  0.00    -0.354 N 
ATOM      6  HN  UNK N   1      34.569  16.738   3.519  1.00  0.00     0.166 HD
HETATM    7  C   UNK N   1      30.642  17.088   5.871  0.00  0.00     0.053 A 
HETATM    8  C   UNK N   1      31.383  16.489   3.567  0.00  0.00     0.051 A 
HETATM    9  C   UNK N   1      29.249  17.395   5.626  0.00  0.00     0.020 A 
HETATM   10  C   UNK N   1      30.082  16.038   3.068  0.00  0.00     0.179 C 
HETATM   11  C   UNK N   1      28.583  17.570   4.251  0.00  0.00     0.054 C 
HETATM   12  C   UNK N   1      32.970  16.995   4.897  0.00  0.00     0.084 A 
HETATM   13  C   UNK N   1      32.573  16.380   2.881  0.00  0.00     0.116 A 
HETATM   14  C   UNK N   1      31.103  17.056   7.201  0.00  0.00     0.032 A 
HETATM   15  C   UNK N   1      28.445  17.638   6.756  0.00  0.00     0.040 A 
HETATM   16  C   UNK N   1      33.749  17.386   6.109  0.00  0.00     0.089 C 
HETATM   17  C   UNK N   1      30.265  17.296   8.281  0.00  0.00     0.026 A 
HETATM   18  C   UNK N   1      28.933  17.588   8.056  0.00  0.00     0.035 A 
ENDROOT
BRANCH  11  19
HETATM   19  C   UNK N   1      27.273  18.339   4.090  0.00  0.00     0.030 A 
HETATM   20  C   UNK N   1      27.234  19.759   4.183  0.00  0.00     0.128 A 
HETATM   21  F   UNK N   1      28.346  20.486   4.452  0.00  0.00    -0.205 F 
HETATM   22  C   UNK N   1      26.034  20.452   3.983  0.00  0.00     0.043 A 
HETATM   23  C   UNK N   1      24.859  19.764   3.691  0.00  0.00     0.003 A 
HETATM   24  C   UNK N   1      24.872  18.375   3.610  0.00  0.00     0.001 A 
HETATM   25  C   UNK N   1      26.063  17.676   3.809  0.00  0.00     0.017 A 
ENDBRANCH  11  19
TORSDOF 1
ENDMDL
MODEL 2
REMARK VINA RESULT:      -7.2      3.200      6.832
REMARK  1 active torsions:
REMARK  status: ('A' for Active; 'I' for Inactive)
REMARK    1  A    between atoms: C_12  and  C_17 
ROOT
HETATM    1 Cl   UNK N   1      31.706  14.453   3.740  0.00  0.00    -0.084 Cl
HETATM    2  N   UNK N   1      28.283  18.808   6.076  0.00  0.00    -0.301 N 
HETATM    3  N   UNK N   1      29.953  18.252   8.583  0.00  0.00    -0.383 N 
ATOM      4  HN  UNK N   1      30.411  18.647   9.404  1.00  0.00     0.160 HD
HETATM    5  N   UNK N   1      26.850  20.537   6.116  0.00  0.00    -0.354 N 
ATOM      6  HN  UNK N   1      26.224  21.280   5.807  1.00  0.00     0.166 HD
HETATM    7  C   UNK N   1      29.116  17.721   5.607  0.00  0.00     0.053 A 
HETATM    8  C   UNK N   1      28.071  19.173   7.343  0.00  0.00     0.051 A 
HETATM    9  C   UNK N   1      30.230  17.179   6.355  0.00  0.00     0.020 A 
HETATM   10  C   UNK N   1      28.531  18.421   8.512  0.00  0.00     0.179 C 
HETATM   11  C   UNK N   1      30.723  17.659   7.731  0.00  0.00     0.054 C 
HETATM   12  C   UNK N   1      27.510  19.651   5.343  0.00  0.00     0.084 A 
HETATM   13  C   UNK N   1      27.193  20.234   7.383  0.00  0.00     0.116 A 
HETATM   14  C   UNK N   1      28.862  17.219   4.316  0.00  0.00     0.032 A 
HETATM   15  C   UNK N   1      30.986  16.170   5.727  0.00  0.00     0.040 A 
HETATM   16  C   UNK N   1      27.371  19.642   3.857  0.00  0.00     0.089 C 
HETATM   17  C   UNK N   1      29.634  16.217   3.746  0.00  0.00     0.026 A 
HETATM   18  C   UNK N   1      30.699  15.693   4.455  0.00  0.00     0.035 A 
ENDROOT
BRANCH  11  19
HETATM   19  C   UNK N   1      32.142  17.371   8.215  0.00  0.00     0.030 A 
HETATM   20  C   UNK N   1      32.454  16.172   8.917  0.00  0.00     0.128 A 
HETATM   21  F   UNK N   1      31.503  15.253   9.214  0.00  0.00    -0.205 F 
HETATM   22  C   UNK N   1      33.770  15.900   9.310  0.00  0.00     0.043 A 
HETATM   23  C   UNK N   1      34.796  16.798   9.024  0.00  0.00     0.003 A 
HETATM   24  C   UNK N   1      34.510  17.983   8.352  0.00  0.00     0.001 A 
HETATM   25  C   UNK N   1      33.201  18.263   7.957  0.00  0.00     0.017 A 
ENDBRANCH  11  19
TORSDOF 1
ENDMDL
MODEL 3
REMARK VINA RESULT:      -7.1      8.725     10.690
REMARK  1 active torsions:
REMARK  status: ('A' for Active; 'I' for Inactive)
REMARK    1  A    between atoms: C_12  and  C_17 
ROOT
HETATM    1 Cl   UNK N   1      20.826  10.097   5.599  0.00  0.00    -0.084 Cl
HETATM    2  N   UNK N   1      21.190  16.093   5.833  0.00  0.00    -0.301 N 
HETATM    3  N   UNK N   1      21.173  15.596   8.856  0.00  0.00    -0.383 N 
ATOM      4  HN  UNK N   1      21.530  15.884   9.766  1.00  0.00     0.160 HD
HETATM    5  N   UNK N   1      21.525  18.191   5.104  0.00  0.00    -0.354 N 
ATOM      6  HN  UNK N   1      21.750  18.977   4.495  1.00  0.00     0.166 HD
HETATM    7  C   UNK N   1      21.055  14.652   5.867  0.00  0.00     0.053 A 
HETATM    8  C   UNK N   1      20.980  16.946   6.839  0.00  0.00     0.051 A 
HETATM    9  C   UNK N   1      21.167  13.860   7.073  0.00  0.00     0.020 A 
HETATM   10  C   UNK N   1      20.413  16.576   8.138  0.00  0.00     0.179 C 
HETATM   11  C   UNK N   1      21.459  14.390   8.486  0.00  0.00     0.054 C 
HETATM   12  C   UNK N   1      21.508  16.884   4.775  0.00  0.00     0.084 A 
HETATM   13  C   UNK N   1      21.183  18.238   6.405  0.00  0.00     0.116 A 
HETATM   14  C   UNK N   1      20.876  13.989   4.637  0.00  0.00     0.032 A 
HETATM   15  C   UNK N   1      21.083  12.462   6.924  0.00  0.00     0.040 A 
HETATM   16  C   UNK N   1      21.812  16.413   3.391  0.00  0.00     0.089 C 
HETATM   17  C   UNK N   1      20.791  12.606   4.548  0.00  0.00     0.026 A 
HETATM   18  C   UNK N   1      20.896  11.843   5.695  0.00  0.00     0.035 A 
ENDROOT
BRANCH  11  19
HETATM   19  C   UNK N   1      22.020  13.483   9.579  0.00  0.00     0.030 A 
HETATM   20  C   UNK N   1      21.173  12.909  10.570  0.00  0.00     0.128 A 
HETATM   21  F   UNK N   1      19.843  13.169  10.607  0.00  0.00    -0.205 F 
HETATM   22  C   UNK N   1      21.696  12.040  11.535  0.00  0.00     0.043 A 
HETATM   23  C   UNK N   1      23.052  11.722  11.543  0.00  0.00     0.003 A 
HETATM   24  C   UNK N   1      23.899  12.283  10.593  0.00  0.00     0.001 A 
HETATM   25  C   UNK N   1      23.388  13.152   9.628  0.00  0.00     0.017 A 
ENDBRANCH  11  19
TORSDOF 1
ENDMDL
MODEL 4
REMARK VINA RESULT:      -6.8      2.898      6.496
REMARK  1 active torsions:
REMARK  status: ('A' for Active; 'I' for Inactive)
REMARK    1  A    between atoms: C_12  and  C_17 
ROOT
HETATM    1 Cl   UNK N   1      30.055  14.097   2.807  0.00  0.00    -0.084 Cl
HETATM    2  N   UNK N   1      27.888  18.959   5.601  0.00  0.00    -0.301 N 
HETATM    3  N   UNK N   1      29.717  18.003   7.865  0.00  0.00    -0.383 N 
ATOM      4  HN  UNK N   1      30.344  18.273   8.622  1.00  0.00     0.160 HD
HETATM    5  N   UNK N   1      26.844  20.933   5.841  0.00  0.00    -0.354 N 
ATOM      6  HN  UNK N   1      26.344  21.794   5.621  1.00  0.00     0.166 HD
HETATM    7  C   UNK N   1      28.423  17.745   5.020  0.00  0.00     0.053 A 
HETATM    8  C   UNK N   1      27.914  19.315   6.888  0.00  0.00     0.051 A 
HETATM    9  C   UNK N   1      29.492  16.971   5.612  0.00  0.00     0.020 A 
HETATM   10  C   UNK N   1      28.360  18.449   7.982  0.00  0.00     0.179 C 
HETATM   11  C   UNK N   1      30.240  17.298   6.915  0.00  0.00     0.054 C 
HETATM   12  C   UNK N   1      27.212  19.961   4.982  0.00  0.00     0.084 A 
HETATM   13  C   UNK N   1      27.277  20.526   7.049  0.00  0.00     0.116 A 
HETATM   14  C   UNK N   1      27.913  17.346   3.769  0.00  0.00     0.032 A 
HETATM   15  C   UNK N   1      29.947  15.855   4.883  0.00  0.00     0.040 A 
HETATM   16  C   UNK N   1      26.888  20.028   3.526  0.00  0.00     0.089 C 
HETATM   17  C   UNK N   1      28.393  16.231   3.096  0.00  0.00     0.026 A 
HETATM   18  C   UNK N   1      29.413  15.485   3.656  0.00  0.00     0.035 A 
ENDROOT
BRANCH  11  19
HETATM   19  C   UNK N   1      31.623  16.722   7.209  0.00  0.00     0.030 A 
HETATM   20  C   UNK N   1      32.750  17.058   6.406  0.00  0.00     0.128 A 
HETATM   21  F   UNK N   1      32.638  17.873   5.328  0.00  0.00    -0.205 F 
HETATM   22  C   UNK N   1      34.020  16.561   6.719  0.00  0.00     0.043 A 
HETATM   23  C   UNK N   1      34.204  15.728   7.821  0.00  0.00     0.003 A 
HETATM   24  C   UNK N   1      33.114  15.376   8.611  0.00  0.00     0.001 A 
HETATM   25  C   UNK N   1      31.844  15.866   8.305  0.00  0.00     0.017 A 
ENDBRANCH  11  19
TORSDOF 1
ENDMDL
MODEL 5
REMARK VINA RESULT:      -6.8      2.972      6.472
REMARK  1 active torsions:
REMARK  status: ('A' for Active; 'I' for Inactive)
REMARK    1  A    between atoms: C_12  and  C_17 
ROOT
HETATM    1 Cl   UNK N   1      28.938  17.546  10.417  0.00  0.00    -0.084 Cl
HETATM    2  N   UNK N   1      31.003  17.044   4.793  0.00  0.00    -0.301 N 
HETATM    3  N   UNK N   1      33.723  16.990   6.203  0.00  0.00    -0.383 N 
ATOM      4  HN  UNK N   1      34.665  16.602   6.216  1.00  0.00     0.160 HD
HETATM    5  N   UNK N   1      30.948  16.683   2.577  0.00  0.00    -0.354 N 
ATOM      6  HN  UNK N   1      30.606  16.458   1.644  1.00  0.00     0.166 HD
HETATM    7  C   UNK N   1      30.594  17.210   6.172  0.00  0.00     0.053 A 
HETATM    8  C   UNK N   1      32.230  17.208   4.292  0.00  0.00     0.051 A 
HETATM    9  C   UNK N   1      31.491  17.082   7.300  0.00  0.00     0.020 A 
HETATM   10  C   UNK N   1      33.368  17.747   5.039  0.00  0.00     0.179 C 
HETATM   11  C   UNK N   1      32.989  16.740   7.238  0.00  0.00     0.054 C 
HETATM   12  C   UNK N   1      30.232  16.738   3.718  0.00  0.00     0.084 A 
HETATM   13  C   UNK N   1      32.211  16.988   2.932  0.00  0.00     0.116 A 
HETATM   14  C   UNK N   1      29.226  17.437   6.419  0.00  0.00     0.032 A 
HETATM   15  C   UNK N   1      30.920  17.201   8.582  0.00  0.00     0.040 A 
HETATM   16  C   UNK N   1      28.761  16.483   3.741  0.00  0.00     0.089 C 
HETATM   17  C   UNK N   1      28.716  17.555   7.705  0.00  0.00     0.026 A 
HETATM   18  C   UNK N   1      29.567  17.436   8.788  0.00  0.00     0.035 A 
ENDROOT
BRANCH  11  19
HETATM   19  C   UNK N   1      33.729  16.170   8.446  0.00  0.00     0.030 A 
HETATM   20  C   UNK N   1      33.632  14.791   8.789  0.00  0.00     0.128 A 
HETATM   21  F   UNK N   1      32.855  13.935   8.081  0.00  0.00    -0.205 F 
HETATM   22  C   UNK N   1      34.357  14.274   9.869  0.00  0.00     0.043 A 
HETATM   23  C   UNK N   1      35.183  15.099  10.628  0.00  0.00     0.003 A 
HETATM   24  C   UNK N   1      35.281  16.453  10.319  0.00  0.00     0.001 A 
HETATM   25  C   UNK N   1      34.562  16.977   9.245  0.00  0.00     0.017 A 
ENDBRANCH  11  19
TORSDOF 1
ENDMDL
MODEL 6
REMARK VINA RESULT:      -6.8      5.801      8.307
REMARK  1 active torsions:
REMARK  status: ('A' for Active; 'I' for Inactive)
REMARK    1  A    between atoms: C_12  and  C_17 
ROOT
HETATM    1 Cl   UNK N   1      36.974  13.730   4.664  0.00  0.00    -0.084 Cl
HETATM    2  N   UNK N   1      36.477  14.346  10.624  0.00  0.00    -0.301 N 
HETATM    3  N   UNK N   1      34.265  16.319   9.853  0.00  0.00    -0.383 N 
ATOM      4  HN  UNK N   1      33.349  16.701  10.084  1.00  0.00     0.160 HD
HETATM    5  N   UNK N   1      36.762  13.867  12.799  0.00  0.00    -0.354 N 
ATOM      6  HN  UNK N   1      37.050  13.390  13.653  1.00  0.00     0.166 HD
HETATM    7  C   UNK N   1      36.563  14.293   9.179  0.00  0.00     0.053 A 
HETATM    8  C   UNK N   1      35.866  15.276  11.361  0.00  0.00     0.051 A 
HETATM    9  C   UNK N   1      35.607  14.921   8.292  0.00  0.00     0.020 A 
HETATM   10  C   UNK N   1      35.295  16.516  10.830  0.00  0.00     0.179 C 
HETATM   11  C   UNK N   1      34.360  15.716   8.712  0.00  0.00     0.054 C 
HETATM   12  C   UNK N   1      37.034  13.501  11.530  0.00  0.00     0.084 A 
HETATM   13  C   UNK N   1      36.032  14.994  12.699  0.00  0.00     0.116 A 
HETATM   14  C   UNK N   1      37.599  13.522   8.618  0.00  0.00     0.032 A 
HETATM   15  C   UNK N   1      35.792  14.714   6.911  0.00  0.00     0.040 A 
HETATM   16  C   UNK N   1      37.856  12.296  11.213  0.00  0.00     0.089 C 
HETATM   17  C   UNK N   1      37.740  13.357   7.247  0.00  0.00     0.026 A 
HETATM   18  C   UNK N   1      36.833  13.955   6.393  0.00  0.00     0.035 A 
ENDROOT
BRANCH  11  19
HETATM   19  C   UNK N   1      33.187  15.926   7.758  0.00  0.00     0.030 A 
HETATM   20  C   UNK N   1      33.036  17.139   7.028  0.00  0.00     0.128 A 
HETATM   21  F   UNK N   1      33.904  18.170   7.173  0.00  0.00    -0.205 F 
HETATM   22  C   UNK N   1      31.983  17.296   6.119  0.00  0.00     0.043 A 
HETATM   23  C   UNK N   1      31.064  16.269   5.914  0.00  0.00     0.003 A 
HETATM   24  C   UNK N   1      31.185  15.081   6.628  0.00  0.00     0.001 A 
HETATM   25  C   UNK N   1      32.230  14.916   7.537  0.00  0.00     0.017 A 
ENDBRANCH  11  19
TORSDOF 1
ENDMDL
MODEL 7
REMARK VINA RESULT:      -6.7      2.311      5.739
REMARK  1 active torsions:
REMARK  status: ('A' for Active; 'I' for Inactive)
REMARK    1  A    between atoms: C_12  and  C_17 
ROOT
HETATM    1 Cl   UNK N   1      27.685  21.313   6.030  0.00  0.00    -0.084 Cl
HETATM    2  N   UNK N   1      26.756  16.089   3.204  0.00  0.00    -0.301 N 
HETATM    3  N   UNK N   1      29.790  15.814   3.522  0.00  0.00    -0.383 N 
ATOM      4  HN  UNK N   1      30.573  15.185   3.696  1.00  0.00     0.160 HD
HETATM    5  N   UNK N   1      25.612  14.343   2.373  0.00  0.00    -0.354 N 
ATOM      6  HN  UNK N   1      24.843  13.716   2.138  1.00  0.00     0.166 HD
HETATM    7  C   UNK N   1      27.073  17.348   3.845  0.00  0.00     0.053 A 
HETATM    8  C   UNK N   1      27.607  15.254   2.602  0.00  0.00     0.051 A 
HETATM    9  C   UNK N   1      28.377  17.672   4.384  0.00  0.00     0.020 A 
HETATM   10  C   UNK N   1      29.018  15.549   2.344  0.00  0.00     0.179 C 
HETATM   11  C   UNK N   1      29.613  16.758   4.389  0.00  0.00     0.054 C 
HETATM   12  C   UNK N   1      25.536  15.515   3.036  0.00  0.00     0.084 A 
HETATM   13  C   UNK N   1      26.918  14.177   2.088  0.00  0.00     0.116 A 
HETATM   14  C   UNK N   1      26.025  18.274   4.011  0.00  0.00     0.032 A 
HETATM   15  C   UNK N   1      28.502  18.911   5.041  0.00  0.00     0.040 A 
HETATM   16  C   UNK N   1      24.234  16.073   3.509  0.00  0.00     0.089 C 
HETATM   17  C   UNK N   1      26.205  19.487   4.661  0.00  0.00     0.026 A 
HETATM   18  C   UNK N   1      27.447  19.804   5.177  0.00  0.00     0.035 A 
ENDROOT
BRANCH  11  19
HETATM   19  C   UNK N   1      30.765  16.976   5.367  0.00  0.00     0.030 A 
HETATM   20  C   UNK N   1      32.046  17.404   4.916  0.00  0.00     0.128 A 
HETATM   21  F   UNK N   1      32.309  17.601   3.601  0.00  0.00    -0.205 F 
HETATM   22  C   UNK N   1      33.077  17.648   5.831  0.00  0.00     0.043 A 
HETATM   23  C   UNK N   1      32.867  17.476   7.198  0.00  0.00     0.003 A 
HETATM   24  C   UNK N   1      31.627  17.045   7.658  0.00  0.00     0.001 A 
HETATM   25  C   UNK N   1      30.594  16.798   6.753  0.00  0.00     0.017 A 
ENDBRANCH  11  19
TORSDOF 1
ENDMDL
MODEL 8
REMARK VINA RESULT:      -6.7     11.977     13.382
REMARK  1 active torsions:
REMARK  status: ('A' for Active; 'I' for Inactive)
REMARK    1  A    between atoms: C_12  and  C_17 
ROOT
HETATM    1 Cl   UNK N   1      31.083  23.927  -3.292  0.00  0.00    -0.084 Cl
HETATM    2  N   UNK N   1      27.428  21.937  -7.631  0.00  0.00    -0.301 N 
HETATM    3  N   UNK N   1      25.411  23.787  -6.255  0.00  0.00    -0.383 N 
ATOM      4  HN  UNK N   1      24.634  24.436  -6.375  1.00  0.00     0.160 HD
HETATM    5  N   UNK N   1      26.821  20.946  -9.553  0.00  0.00    -0.354 N 
ATOM      6  HN  UNK N   1      26.875  20.463 -10.449  1.00  0.00     0.166 HD
HETATM    7  C   UNK N   1      28.226  22.430  -6.527  0.00  0.00     0.053 A 
HETATM    8  C   UNK N   1      26.100  21.998  -7.755  0.00  0.00     0.051 A 
HETATM    9  C   UNK N   1      27.804  23.492  -5.639  0.00  0.00     0.020 A 
HETATM   10  C   UNK N   1      25.186  22.444  -6.701  0.00  0.00     0.179 C 
HETATM   11  C   UNK N   1      26.482  24.274  -5.718  0.00  0.00     0.054 C 
HETATM   12  C   UNK N   1      27.846  21.273  -8.740  0.00  0.00     0.084 A 
HETATM   13  C   UNK N   1      25.713  21.394  -8.931  0.00  0.00     0.116 A 
HETATM   14  C   UNK N   1      29.514  21.885  -6.365  0.00  0.00     0.032 A 
HETATM   15  C   UNK N   1      28.728  23.904  -4.660  0.00  0.00     0.040 A 
HETATM   16  C   UNK N   1      29.259  20.921  -9.068  0.00  0.00     0.089 C 
HETATM   17  C   UNK N   1      30.384  22.324  -5.376  0.00  0.00     0.026 A 
HETATM   18  C   UNK N   1      29.988  23.337  -4.523  0.00  0.00     0.035 A 
ENDROOT
BRANCH  11  19
HETATM   19  C   UNK N   1      26.328  25.648  -5.071  0.00  0.00     0.030 A 
HETATM   20  C   UNK N   1      26.131  26.818  -5.859  0.00  0.00     0.128 A 
HETATM   21  F   UNK N   1      26.108  26.769  -7.213  0.00  0.00    -0.205 F 
HETATM   22  C   UNK N   1      25.941  28.063  -5.248  0.00  0.00     0.043 A 
HETATM   23  C   UNK N   1      25.941  28.179  -3.859  0.00  0.00     0.003 A 
HETATM   24  C   UNK N   1      26.146  27.051  -3.071  0.00  0.00     0.001 A 
HETATM   25  C   UNK N   1      26.338  25.806  -3.672  0.00  0.00     0.017 A 
ENDBRANCH  11  19
TORSDOF 1
ENDMDL
MODEL 9
REMARK VINA RESULT:      -6.6      4.769      8.201
REMARK  1 active torsions:
REMARK  status: ('A' for Active; 'I' for Inactive)
REMARK    1  A    between atoms: C_12  and  C_17 
ROOT
HETATM    1 Cl   UNK N   1      24.675  14.394   7.316  0.00  0.00    -0.084 Cl
HETATM    2  N   UNK N   1      21.148  17.030   3.222  0.00  0.00    -0.301 N 
HETATM    3  N   UNK N   1      23.036  19.399   3.678  0.00  0.00    -0.383 N 
ATOM      4  HN  UNK N   1      23.527  20.188   3.258  1.00  0.00     0.160 HD
HETATM    5  N   UNK N   1      19.607  17.198   1.597  0.00  0.00    -0.354 N 
ATOM      6  HN  UNK N   1      18.910  16.944   0.897  1.00  0.00     0.166 HD
HETATM    7  C   UNK N   1      22.016  16.488   4.247  0.00  0.00     0.053 A 
HETATM    8  C   UNK N   1      21.008  18.314   2.882  0.00  0.00     0.051 A 
HETATM    9  C   UNK N   1      23.218  17.144   4.715  0.00  0.00     0.020 A 
HETATM   10  C   UNK N   1      21.605  19.436   3.608  0.00  0.00     0.179 C 
HETATM   11  C   UNK N   1      23.779  18.484   4.212  0.00  0.00     0.054 C 
HETATM   12  C   UNK N   1      20.266  16.367   2.430  0.00  0.00     0.084 A 
HETATM   13  C   UNK N   1      20.065  18.431   1.884  0.00  0.00     0.116 A 
HETATM   14  C   UNK N   1      21.700  15.213   4.756  0.00  0.00     0.032 A 
HETATM   15  C   UNK N   1      23.991  16.449   5.665  0.00  0.00     0.040 A 
HETATM   16  C   UNK N   1      20.017  14.895   2.439  0.00  0.00     0.089 C 
HETATM   17  C   UNK N   1      22.494  14.576   5.699  0.00  0.00     0.026 A 
HETATM   18  C   UNK N   1      23.643  15.197   6.154  0.00  0.00     0.035 A 
ENDROOT
BRANCH  11  19
HETATM   19  C   UNK N   1      25.247  18.858   4.404  0.00  0.00     0.030 A 
HETATM   20  C   UNK N   1      26.284  18.158   3.723  0.00  0.00     0.128 A 
HETATM   21  F   UNK N   1      26.017  17.110   2.906  0.00  0.00    -0.205 F 
HETATM   22  C   UNK N   1      27.620  18.546   3.872  0.00  0.00     0.043 A 
HETATM   23  C   UNK N   1      27.959  19.623   4.688  0.00  0.00     0.003 A 
HETATM   24  C   UNK N   1      26.963  20.312   5.373  0.00  0.00     0.001 A 
HETATM   25  C   UNK N   1      25.628  19.931   5.233  0.00  0.00     0.017 A 
ENDBRANCH  11  19
TORSDOF 1
ENDMDL
