MODEL 1
REMARK VINA RESULT:      -6.7      0.000      0.000
REMARK  16 active torsions:
REMARK  status: ('A' for Active; 'I' for Inactive)
REMARK    1  A    between atoms: S_1  and  O_8 
REMARK    2  A    between atoms: S_1  and  O_14 
REMARK    3  A    between atoms: S_2  and  O_9 
REMARK    4  A    between atoms: S_2  and  O_15 
REMARK    5  A    between atoms: S_3  and  O_10 
REMARK    6  A    between atoms: S_3  and  O_16 
REMARK    7  A    between atoms: S_4  and  O_11 
REMARK    8  A    between atoms: S_4  and  O_17 
REMARK    9  A    between atoms: C_26  and  O_5 
REMARK   10  A    between atoms: C_29  and  O_5 
REMARK   11  A    between atoms: C_27  and  O_8 
REMARK   12  A    between atoms: C_28  and  O_9 
REMARK   13  A    between atoms: C_30  and  O_10 
REMARK   14  A    between atoms: C_31  and  O_11 
REMARK   15  A    between atoms: C_32  and  O_12 
REMARK   16  A    between atoms: C_34  and  O_13 
ROOT
HETATM    1  O   UNK N   1      31.917  15.237   6.586  0.00  0.00    -0.348 OA
ENDROOT
BRANCH   1   2
HETATM    2  C   UNK N   1      33.280  14.961   6.761  0.00  0.00     0.181 C 
HETATM    3  C   UNK N   1      33.729  15.429   8.153  0.00  0.00     0.210 C 
HETATM    4  C   UNK N   1      33.985  14.253   9.104  0.00  0.00     0.232 C 
HETATM    5  C   UNK N   1      32.970  13.114   8.896  0.00  0.00     0.289 C 
HETATM    6  O   UNK N   1      32.708  12.748   7.540  0.00  0.00    -0.356 OA
HETATM    7  C   UNK N   1      33.517  13.452   6.623  0.00  0.00     0.205 C 
BRANCH   3   8
HETATM    8  O   UNK N   1      34.901  16.183   8.030  0.00  0.00    -0.253 OA
BRANCH   8   9
HETATM    9  S   UNK N   1      34.584  17.724   8.734  0.00  0.00     0.240 S 
HETATM   10  O   UNK N   1      35.532  17.909   9.928  0.00  0.00    -0.579 OA
HETATM   11  O   UNK N   1      34.990  18.853   7.775  0.00  0.00    -0.579 OA
BRANCH   9  12
HETATM   12  O   UNK N   1      32.977  17.988   9.279  0.00  0.00    -0.274 OA
HETATM   13  H   UNK N   1      32.340  18.701   9.120  0.00  0.00     0.234 HD
ENDBRANCH   9  12
ENDBRANCH   8   9
ENDBRANCH   3   8
BRANCH   4  14
HETATM   14  O   UNK N   1      33.965  14.695  10.434  0.00  0.00    -0.251 OA
BRANCH  14  15
HETATM   15  S   UNK N   1      35.547  14.433  11.068  0.00  0.00     0.241 S 
HETATM   16  O   UNK N   1      35.520  14.401  12.605  0.00  0.00    -0.579 OA
HETATM   17  O   UNK N   1      35.974  13.007  10.690  0.00  0.00    -0.579 OA
BRANCH  15  18
HETATM   18  O   UNK N   1      36.762  15.516  10.525  0.00  0.00    -0.274 OA
HETATM   19  H   UNK N   1      37.630  15.530  10.958  0.00  0.00     0.234 HD
ENDBRANCH  15  18
ENDBRANCH  14  15
ENDBRANCH   4  14
BRANCH   5  20
HETATM   20  O   UNK N   1      33.370  11.987   9.611  0.00  0.00    -0.368 OA
HETATM   21  H   UNK N   1      32.867  11.687  10.385  0.00  0.00     0.212 HD
ENDBRANCH   5  20
ENDBRANCH   1   2
BRANCH   1  22
HETATM   22  C   UNK N   1      31.804  16.639   6.584  0.00  0.00     0.293 C 
HETATM   23  O   UNK N   1      32.221  17.187   5.346  0.00  0.00    -0.356 OA
HETATM   24  C   UNK N   1      31.491  16.592   4.280  0.00  0.00     0.205 C 
HETATM   25  C   UNK N   1      29.967  16.585   4.500  0.00  0.00     0.175 C 
HETATM   26  C   UNK N   1      29.605  17.494   5.667  0.00  0.00     0.210 C 
HETATM   27  C   UNK N   1      30.375  17.094   6.935  0.00  0.00     0.232 C 
BRANCH  25  28
HETATM   28  O   UNK N   1      29.327  17.009   3.334  0.00  0.00    -0.391 OA
HETATM   29  H   UNK N   1      29.401  17.923   3.019  0.00  0.00     0.210 HD
ENDBRANCH  25  28
BRANCH  26  30
HETATM   30  O   UNK N   1      28.228  17.491   5.908  0.00  0.00    -0.253 OA
BRANCH  30  31
HETATM   31  S   UNK N   1      27.658  19.086   5.569  0.00  0.00     0.240 S 
HETATM   32  O   UNK N   1      26.153  19.002   5.275  0.00  0.00    -0.579 OA
HETATM   33  O   UNK N   1      27.725  19.975   6.822  0.00  0.00    -0.579 OA
BRANCH  31  34
HETATM   34  O   UNK N   1      28.417  19.885   4.254  0.00  0.00    -0.274 OA
HETATM   35  H   UNK N   1      29.089  20.569   4.405  0.00  0.00     0.234 HD
ENDBRANCH  31  34
ENDBRANCH  30  31
ENDBRANCH  26  30
BRANCH  27  36
HETATM   36  O   UNK N   1      30.427  18.199   7.793  0.00  0.00    -0.251 OA
BRANCH  36  37
HETATM   37  S   UNK N   1      29.472  17.789   9.167  0.00  0.00     0.241 S 
HETATM   38  O   UNK N   1      29.648  18.891  10.223  0.00  0.00    -0.579 OA
HETATM   39  O   UNK N   1      30.040  16.541   9.852  0.00  0.00    -0.579 OA
BRANCH  37  40
HETATM   40  O   UNK N   1      27.791  17.583   8.894  0.00  0.00    -0.274 OA
HETATM   41  H   UNK N   1      27.006  17.699   8.335  0.00  0.00     0.234 HD
ENDBRANCH  37  40
ENDBRANCH  36  37
ENDBRANCH  27  36
ENDBRANCH   1  22
TORSDOF 16
ENDMDL
MODEL 2
REMARK VINA RESULT:      -6.1      3.075      4.365
REMARK  16 active torsions:
REMARK  status: ('A' for Active; 'I' for Inactive)
REMARK    1  A    between atoms: S_1  and  O_8 
REMARK    2  A    between atoms: S_1  and  O_14 
REMARK    3  A    between atoms: S_2  and  O_9 
REMARK    4  A    between atoms: S_2  and  O_15 
REMARK    5  A    between atoms: S_3  and  O_10 
REMARK    6  A    between atoms: S_3  and  O_16 
REMARK    7  A    between atoms: S_4  and  O_11 
REMARK    8  A    between atoms: S_4  and  O_17 
REMARK    9  A    between atoms: C_26  and  O_5 
REMARK   10  A    between atoms: C_29  and  O_5 
REMARK   11  A    between atoms: C_27  and  O_8 
REMARK   12  A    between atoms: C_28  and  O_9 
REMARK   13  A    between atoms: C_30  and  O_10 
REMARK   14  A    between atoms: C_31  and  O_11 
REMARK   15  A    between atoms: C_32  and  O_12 
REMARK   16  A    between atoms: C_34  and  O_13 
ROOT
HETATM    1  O   UNK N   1      35.697  13.549   7.351  0.00  0.00    -0.348 OA
ENDROOT
BRANCH   1   2
HETATM    2  C   UNK N   1      36.629  13.629   8.396  0.00  0.00     0.181 C 
HETATM    3  C   UNK N   1      35.900  13.896   9.721  0.00  0.00     0.210 C 
HETATM    4  C   UNK N   1      35.885  12.662  10.632  0.00  0.00     0.232 C 
HETATM    5  C   UNK N   1      35.707  11.358   9.831  0.00  0.00     0.289 C 
HETATM    6  O   UNK N   1      36.508  11.231   8.655  0.00  0.00    -0.356 OA
HETATM    7  C   UNK N   1      37.404  12.309   8.490  0.00  0.00     0.205 C 
BRANCH   3   8
HETATM    8  O   UNK N   1      36.529  14.951  10.389  0.00  0.00    -0.253 OA
BRANCH   8   9
HETATM    9  S   UNK N   1      35.290  16.042  10.886  0.00  0.00     0.240 S 
HETATM   10  O   UNK N   1      35.549  16.423  12.351  0.00  0.00    -0.579 OA
HETATM   11  O   UNK N   1      35.412  17.380  10.141  0.00  0.00    -0.579 OA
BRANCH   9  12
HETATM   12  O   UNK N   1      33.680  15.462  10.758  0.00  0.00    -0.274 OA
HETATM   13  H   UNK N   1      33.286  14.723  10.269  0.00  0.00     0.234 HD
ENDBRANCH   9  12
ENDBRANCH   8   9
ENDBRANCH   3   8
BRANCH   4  14
HETATM   14  O   UNK N   1      34.879  12.788  11.599  0.00  0.00    -0.251 OA
BRANCH  14  15
HETATM   15  S   UNK N   1      35.669  12.863  13.130  0.00  0.00     0.241 S 
HETATM   16  O   UNK N   1      34.662  13.179  14.248  0.00  0.00    -0.579 OA
HETATM   17  O   UNK N   1      36.154  11.448  13.477  0.00  0.00    -0.579 OA
BRANCH  15  18
HETATM   18  O   UNK N   1      37.011  13.927  13.231  0.00  0.00    -0.274 OA
HETATM   19  H   UNK N   1      37.310  14.409  12.443  0.00  0.00     0.234 HD
ENDBRANCH  15  18
ENDBRANCH  14  15
ENDBRANCH   4  14
BRANCH   5  20
HETATM   20  O   UNK N   1      35.925  10.260  10.660  0.00  0.00    -0.368 OA
HETATM   21  H   UNK N   1      36.822  10.022  10.942  0.00  0.00     0.212 HD
ENDBRANCH   5  20
ENDBRANCH   1   2
BRANCH   1  22
HETATM   22  C   UNK N   1      35.664  14.827   6.765  0.00  0.00     0.293 C 
HETATM   23  O   UNK N   1      36.577  14.921   5.684  0.00  0.00    -0.356 OA
HETATM   24  C   UNK N   1      36.316  13.894   4.736  0.00  0.00     0.205 C 
HETATM   25  C   UNK N   1      34.836  13.792   4.322  0.00  0.00     0.175 C 
HETATM   26  C   UNK N   1      34.076  15.021   4.804  0.00  0.00     0.210 C 
HETATM   27  C   UNK N   1      34.241  15.212   6.319  0.00  0.00     0.232 C 
BRANCH  25  28
HETATM   28  O   UNK N   1      34.748  13.677   2.934  0.00  0.00    -0.391 OA
HETATM   29  H   UNK N   1      35.541  13.656   2.376  0.00  0.00     0.210 HD
ENDBRANCH  25  28
BRANCH  26  30
HETATM   30  O   UNK N   1      32.721  14.948   4.463  0.00  0.00    -0.253 OA
BRANCH  30  31
HETATM   31  S   UNK N   1      32.380  16.324   3.476  0.00  0.00     0.240 S 
HETATM   32  O   UNK N   1      33.340  16.301   2.278  0.00  0.00    -0.579 OA
HETATM   33  O   UNK N   1      30.993  16.205   2.821  0.00  0.00    -0.579 OA
BRANCH  31  34
HETATM   34  O   UNK N   1      32.524  17.849   4.249  0.00  0.00    -0.274 OA
HETATM   35  H   UNK N   1      32.917  17.927   5.133  0.00  0.00     0.234 HD
ENDBRANCH  31  34
ENDBRANCH  30  31
ENDBRANCH  26  30
BRANCH  27  36
HETATM   36  O   UNK N   1      33.994  16.554   6.630  0.00  0.00    -0.251 OA
BRANCH  36  37
HETATM   37  S   UNK N   1      32.604  16.566   7.648  0.00  0.00     0.241 S 
HETATM   38  O   UNK N   1      32.348  15.132   8.134  0.00  0.00    -0.579 OA
HETATM   39  O   UNK N   1      31.351  16.895   6.827  0.00  0.00    -0.579 OA
BRANCH  37  40
HETATM   40  O   UNK N   1      32.676  17.587   9.025  0.00  0.00    -0.274 OA
HETATM   41  H   UNK N   1      32.890  18.442   9.432  0.00  0.00     0.234 HD
ENDBRANCH  37  40
ENDBRANCH  36  37
ENDBRANCH  27  36
ENDBRANCH   1  22
TORSDOF 16
ENDMDL
MODEL 3
REMARK VINA RESULT:      -6.1      8.929     12.714
REMARK  16 active torsions:
REMARK  status: ('A' for Active; 'I' for Inactive)
REMARK    1  A    between atoms: S_1  and  O_8 
REMARK    2  A    between atoms: S_1  and  O_14 
REMARK    3  A    between atoms: S_2  and  O_9 
REMARK    4  A    between atoms: S_2  and  O_15 
REMARK    5  A    between atoms: S_3  and  O_10 
REMARK    6  A    between atoms: S_3  and  O_16 
REMARK    7  A    between atoms: S_4  and  O_11 
REMARK    8  A    between atoms: S_4  and  O_17 
REMARK    9  A    between atoms: C_26  and  O_5 
REMARK   10  A    between atoms: C_29  and  O_5 
REMARK   11  A    between atoms: C_27  and  O_8 
REMARK   12  A    between atoms: C_28  and  O_9 
REMARK   13  A    between atoms: C_30  and  O_10 
REMARK   14  A    between atoms: C_31  and  O_11 
REMARK   15  A    between atoms: C_32  and  O_12 
REMARK   16  A    between atoms: C_34  and  O_13 
ROOT
HETATM    1  O   UNK N   1      21.678  13.904   4.619  0.00  0.00    -0.348 OA
ENDROOT
BRANCH   1   2
HETATM    2  C   UNK N   1      20.544  14.711   4.450  0.00  0.00     0.181 C 
HETATM    3  C   UNK N   1      20.971  16.177   4.294  0.00  0.00     0.210 C 
HETATM    4  C   UNK N   1      20.802  16.680   2.855  0.00  0.00     0.232 C 
HETATM    5  C   UNK N   1      21.159  15.594   1.822  0.00  0.00     0.289 C 
HETATM    6  O   UNK N   1      20.629  14.292   2.074  0.00  0.00    -0.356 OA
HETATM    7  C   UNK N   1      19.779  14.261   3.200  0.00  0.00     0.205 C 
BRANCH   3   8
HETATM    8  O   UNK N   1      20.204  16.975   5.151  0.00  0.00    -0.253 OA
BRANCH   8   9
HETATM    9  S   UNK N   1      21.252  18.189   5.782  0.00  0.00     0.240 S 
HETATM   10  O   UNK N   1      20.938  18.363   7.275  0.00  0.00    -0.579 OA
HETATM   11  O   UNK N   1      22.710  17.705   5.776  0.00  0.00    -0.579 OA
BRANCH   9  12
HETATM   12  O   UNK N   1      21.159  19.730   5.031  0.00  0.00    -0.274 OA
HETATM   13  H   UNK N   1      21.490  20.605   5.286  0.00  0.00     0.234 HD
ENDBRANCH   9  12
ENDBRANCH   8   9
ENDBRANCH   3   8
BRANCH   4  14
HETATM   14  O   UNK N   1      21.578  17.829   2.650  0.00  0.00    -0.251 OA
BRANCH  14  15
HETATM   15  S   UNK N   1      20.547  18.998   1.914  0.00  0.00     0.241 S 
HETATM   16  O   UNK N   1      19.165  19.009   2.588  0.00  0.00    -0.579 OA
HETATM   17  O   UNK N   1      21.111  20.390   2.234  0.00  0.00    -0.579 OA
BRANCH  15  18
HETATM   18  O   UNK N   1      20.367  18.875   0.211  0.00  0.00    -0.274 OA
HETATM   19  H   UNK N   1      19.819  19.516  -0.268  0.00  0.00     0.234 HD
ENDBRANCH  15  18
ENDBRANCH  14  15
ENDBRANCH   4  14
BRANCH   5  20
HETATM   20  O   UNK N   1      20.780  16.011   0.548  0.00  0.00    -0.368 OA
HETATM   21  H   UNK N   1      20.088  16.681   0.431  0.00  0.00     0.212 HD
ENDBRANCH   5  20
ENDBRANCH   1   2
BRANCH   1  22
HETATM   22  C   UNK N   1      21.346  12.978   5.624  0.00  0.00     0.293 C 
HETATM   23  O   UNK N   1      21.922  11.709   5.366  0.00  0.00    -0.356 OA
HETATM   24  C   UNK N   1      23.329  11.837   5.204  0.00  0.00     0.205 C 
HETATM   25  C   UNK N   1      24.014  12.637   6.327  0.00  0.00     0.175 C 
HETATM   26  C   UNK N   1      23.050  12.828   7.490  0.00  0.00     0.210 C 
HETATM   27  C   UNK N   1      21.745  13.489   7.022  0.00  0.00     0.232 C 
BRANCH  25  28
HETATM   28  O   UNK N   1      25.159  11.961   6.748  0.00  0.00    -0.391 OA
HETATM   29  H   UNK N   1      25.939  12.437   7.071  0.00  0.00     0.210 HD
ENDBRANCH  25  28
BRANCH  26  30
HETATM   30  O   UNK N   1      23.635  13.573   8.520  0.00  0.00    -0.253 OA
BRANCH  30  31
HETATM   31  S   UNK N   1      23.642  12.566   9.923  0.00  0.00     0.240 S 
HETATM   32  O   UNK N   1      22.456  12.975  10.808  0.00  0.00    -0.579 OA
HETATM   33  O   UNK N   1      23.326  11.106   9.558  0.00  0.00    -0.579 OA
BRANCH  31  34
HETATM   34  O   UNK N   1      25.067  12.627  10.876  0.00  0.00    -0.274 OA
HETATM   35  H   UNK N   1      25.234  13.369  11.480  0.00  0.00     0.234 HD
ENDBRANCH  31  34
ENDBRANCH  30  31
ENDBRANCH  26  30
BRANCH  27  36
HETATM   36  O   UNK N   1      20.735  13.187   7.942  0.00  0.00    -0.251 OA
BRANCH  36  37
HETATM   37  S   UNK N   1      20.132  14.697   8.513  0.00  0.00     0.241 S 
HETATM   38  O   UNK N   1      21.316  15.521   9.042  0.00  0.00    -0.579 OA
HETATM   39  O   UNK N   1      19.260  14.482   9.755  0.00  0.00    -0.579 OA
BRANCH  37  40
HETATM   40  O   UNK N   1      19.285  15.659   7.373  0.00  0.00    -0.274 OA
HETATM   41  H   UNK N   1      18.723  15.737   6.585  0.00  0.00     0.234 HD
ENDBRANCH  37  40
ENDBRANCH  36  37
ENDBRANCH  27  36
ENDBRANCH   1  22
TORSDOF 16
ENDMDL
MODEL 4
REMARK VINA RESULT:      -6.0      1.439      1.835
REMARK  16 active torsions:
REMARK  status: ('A' for Active; 'I' for Inactive)
REMARK    1  A    between atoms: S_1  and  O_8 
REMARK    2  A    between atoms: S_1  and  O_14 
REMARK    3  A    between atoms: S_2  and  O_9 
REMARK    4  A    between atoms: S_2  and  O_15 
REMARK    5  A    between atoms: S_3  and  O_10 
REMARK    6  A    between atoms: S_3  and  O_16 
REMARK    7  A    between atoms: S_4  and  O_11 
REMARK    8  A    between atoms: S_4  and  O_17 
REMARK    9  A    between atoms: C_26  and  O_5 
REMARK   10  A    between atoms: C_29  and  O_5 
REMARK   11  A    between atoms: C_27  and  O_8 
REMARK   12  A    between atoms: C_28  and  O_9 
REMARK   13  A    between atoms: C_30  and  O_10 
REMARK   14  A    between atoms: C_31  and  O_11 
REMARK   15  A    between atoms: C_32  and  O_12 
REMARK   16  A    between atoms: C_34  and  O_13 
ROOT
HETATM    1  O   UNK N   1      31.903  14.385   7.040  0.00  0.00    -0.348 OA
ENDROOT
BRANCH   1   2
HETATM    2  C   UNK N   1      33.295  14.261   7.148  0.00  0.00     0.181 C 
HETATM    3  C   UNK N   1      33.791  15.036   8.377  0.00  0.00     0.210 C 
HETATM    4  C   UNK N   1      34.223  14.104   9.515  0.00  0.00     0.232 C 
HETATM    5  C   UNK N   1      33.310  12.867   9.623  0.00  0.00     0.289 C 
HETATM    6  O   UNK N   1      32.993  12.214   8.393  0.00  0.00    -0.356 OA
HETATM    7  C   UNK N   1      33.666  12.780   7.289  0.00  0.00     0.205 C 
BRANCH   3   8
HETATM    8  O   UNK N   1      34.874  15.841   8.008  0.00  0.00    -0.253 OA
BRANCH   8   9
HETATM    9  S   UNK N   1      34.397  17.477   8.267  0.00  0.00     0.240 S 
HETATM   10  O   UNK N   1      34.368  18.188   6.906  0.00  0.00    -0.579 OA
HETATM   11  O   UNK N   1      32.937  17.550   8.740  0.00  0.00    -0.579 OA
BRANCH   9  12
HETATM   12  O   UNK N   1      35.388  18.392   9.329  0.00  0.00    -0.274 OA
HETATM   13  H   UNK N   1      36.207  18.184   9.804  0.00  0.00     0.234 HD
ENDBRANCH   9  12
ENDBRANCH   8   9
ENDBRANCH   3   8
BRANCH   4  14
HETATM   14  O   UNK N   1      34.251  14.803  10.729  0.00  0.00    -0.251 OA
BRANCH  14  15
HETATM   15  S   UNK N   1      35.895  14.835  11.245  0.00  0.00     0.241 S 
HETATM   16  O   UNK N   1      35.987  14.784  12.780  0.00  0.00    -0.579 OA
HETATM   17  O   UNK N   1      36.552  13.518  10.805  0.00  0.00    -0.579 OA
BRANCH  15  18
HETATM   18  O   UNK N   1      36.846  16.132  10.644  0.00  0.00    -0.274 OA
HETATM   19  H   UNK N   1      37.630  16.428  11.133  0.00  0.00     0.234 HD
ENDBRANCH  15  18
ENDBRANCH  14  15
ENDBRANCH   4  14
BRANCH   5  20
HETATM   20  O   UNK N   1      33.863  11.945  10.508  0.00  0.00    -0.368 OA
HETATM   21  H   UNK N   1      34.648  11.431  10.261  0.00  0.00     0.212 HD
ENDBRANCH   5  20
ENDBRANCH   1   2
BRANCH   1  22
HETATM   22  C   UNK N   1      31.676  15.563   6.306  0.00  0.00     0.293 C 
HETATM   23  O   UNK N   1      32.173  15.449   4.984  0.00  0.00    -0.356 OA
HETATM   24  C   UNK N   1      31.608  14.310   4.348  0.00  0.00     0.205 C 
HETATM   25  C   UNK N   1      30.075  14.227   4.470  0.00  0.00     0.175 C 
HETATM   26  C   UNK N   1      29.522  15.552   4.979  0.00  0.00     0.210 C 
HETATM   27  C   UNK N   1      30.186  15.953   6.304  0.00  0.00     0.232 C 
BRANCH  25  28
HETATM   28  O   UNK N   1      29.526  13.915   3.225  0.00  0.00    -0.391 OA
HETATM   29  H   UNK N   1      28.581  13.727   3.121  0.00  0.00     0.210 HD
ENDBRANCH  25  28
BRANCH  26  30
HETATM   30  O   UNK N   1      28.131  15.502   5.123  0.00  0.00    -0.253 OA
BRANCH  30  31
HETATM   31  S   UNK N   1      27.486  16.803   4.188  0.00  0.00     0.240 S 
HETATM   32  O   UNK N   1      26.886  16.215   2.903  0.00  0.00    -0.579 OA
HETATM   33  O   UNK N   1      26.271  17.438   4.887  0.00  0.00    -0.579 OA
BRANCH  31  34
HETATM   34  O   UNK N   1      28.602  18.029   3.746  0.00  0.00    -0.274 OA
HETATM   35  H   UNK N   1      29.283  18.332   4.367  0.00  0.00     0.234 HD
ENDBRANCH  31  34
ENDBRANCH  30  31
ENDBRANCH  26  30
BRANCH  27  36
HETATM   36  O   UNK N   1      30.059  17.337   6.466  0.00  0.00    -0.251 OA
BRANCH  36  37
HETATM   37  S   UNK N   1      28.991  17.572   7.798  0.00  0.00     0.241 S 
HETATM   38  O   UNK N   1      28.774  19.081   7.983  0.00  0.00    -0.579 OA
HETATM   39  O   UNK N   1      29.672  17.144   9.103  0.00  0.00    -0.579 OA
BRANCH  37  40
HETATM   40  O   UNK N   1      27.449  16.827   7.680  0.00  0.00    -0.274 OA
HETATM   41  H   UNK N   1      26.483  16.868   7.762  0.00  0.00     0.234 HD
ENDBRANCH  37  40
ENDBRANCH  36  37
ENDBRANCH  27  36
ENDBRANCH   1  22
TORSDOF 16
ENDMDL
MODEL 5
REMARK VINA RESULT:      -5.9      9.177     12.070
REMARK  16 active torsions:
REMARK  status: ('A' for Active; 'I' for Inactive)
REMARK    1  A    between atoms: S_1  and  O_8 
REMARK    2  A    between atoms: S_1  and  O_14 
REMARK    3  A    between atoms: S_2  and  O_9 
REMARK    4  A    between atoms: S_2  and  O_15 
REMARK    5  A    between atoms: S_3  and  O_10 
REMARK    6  A    between atoms: S_3  and  O_16 
REMARK    7  A    between atoms: S_4  and  O_11 
REMARK    8  A    between atoms: S_4  and  O_17 
REMARK    9  A    between atoms: C_26  and  O_5 
REMARK   10  A    between atoms: C_29  and  O_5 
REMARK   11  A    between atoms: C_27  and  O_8 
REMARK   12  A    between atoms: C_28  and  O_9 
REMARK   13  A    between atoms: C_30  and  O_10 
REMARK   14  A    between atoms: C_31  and  O_11 
REMARK   15  A    between atoms: C_32  and  O_12 
REMARK   16  A    between atoms: C_34  and  O_13 
ROOT
HETATM    1  O   UNK N   1      19.922  17.210   4.248  0.00  0.00    -0.348 OA
ENDROOT
BRANCH   1   2
HETATM    2  C   UNK N   1      19.252  15.987   4.105  0.00  0.00     0.181 C 
HETATM    3  C   UNK N   1      20.271  14.860   3.882  0.00  0.00     0.210 C 
HETATM    4  C   UNK N   1      20.411  13.954   5.112  0.00  0.00     0.232 C 
HETATM    5  C   UNK N   1      20.325  14.752   6.427  0.00  0.00     0.289 C 
HETATM    6  O   UNK N   1      19.277  15.720   6.505  0.00  0.00    -0.356 OA
HETATM    7  C   UNK N   1      18.436  15.701   5.372  0.00  0.00     0.205 C 
BRANCH   3   8
HETATM    8  O   UNK N   1      19.873  14.088   2.786  0.00  0.00    -0.253 OA
BRANCH   8   9
HETATM    9  S   UNK N   1      21.225  13.991   1.720  0.00  0.00     0.240 S 
HETATM   10  O   UNK N   1      21.158  12.645   0.985  0.00  0.00    -0.579 OA
HETATM   11  O   UNK N   1      21.101  15.024   0.590  0.00  0.00    -0.579 OA
BRANCH   9  12
HETATM   12  O   UNK N   1      22.772  14.127   2.452  0.00  0.00    -0.274 OA
HETATM   13  H   UNK N   1      23.648  14.345   2.097  0.00  0.00     0.234 HD
ENDBRANCH   9  12
ENDBRANCH   8   9
ENDBRANCH   3   8
BRANCH   4  14
HETATM   14  O   UNK N   1      21.612  13.236   5.049  0.00  0.00    -0.251 OA
BRANCH  14  15
HETATM   15  S   UNK N   1      21.188  11.570   4.921  0.00  0.00     0.241 S 
HETATM   16  O   UNK N   1      22.422  10.675   5.123  0.00  0.00    -0.579 OA
HETATM   17  O   UNK N   1      20.294  11.219   6.119  0.00  0.00    -0.579 OA
BRANCH  15  18
HETATM   18  O   UNK N   1      20.361  11.113   3.487  0.00  0.00    -0.274 OA
HETATM   19  H   UNK N   1      19.570  10.554   3.539  0.00  0.00     0.234 HD
ENDBRANCH  15  18
ENDBRANCH  14  15
ENDBRANCH   4  14
BRANCH   5  20
HETATM   20  O   UNK N   1      20.229  13.877   7.506  0.00  0.00    -0.368 OA
HETATM   21  H   UNK N   1      20.047  14.210   8.399  0.00  0.00     0.212 HD
ENDBRANCH   5  20
ENDBRANCH   1   2
BRANCH   1  22
HETATM   22  C   UNK N   1      20.993  17.171   3.337  0.00  0.00     0.293 C 
HETATM   23  O   UNK N   1      20.691  17.893   2.156  0.00  0.00    -0.356 OA
HETATM   24  C   UNK N   1      20.317  19.226   2.482  0.00  0.00     0.205 C 
HETATM   25  C   UNK N   1      21.301  19.932   3.434  0.00  0.00     0.175 C 
HETATM   26  C   UNK N   1      22.589  19.126   3.541  0.00  0.00     0.210 C 
HETATM   27  C   UNK N   1      22.299  17.681   3.975  0.00  0.00     0.232 C 
BRANCH  25  28
HETATM   28  O   UNK N   1      21.568  21.216   2.957  0.00  0.00    -0.391 OA
HETATM   29  H   UNK N   1      22.117  21.839   3.458  0.00  0.00     0.210 HD
ENDBRANCH  25  28
BRANCH  26  30
HETATM   30  O   UNK N   1      23.496  19.729   4.418  0.00  0.00    -0.253 OA
BRANCH  30  31
HETATM   31  S   UNK N   1      24.961  19.969   3.534  0.00  0.00     0.240 S 
HETATM   32  O   UNK N   1      24.642  20.844   2.313  0.00  0.00    -0.579 OA
HETATM   33  O   UNK N   1      25.956  20.827   4.334  0.00  0.00    -0.579 OA
BRANCH  31  34
HETATM   34  O   UNK N   1      25.741  18.544   2.983  0.00  0.00    -0.274 OA
HETATM   35  H   UNK N   1      26.054  17.872   3.609  0.00  0.00     0.234 HD
ENDBRANCH  31  34
ENDBRANCH  30  31
ENDBRANCH  26  30
BRANCH  27  36
HETATM   36  O   UNK N   1      23.369  16.872   3.576  0.00  0.00    -0.251 OA
BRANCH  36  37
HETATM   37  S   UNK N   1      24.000  16.160   5.013  0.00  0.00     0.241 S 
HETATM   38  O   UNK N   1      23.084  16.544   6.185  0.00  0.00    -0.579 OA
HETATM   39  O   UNK N   1      25.341  16.807   5.378  0.00  0.00    -0.579 OA
BRANCH  37  40
HETATM   40  O   UNK N   1      24.166  14.452   5.009  0.00  0.00    -0.274 OA
HETATM   41  H   UNK N   1      24.322  13.620   4.534  0.00  0.00     0.234 HD
ENDBRANCH  37  40
ENDBRANCH  36  37
ENDBRANCH  27  36
ENDBRANCH   1  22
TORSDOF 16
ENDMDL
MODEL 6
REMARK VINA RESULT:      -5.9      1.582      7.716
REMARK  16 active torsions:
REMARK  status: ('A' for Active; 'I' for Inactive)
REMARK    1  A    between atoms: S_1  and  O_8 
REMARK    2  A    between atoms: S_1  and  O_14 
REMARK    3  A    between atoms: S_2  and  O_9 
REMARK    4  A    between atoms: S_2  and  O_15 
REMARK    5  A    between atoms: S_3  and  O_10 
REMARK    6  A    between atoms: S_3  and  O_16 
REMARK    7  A    between atoms: S_4  and  O_11 
REMARK    8  A    between atoms: S_4  and  O_17 
REMARK    9  A    between atoms: C_26  and  O_5 
REMARK   10  A    between atoms: C_29  and  O_5 
REMARK   11  A    between atoms: C_27  and  O_8 
REMARK   12  A    between atoms: C_28  and  O_9 
REMARK   13  A    between atoms: C_30  and  O_10 
REMARK   14  A    between atoms: C_31  and  O_11 
REMARK   15  A    between atoms: C_32  and  O_12 
REMARK   16  A    between atoms: C_34  and  O_13 
ROOT
HETATM    1  O   UNK N   1      32.461  17.362   7.053  0.00  0.00    -0.348 OA
ENDROOT
BRANCH   1   2
HETATM    2  C   UNK N   1      31.430  16.426   6.896  0.00  0.00     0.181 C 
HETATM    3  C   UNK N   1      30.070  17.128   7.013  0.00  0.00     0.210 C 
HETATM    4  C   UNK N   1      29.358  17.241   5.660  0.00  0.00     0.232 C 
HETATM    5  C   UNK N   1      30.347  17.526   4.513  0.00  0.00     0.289 C 
HETATM    6  O   UNK N   1      31.539  16.741   4.505  0.00  0.00    -0.356 OA
HETATM    7  C   UNK N   1      31.550  15.761   5.520  0.00  0.00     0.205 C 
BRANCH   3   8
HETATM    8  O   UNK N   1      29.256  16.413   7.900  0.00  0.00    -0.253 OA
BRANCH   8   9
HETATM    9  S   UNK N   1      29.033  17.407   9.291  0.00  0.00     0.240 S 
HETATM   10  O   UNK N   1      29.723  18.755   9.030  0.00  0.00    -0.579 OA
HETATM   11  O   UNK N   1      27.555  17.787   9.457  0.00  0.00    -0.579 OA
BRANCH   9  12
HETATM   12  O   UNK N   1      29.631  16.776  10.771  0.00  0.00    -0.274 OA
HETATM   13  H   UNK N   1      30.369  17.037  11.345  0.00  0.00     0.234 HD
ENDBRANCH   9  12
ENDBRANCH   8   9
ENDBRANCH   3   8
BRANCH   4  14
HETATM   14  O   UNK N   1      28.369  18.232   5.715  0.00  0.00    -0.251 OA
BRANCH  14  15
HETATM   15  S   UNK N   1      26.852  17.428   5.559  0.00  0.00     0.241 S 
HETATM   16  O   UNK N   1      25.751  18.417   5.139  0.00  0.00    -0.579 OA
HETATM   17  O   UNK N   1      26.948  16.472   4.360  0.00  0.00    -0.579 OA
BRANCH  15  18
HETATM   18  O   UNK N   1      26.337  16.523   6.923  0.00  0.00    -0.274 OA
HETATM   19  H   UNK N   1      25.499  16.739   7.362  0.00  0.00     0.234 HD
ENDBRANCH  15  18
ENDBRANCH  14  15
ENDBRANCH   4  14
BRANCH   5  20
HETATM   20  O   UNK N   1      29.699  17.398   3.286  0.00  0.00    -0.368 OA
HETATM   21  H   UNK N   1      28.898  17.911   3.093  0.00  0.00     0.212 HD
ENDBRANCH   5  20
ENDBRANCH   1   2
BRANCH   1  22
HETATM   22  C   UNK N   1      33.659  16.656   6.843  0.00  0.00     0.293 C 
HETATM   23  O   UNK N   1      34.781  17.521   6.892  0.00  0.00    -0.356 OA
HETATM   24  C   UNK N   1      34.793  18.235   8.121  0.00  0.00     0.205 C 
HETATM   25  C   UNK N   1      34.616  17.339   9.362  0.00  0.00     0.175 C 
HETATM   26  C   UNK N   1      34.782  15.876   8.973  0.00  0.00     0.210 C 
HETATM   27  C   UNK N   1      33.816  15.494   7.841  0.00  0.00     0.232 C 
BRANCH  25  28
HETATM   28  O   UNK N   1      35.555  17.696  10.330  0.00  0.00    -0.391 OA
HETATM   29  H   UNK N   1      36.473  17.388  10.284  0.00  0.00     0.210 HD
ENDBRANCH  25  28
BRANCH  26  30
HETATM   30  O   UNK N   1      34.603  15.033  10.075  0.00  0.00    -0.253 OA
BRANCH  30  31
HETATM   31  S   UNK N   1      36.126  14.272  10.373  0.00  0.00     0.240 S 
HETATM   32  O   UNK N   1      37.235  15.276  10.029  0.00  0.00    -0.579 OA
HETATM   33  O   UNK N   1      36.332  14.017  11.876  0.00  0.00    -0.579 OA
BRANCH  31  34
HETATM   34  O   UNK N   1      36.421  12.827   9.497  0.00  0.00    -0.274 OA
HETATM   35  H   UNK N   1      37.123  12.214   9.766  0.00  0.00     0.234 HD
ENDBRANCH  31  34
ENDBRANCH  30  31
ENDBRANCH  26  30
BRANCH  27  36
HETATM   36  O   UNK N   1      34.323  14.368   7.182  0.00  0.00    -0.251 OA
BRANCH  36  37
HETATM   37  S   UNK N   1      33.310  13.048   7.630  0.00  0.00     0.241 S 
HETATM   38  O   UNK N   1      32.535  12.590   6.385  0.00  0.00    -0.579 OA
HETATM   39  O   UNK N   1      32.209  13.527   8.583  0.00  0.00    -0.579 OA
BRANCH  37  40
HETATM   40  O   UNK N   1      34.096  11.676   8.298  0.00  0.00    -0.274 OA
HETATM   41  H   UNK N   1      34.366  11.150   9.067  0.00  0.00     0.234 HD
ENDBRANCH  37  40
ENDBRANCH  36  37
ENDBRANCH  27  36
ENDBRANCH   1  22
TORSDOF 16
ENDMDL
MODEL 7
REMARK VINA RESULT:      -5.7     12.757     15.372
REMARK  16 active torsions:
REMARK  status: ('A' for Active; 'I' for Inactive)
REMARK    1  A    between atoms: S_1  and  O_8 
REMARK    2  A    between atoms: S_1  and  O_14 
REMARK    3  A    between atoms: S_2  and  O_9 
REMARK    4  A    between atoms: S_2  and  O_15 
REMARK    5  A    between atoms: S_3  and  O_10 
REMARK    6  A    between atoms: S_3  and  O_16 
REMARK    7  A    between atoms: S_4  and  O_11 
REMARK    8  A    between atoms: S_4  and  O_17 
REMARK    9  A    between atoms: C_26  and  O_5 
REMARK   10  A    between atoms: C_29  and  O_5 
REMARK   11  A    between atoms: C_27  and  O_8 
REMARK   12  A    between atoms: C_28  and  O_9 
REMARK   13  A    between atoms: C_30  and  O_10 
REMARK   14  A    between atoms: C_31  and  O_11 
REMARK   15  A    between atoms: C_32  and  O_12 
REMARK   16  A    between atoms: C_34  and  O_13 
ROOT
HETATM    1  O   UNK N   1      29.751  23.559  -6.474  0.00  0.00    -0.348 OA
ENDROOT
BRANCH   1   2
HETATM    2  C   UNK N   1      31.110  23.624  -6.133  0.00  0.00     0.181 C 
HETATM    3  C   UNK N   1      31.491  22.402  -5.286  0.00  0.00     0.210 C 
HETATM    4  C   UNK N   1      32.353  21.402  -6.066  0.00  0.00     0.232 C 
HETATM    5  C   UNK N   1      31.914  21.291  -7.538  0.00  0.00     0.289 C 
HETATM    6  O   UNK N   1      31.660  22.525  -8.212  0.00  0.00    -0.356 OA
HETATM    7  C   UNK N   1      31.956  23.649  -7.412  0.00  0.00     0.205 C 
BRANCH   3   8
HETATM    8  O   UNK N   1      32.194  22.827  -4.153  0.00  0.00    -0.253 OA
BRANCH   8   9
HETATM    9  S   UNK N   1      31.529  21.985  -2.803  0.00  0.00     0.240 S 
HETATM   10  O   UNK N   1      32.691  21.413  -1.978  0.00  0.00    -0.579 OA
HETATM   11  O   UNK N   1      30.849  22.963  -1.834  0.00  0.00    -0.579 OA
BRANCH   9  12
HETATM   12  O   UNK N   1      30.450  20.702  -3.172  0.00  0.00    -0.274 OA
HETATM   13  H   UNK N   1      29.838  20.183  -2.628  0.00  0.00     0.234 HD
ENDBRANCH   9  12
ENDBRANCH   8   9
ENDBRANCH   3   8
BRANCH   4  14
HETATM   14  O   UNK N   1      32.319  20.147  -5.445  0.00  0.00    -0.251 OA
BRANCH  14  15
HETATM   15  S   UNK N   1      33.932  19.796  -4.947  0.00  0.00     0.241 S 
HETATM   16  O   UNK N   1      33.976  18.507  -4.109  0.00  0.00    -0.579 OA
HETATM   17  O   UNK N   1      34.742  19.434  -6.200  0.00  0.00    -0.579 OA
BRANCH  15  18
HETATM   18  O   UNK N   1      34.755  21.058  -4.125  0.00  0.00    -0.274 OA
HETATM   19  H   UNK N   1      34.469  21.978  -4.235  0.00  0.00     0.234 HD
ENDBRANCH  15  18
ENDBRANCH  14  15
ENDBRANCH   4  14
BRANCH   5  20
HETATM   20  O   UNK N   1      32.852  20.555  -8.258  0.00  0.00    -0.368 OA
HETATM   21  H   UNK N   1      33.701  20.308  -7.858  0.00  0.00     0.212 HD
ENDBRANCH   5  20
ENDBRANCH   1   2
BRANCH   1  22
HETATM   22  C   UNK N   1      29.354  24.883  -6.731  0.00  0.00     0.293 C 
HETATM   23  O   UNK N   1      28.345  24.933  -7.726  0.00  0.00    -0.356 OA
HETATM   24  C   UNK N   1      27.248  24.112  -7.349  0.00  0.00     0.205 C 
HETATM   25  C   UNK N   1      26.749  24.363  -5.913  0.00  0.00     0.175 C 
HETATM   26  C   UNK N   1      27.363  25.645  -5.366  0.00  0.00     0.210 C 
HETATM   27  C   UNK N   1      28.896  25.599  -5.447  0.00  0.00     0.232 C 
BRANCH  25  28
HETATM   28  O   UNK N   1      25.356  24.450  -5.914  0.00  0.00    -0.391 OA
HETATM   29  H   UNK N   1      24.804  23.755  -5.525  0.00  0.00     0.210 HD
ENDBRANCH  25  28
BRANCH  26  30
HETATM   30  O   UNK N   1      26.948  25.889  -4.053  0.00  0.00    -0.253 OA
BRANCH  30  31
HETATM   31  S   UNK N   1      26.203  27.447  -4.047  0.00  0.00     0.240 S 
HETATM   32  O   UNK N   1      25.036  27.422  -5.045  0.00  0.00    -0.579 OA
HETATM   33  O   UNK N   1      25.512  27.725  -2.701  0.00  0.00    -0.579 OA
BRANCH  31  34
HETATM   34  O   UNK N   1      27.225  28.764  -4.453  0.00  0.00    -0.274 OA
HETATM   35  H   UNK N   1      27.909  29.073  -3.838  0.00  0.00     0.234 HD
ENDBRANCH  31  34
ENDBRANCH  30  31
ENDBRANCH  26  30
BRANCH  27  36
HETATM   36  O   UNK N   1      29.384  26.910  -5.436  0.00  0.00    -0.251 OA
BRANCH  36  37
HETATM   37  S   UNK N   1      30.440  27.023  -4.080  0.00  0.00     0.241 S 
HETATM   38  O   UNK N   1      29.857  28.049  -3.097  0.00  0.00    -0.579 OA
HETATM   39  O   UNK N   1      31.776  27.648  -4.501  0.00  0.00    -0.579 OA
BRANCH  37  40
HETATM   40  O   UNK N   1      30.731  25.569  -3.216  0.00  0.00    -0.274 OA
HETATM   41  H   UNK N   1      31.224  25.070  -2.544  0.00  0.00     0.234 HD
ENDBRANCH  37  40
ENDBRANCH  36  37
ENDBRANCH  27  36
ENDBRANCH   1  22
TORSDOF 16
ENDMDL
MODEL 8
REMARK VINA RESULT:      -5.6     10.789     13.386
REMARK  16 active torsions:
REMARK  status: ('A' for Active; 'I' for Inactive)
REMARK    1  A    between atoms: S_1  and  O_8 
REMARK    2  A    between atoms: S_1  and  O_14 
REMARK    3  A    between atoms: S_2  and  O_9 
REMARK    4  A    between atoms: S_2  and  O_15 
REMARK    5  A    between atoms: S_3  and  O_10 
REMARK    6  A    between atoms: S_3  and  O_16 
REMARK    7  A    between atoms: S_4  and  O_11 
REMARK    8  A    between atoms: S_4  and  O_17 
REMARK    9  A    between atoms: C_26  and  O_5 
REMARK   10  A    between atoms: C_29  and  O_5 
REMARK   11  A    between atoms: C_27  and  O_8 
REMARK   12  A    between atoms: C_28  and  O_9 
REMARK   13  A    between atoms: C_30  and  O_10 
REMARK   14  A    between atoms: C_31  and  O_11 
REMARK   15  A    between atoms: C_32  and  O_12 
REMARK   16  A    between atoms: C_34  and  O_13 
ROOT
HETATM    1  O   UNK N   1      22.291  14.690   4.434  0.00  0.00    -0.348 OA
ENDROOT
BRANCH   1   2
HETATM    2  C   UNK N   1      22.019  13.330   4.641  0.00  0.00     0.181 C 
HETATM    3  C   UNK N   1      20.966  12.853   3.631  0.00  0.00     0.210 C 
HETATM    4  C   UNK N   1      21.570  11.950   2.548  0.00  0.00     0.232 C 
HETATM    5  C   UNK N   1      22.976  12.418   2.128  0.00  0.00     0.289 C 
HETATM    6  O   UNK N   1      23.865  12.764   3.191  0.00  0.00    -0.356 OA
HETATM    7  C   UNK N   1      23.308  12.519   4.465  0.00  0.00     0.205 C 
BRANCH   3   8
HETATM    8  O   UNK N   1      19.963  12.150   4.307  0.00  0.00    -0.253 OA
BRANCH   8   9
HETATM    9  S   UNK N   1      18.461  12.881   3.879  0.00  0.00     0.240 S 
HETATM   10  O   UNK N   1      17.368  11.805   3.957  0.00  0.00    -0.579 OA
HETATM   11  O   UNK N   1      18.033  13.905   4.940  0.00  0.00    -0.579 OA
BRANCH   9  12
HETATM   12  O   UNK N   1      18.391  13.604   2.324  0.00  0.00    -0.274 OA
HETATM   13  H   UNK N   1      18.084  14.472   2.018  0.00  0.00     0.234 HD
ENDBRANCH   9  12
ENDBRANCH   8   9
ENDBRANCH   3   8
BRANCH   4  14
HETATM   14  O   UNK N   1      20.717  11.890   1.438  0.00  0.00    -0.251 OA
BRANCH  14  15
HETATM   15  S   UNK N   1      20.347  10.226   1.185  0.00  0.00     0.241 S 
HETATM   16  O   UNK N   1      19.132   9.803   2.028  0.00  0.00    -0.579 OA
HETATM   17  O   UNK N   1      19.851  10.069  -0.260  0.00  0.00    -0.579 OA
BRANCH  15  18
HETATM   18  O   UNK N   1      21.640   9.123   1.427  0.00  0.00    -0.274 OA
HETATM   19  H   UNK N   1      21.492   8.301   1.920  0.00  0.00     0.234 HD
ENDBRANCH  15  18
ENDBRANCH  14  15
ENDBRANCH   4  14
BRANCH   5  20
HETATM   20  O   UNK N   1      23.574  11.453   1.320  0.00  0.00    -0.368 OA
HETATM   21  H   UNK N   1      24.470  11.585   0.971  0.00  0.00     0.212 HD
ENDBRANCH   5  20
ENDBRANCH   1   2
BRANCH   1  22
HETATM   22  C   UNK N   1      21.040  15.327   4.356  0.00  0.00     0.293 C 
HETATM   23  O   UNK N   1      20.674  15.897   5.601  0.00  0.00    -0.356 OA
HETATM   24  C   UNK N   1      21.694  16.781   6.050  0.00  0.00     0.205 C 
HETATM   25  C   UNK N   1      22.148  17.796   4.985  0.00  0.00     0.175 C 
HETATM   26  C   UNK N   1      21.172  17.796   3.817  0.00  0.00     0.210 C 
HETATM   27  C   UNK N   1      21.009  16.383   3.236  0.00  0.00     0.232 C 
BRANCH  25  28
HETATM   28  O   UNK N   1      22.224  19.067   5.558  0.00  0.00    -0.391 OA
HETATM   29  H   UNK N   1      22.851  19.266   6.269  0.00  0.00     0.210 HD
ENDBRANCH  25  28
BRANCH  26  30
HETATM   30  O   UNK N   1      21.570  18.693   2.820  0.00  0.00    -0.253 OA
BRANCH  30  31
HETATM   31  S   UNK N   1      20.283  19.829   2.628  0.00  0.00     0.240 S 
HETATM   32  O   UNK N   1      20.215  20.690   3.898  0.00  0.00    -0.579 OA
HETATM   33  O   UNK N   1      20.607  20.851   1.525  0.00  0.00    -0.579 OA
BRANCH  31  34
HETATM   34  O   UNK N   1      18.729  19.156   2.353  0.00  0.00    -0.274 OA
HETATM   35  H   UNK N   1      18.409  18.989   1.452  0.00  0.00     0.234 HD
ENDBRANCH  31  34
ENDBRANCH  30  31
ENDBRANCH  26  30
BRANCH  27  36
HETATM   36  O   UNK N   1      19.787  16.318   2.557  0.00  0.00    -0.251 OA
BRANCH  36  37
HETATM   37  S   UNK N   1      20.170  16.181   0.883  0.00  0.00     0.241 S 
HETATM   38  O   UNK N   1      19.076  15.344   0.203  0.00  0.00    -0.579 OA
HETATM   39  O   UNK N   1      21.435  15.335   0.698  0.00  0.00    -0.579 OA
BRANCH  37  40
HETATM   40  O   UNK N   1      20.327  17.652   0.014  0.00  0.00    -0.274 OA
HETATM   41  H   UNK N   1      20.879  18.366  -0.345  0.00  0.00     0.234 HD
ENDBRANCH  37  40
ENDBRANCH  36  37
ENDBRANCH  27  36
ENDBRANCH   1  22
TORSDOF 16
ENDMDL
MODEL 9
REMARK VINA RESULT:      -5.6      8.326     10.388
REMARK  16 active torsions:
REMARK  status: ('A' for Active; 'I' for Inactive)
REMARK    1  A    between atoms: S_1  and  O_8 
REMARK    2  A    between atoms: S_1  and  O_14 
REMARK    3  A    between atoms: S_2  and  O_9 
REMARK    4  A    between atoms: S_2  and  O_15 
REMARK    5  A    between atoms: S_3  and  O_10 
REMARK    6  A    between atoms: S_3  and  O_16 
REMARK    7  A    between atoms: S_4  and  O_11 
REMARK    8  A    between atoms: S_4  and  O_17 
REMARK    9  A    between atoms: C_26  and  O_5 
REMARK   10  A    between atoms: C_29  and  O_5 
REMARK   11  A    between atoms: C_27  and  O_8 
REMARK   12  A    between atoms: C_28  and  O_9 
REMARK   13  A    between atoms: C_30  and  O_10 
REMARK   14  A    between atoms: C_31  and  O_11 
REMARK   15  A    between atoms: C_32  and  O_12 
REMARK   16  A    between atoms: C_34  and  O_13 
ROOT
HETATM    1  O   UNK N   1      21.497  15.462   5.410  0.00  0.00    -0.348 OA
ENDROOT
BRANCH   1   2
HETATM    2  C   UNK N   1      21.684  14.081   5.569  0.00  0.00     0.181 C 
HETATM    3  C   UNK N   1      22.829  13.824   6.558  0.00  0.00     0.210 C 
HETATM    4  C   UNK N   1      22.323  13.302   7.908  0.00  0.00     0.232 C 
HETATM    5  C   UNK N   1      20.998  13.971   8.322  0.00  0.00     0.289 C 
HETATM    6  O   UNK N   1      20.003  14.076   7.303  0.00  0.00    -0.356 OA
HETATM    7  C   UNK N   1      20.392  13.449   6.100  0.00  0.00     0.205 C 
BRANCH   3   8
HETATM    8  O   UNK N   1      23.713  12.889   6.008  0.00  0.00    -0.253 OA
BRANCH   8   9
HETATM    9  S   UNK N   1      25.258  13.650   5.916  0.00  0.00     0.240 S 
HETATM   10  O   UNK N   1      26.313  12.561   5.677  0.00  0.00    -0.579 OA
HETATM   11  O   UNK N   1      25.357  14.528   4.660  0.00  0.00    -0.579 OA
BRANCH   9  12
HETATM   12  O   UNK N   1      25.731  14.563   7.290  0.00  0.00    -0.274 OA
HETATM   13  H   UNK N   1      25.918  14.316   8.209  0.00  0.00     0.234 HD
ENDBRANCH   9  12
ENDBRANCH   8   9
ENDBRANCH   3   8
BRANCH   4  14
HETATM   14  O   UNK N   1      23.299  13.488   8.896  0.00  0.00    -0.251 OA
BRANCH  14  15
HETATM   15  S   UNK N   1      23.574  11.946   9.618  0.00  0.00     0.241 S 
HETATM   16  O   UNK N   1      23.858  10.883   8.543  0.00  0.00    -0.579 OA
HETATM   17  O   UNK N   1      24.893  12.023  10.401  0.00  0.00    -0.579 OA
BRANCH  15  18
HETATM   18  O   UNK N   1      22.351  11.388  10.686  0.00  0.00    -0.274 OA
HETATM   19  H   UNK N   1      22.266  10.440  10.875  0.00  0.00     0.234 HD
ENDBRANCH  15  18
ENDBRANCH  14  15
ENDBRANCH   4  14
BRANCH   5  20
HETATM   20  O   UNK N   1      20.461  13.314   9.427  0.00  0.00    -0.368 OA
HETATM   21  H   UNK N   1      20.240  12.370   9.384  0.00  0.00     0.212 HD
ENDBRANCH   5  20
ENDBRANCH   1   2
BRANCH   1  22
HETATM   22  C   UNK N   1      21.977  15.771   4.125  0.00  0.00     0.293 C 
HETATM   23  O   UNK N   1      21.055  15.377   3.123  0.00  0.00    -0.356 OA
HETATM   24  C   UNK N   1      19.785  15.964   3.372  0.00  0.00     0.205 C 
HETATM   25  C   UNK N   1      19.841  17.481   3.633  0.00  0.00     0.175 C 
HETATM   26  C   UNK N   1      21.214  18.022   3.254  0.00  0.00     0.210 C 
HETATM   27  C   UNK N   1      22.327  17.265   3.994  0.00  0.00     0.232 C 
BRANCH  25  28
HETATM   28  O   UNK N   1      18.844  18.118   2.893  0.00  0.00    -0.391 OA
HETATM   29  H   UNK N   1      18.136  18.620   3.323  0.00  0.00     0.210 HD
ENDBRANCH  25  28
BRANCH  26  30
HETATM   30  O   UNK N   1      21.306  19.395   3.502  0.00  0.00    -0.253 OA
BRANCH  30  31
HETATM   31  S   UNK N   1      21.431  20.173   1.965  0.00  0.00     0.240 S 
HETATM   32  O   UNK N   1      20.796  21.566   2.083  0.00  0.00    -0.579 OA
HETATM   33  O   UNK N   1      22.897  20.480   1.617  0.00  0.00    -0.579 OA
BRANCH  31  34
HETATM   34  O   UNK N   1      20.686  19.354   0.653  0.00  0.00    -0.274 OA
HETATM   35  H   UNK N   1      21.145  18.639   0.186  0.00  0.00     0.234 HD
ENDBRANCH  31  34
ENDBRANCH  30  31
ENDBRANCH  26  30
BRANCH  27  36
HETATM   36  O   UNK N   1      23.519  17.411   3.275  0.00  0.00    -0.251 OA
BRANCH  36  37
HETATM   37  S   UNK N   1      24.705  17.941   4.407  0.00  0.00     0.241 S 
HETATM   38  O   UNK N   1      24.441  19.420   4.726  0.00  0.00    -0.579 OA
HETATM   39  O   UNK N   1      26.091  17.956   3.752  0.00  0.00    -0.579 OA
BRANCH  37  40
HETATM   40  O   UNK N   1      24.779  17.085   5.893  0.00  0.00    -0.274 OA
HETATM   41  H   UNK N   1      25.128  16.357   6.431  0.00  0.00     0.234 HD
ENDBRANCH  37  40
ENDBRANCH  36  37
ENDBRANCH  27  36
ENDBRANCH   1  22
TORSDOF 16
ENDMDL
