MODEL 1
REMARK VINA RESULT:      -8.3      0.000      0.000
REMARK  4 active torsions:
REMARK  status: ('A' for Active; 'I' for Inactive)
REMARK    1  A    between atoms: C_14  and  O_3 
REMARK    2  A    between atoms: O_5  and  C_27 
REMARK    3  A    between atoms: C_11  and  C_23 
REMARK    4  A    between atoms: C_23  and  C_27 
ROOT
HETATM    1  F   UNK N   1      29.565  21.375  -3.484  0.00  0.00    -0.239 F 
HETATM    2  O   UNK N   1      26.060  23.901  -3.688  0.00  0.00    -0.381 OA
HETATM    3  O   UNK N   1      35.064  19.542  -4.841  0.00  0.00    -0.293 OA
HETATM    4  C   UNK N   1      28.309  24.582  -4.213  0.00  0.00     0.001 C 
HETATM    5  C   UNK N   1      28.370  23.395  -5.175  0.00  0.00     0.005 C 
HETATM    6  C   UNK N   1      29.798  22.873  -5.366  0.00  0.00     0.034 C 
HETATM    7  C   UNK N   1      30.359  22.407  -3.974  0.00  0.00     0.144 C 
HETATM    8  C   UNK N   1      26.799  24.917  -4.310  0.00  0.00     0.128 C 
HETATM    9  C   UNK N   1      28.837  24.151  -2.838  0.00  0.00     0.048 C 
HETATM   10  C   UNK N   1      31.809  21.860  -4.186  0.00  0.00     0.019 C 
HETATM   11  C   UNK N   1      30.273  23.589  -2.960  0.00  0.00     0.160 C 
HETATM   12  C   UNK N   1      27.633  23.908  -6.403  0.00  0.00     0.009 C 
HETATM   13  C   UNK N   1      26.553  24.841  -5.828  0.00  0.00     0.047 C 
HETATM   14  C   UNK N   1      29.816  21.761  -6.437  0.00  0.00     0.013 C 
HETATM   15  C   UNK N   1      29.166  25.760  -4.724  0.00  0.00     0.019 C 
HETATM   16  C   UNK N   1      31.782  20.760  -5.246  0.00  0.00    -0.065 C 
HETATM   17  C   UNK N   1      30.531  20.479  -6.022  0.00  0.00     0.036 C 
HETATM   18  C   UNK N   1      32.433  21.252  -2.919  0.00  0.00     0.025 C 
HETATM   19  C   UNK N   1      32.723  22.996  -4.665  0.00  0.00     0.023 C 
HETATM   20  C   UNK N   1      33.872  20.753  -3.188  0.00  0.00     0.084 C 
HETATM   21  C   UNK N   1      32.849  19.973  -5.438  0.00  0.00     0.053 C 
HETATM   22  C   UNK N   1      34.008  20.067  -4.530  0.00  0.00     0.149 C 
HETATM   23  H   UNK N   1      25.598  23.196  -3.208  0.00  0.00     0.211 HD
ENDROOT
BRANCH   8  24
HETATM   24  C   UNK N   1      26.333  26.247  -3.738  0.00  0.00     0.184 C 
HETATM   25  O   UNK N   1      26.316  26.425  -2.530  0.00  0.00    -0.292 OA
BRANCH  24  26
HETATM   26  C   UNK N   1      25.872  27.370  -4.632  0.00  0.00     0.245 C 
BRANCH  26  27
HETATM   27  O   UNK N   1      25.210  28.375  -3.923  0.00  0.00    -0.393 OA
HETATM   28  H   UNK N   1      25.508  29.258  -3.651  0.00  0.00     0.209 HD
ENDBRANCH  26  27
ENDBRANCH  24  26
ENDBRANCH   8  24
BRANCH  11  29
HETATM   29  O   UNK N   1      30.712  23.199  -1.693  0.00  0.00    -0.392 OA
HETATM   30  H   UNK N   1      30.318  22.539  -1.102  0.00  0.00     0.210 HD
ENDBRANCH  11  29
TORSDOF 4
ENDMDL
MODEL 2
REMARK VINA RESULT:      -7.8     13.891     14.999
REMARK  4 active torsions:
REMARK  status: ('A' for Active; 'I' for Inactive)
REMARK    1  A    between atoms: C_14  and  O_3 
REMARK    2  A    between atoms: O_5  and  C_27 
REMARK    3  A    between atoms: C_11  and  C_23 
REMARK    4  A    between atoms: C_23  and  C_27 
ROOT
HETATM    1  F   UNK N   1      19.332  15.893   6.141  0.00  0.00    -0.239 F 
HETATM    2  O   UNK N   1      18.786  18.415   2.670  0.00  0.00    -0.381 OA
HETATM    3  O   UNK N   1      22.112  11.992   9.677  0.00  0.00    -0.293 OA
HETATM    4  C   UNK N   1      20.905  17.702   3.563  0.00  0.00     0.001 C 
HETATM    5  C   UNK N   1      20.382  16.267   3.472  0.00  0.00     0.005 C 
HETATM    6  C   UNK N   1      21.029  15.344   4.510  0.00  0.00     0.034 C 
HETATM    7  C   UNK N   1      20.710  15.894   5.947  0.00  0.00     0.144 C 
HETATM    8  C   UNK N   1      20.151  18.329   2.364  0.00  0.00     0.128 C 
HETATM    9  C   UNK N   1      20.592  18.271   4.954  0.00  0.00     0.048 C 
HETATM   10  C   UNK N   1      21.360  14.934   6.997  0.00  0.00     0.019 C 
HETATM   11  C   UNK N   1      21.198  17.372   6.057  0.00  0.00     0.160 C 
HETATM   12  C   UNK N   1      20.572  15.923   2.002  0.00  0.00     0.009 C 
HETATM   13  C   UNK N   1      20.341  17.259   1.273  0.00  0.00     0.047 C 
HETATM   14  C   UNK N   1      20.559  13.891   4.291  0.00  0.00     0.013 C 
HETATM   15  C   UNK N   1      22.432  17.755   3.340  0.00  0.00     0.019 C 
HETATM   16  C   UNK N   1      20.865  13.510   6.751  0.00  0.00    -0.065 C 
HETATM   17  C   UNK N   1      20.039  13.188   5.542  0.00  0.00     0.036 C 
HETATM   18  C   UNK N   1      21.017  15.286   8.454  0.00  0.00     0.025 C 
HETATM   19  C   UNK N   1      22.887  14.967   6.849  0.00  0.00     0.023 C 
HETATM   20  C   UNK N   1      21.709  14.317   9.442  0.00  0.00     0.084 C 
HETATM   21  C   UNK N   1      21.086  12.546   7.655  0.00  0.00     0.053 C 
HETATM   22  C   UNK N   1      21.684  12.882   8.960  0.00  0.00     0.149 C 
HETATM   23  H   UNK N   1      17.860  18.494   2.948  0.00  0.00     0.211 HD
ENDROOT
BRANCH   8  24
HETATM   24  C   UNK N   1      20.606  19.698   1.882  0.00  0.00     0.184 C 
HETATM   25  O   UNK N   1      20.960  19.857   0.724  0.00  0.00    -0.292 OA
BRANCH  24  26
HETATM   26  C   UNK N   1      20.646  20.886   2.809  0.00  0.00     0.245 C 
BRANCH  26  27
HETATM   27  O   UNK N   1      21.860  21.574   2.739  0.00  0.00    -0.393 OA
HETATM   28  H   UNK N   1      22.352  21.912   1.975  0.00  0.00     0.209 HD
ENDBRANCH  26  27
ENDBRANCH  24  26
ENDBRANCH   8  24
BRANCH  11  29
HETATM   29  O   UNK N   1      20.883  17.916   7.303  0.00  0.00    -0.392 OA
HETATM   30  H   UNK N   1      21.145  18.779   7.661  0.00  0.00     0.210 HD
ENDBRANCH  11  29
TORSDOF 4
ENDMDL
MODEL 3
REMARK VINA RESULT:      -7.7     13.387     16.816
REMARK  4 active torsions:
REMARK  status: ('A' for Active; 'I' for Inactive)
REMARK    1  A    between atoms: C_14  and  O_3 
REMARK    2  A    between atoms: O_5  and  C_27 
REMARK    3  A    between atoms: C_11  and  C_23 
REMARK    4  A    between atoms: C_23  and  C_27 
ROOT
HETATM    1  F   UNK N   1      32.224  15.418   8.002  0.00  0.00    -0.239 F 
HETATM    2  O   UNK N   1      33.917  14.404  11.851  0.00  0.00    -0.381 OA
HETATM    3  O   UNK N   1      32.257  17.129   2.300  0.00  0.00    -0.293 OA
HETATM    4  C   UNK N   1      35.056  14.247   9.736  0.00  0.00     0.001 C 
HETATM    5  C   UNK N   1      34.679  15.711   9.503  0.00  0.00     0.005 C 
HETATM    6  C   UNK N   1      34.557  16.052   8.014  0.00  0.00     0.034 C 
HETATM    7  C   UNK N   1      33.439  15.149   7.378  0.00  0.00     0.144 C 
HETATM    8  C   UNK N   1      35.188  14.255  11.279  0.00  0.00     0.128 C 
HETATM    9  C   UNK N   1      33.971  13.341   9.137  0.00  0.00     0.048 C 
HETATM   10  C   UNK N   1      33.311  15.520   5.863  0.00  0.00     0.019 C 
HETATM   11  C   UNK N   1      33.777  13.648   7.634  0.00  0.00     0.160 C 
HETATM   12  C   UNK N   1      35.717  16.468  10.319  0.00  0.00     0.009 C 
HETATM   13  C   UNK N   1      35.988  15.549  11.524  0.00  0.00     0.047 C 
HETATM   14  C   UNK N   1      34.299  17.564   7.837  0.00  0.00     0.013 C 
HETATM   15  C   UNK N   1      36.407  13.905   9.071  0.00  0.00     0.019 C 
HETATM   16  C   UNK N   1      33.051  17.019   5.731  0.00  0.00    -0.065 C 
HETATM   17  C   UNK N   1      33.121  17.914   6.933  0.00  0.00     0.036 C 
HETATM   18  C   UNK N   1      32.160  14.796   5.144  0.00  0.00     0.025 C 
HETATM   19  C   UNK N   1      34.616  15.171   5.136  0.00  0.00     0.023 C 
HETATM   20  C   UNK N   1      32.103  15.185   3.648  0.00  0.00     0.084 C 
HETATM   21  C   UNK N   1      32.670  17.544   4.559  0.00  0.00     0.053 C 
HETATM   22  C   UNK N   1      32.360  16.659   3.421  0.00  0.00     0.149 C 
HETATM   23  H   UNK N   1      33.012  14.463  12.196  0.00  0.00     0.211 HD
ENDROOT
BRANCH   8  24
HETATM   24  C   UNK N   1      35.856  13.058  11.937  0.00  0.00     0.184 C 
HETATM   25  O   UNK N   1      37.069  13.029  12.075  0.00  0.00    -0.292 OA
BRANCH  24  26
HETATM   26  C   UNK N   1      35.054  11.877  12.424  0.00  0.00     0.245 C 
BRANCH  26  27
HETATM   27  O   UNK N   1      34.242  12.200  13.513  0.00  0.00    -0.393 OA
HETATM   28  H   UNK N   1      34.121  11.753  14.366  0.00  0.00     0.209 HD
ENDBRANCH  26  27
ENDBRANCH  24  26
ENDBRANCH   8  24
BRANCH  11  29
HETATM   29  O   UNK N   1      32.777  12.813   7.130  0.00  0.00    -0.392 OA
HETATM   30  H   UNK N   1      32.869  12.094   6.486  0.00  0.00     0.210 HD
ENDBRANCH  11  29
TORSDOF 4
ENDMDL
MODEL 4
REMARK VINA RESULT:      -7.5     12.855     16.423
REMARK  4 active torsions:
REMARK  status: ('A' for Active; 'I' for Inactive)
REMARK    1  A    between atoms: C_14  and  O_3 
REMARK    2  A    between atoms: O_5  and  C_27 
REMARK    3  A    between atoms: C_11  and  C_23 
REMARK    4  A    between atoms: C_23  and  C_27 
ROOT
HETATM    1  F   UNK N   1      33.141  17.403   8.058  0.00  0.00    -0.239 F 
HETATM    2  O   UNK N   1      36.445  15.537  10.133  0.00  0.00    -0.381 OA
HETATM    3  O   UNK N   1      28.730  17.833   4.082  0.00  0.00    -0.293 OA
HETATM    4  C   UNK N   1      34.659  14.374   9.013  0.00  0.00     0.001 C 
HETATM    5  C   UNK N   1      34.994  15.201   7.770  0.00  0.00     0.005 C 
HETATM    6  C   UNK N   1      33.778  15.403   6.860  0.00  0.00     0.034 C 
HETATM    7  C   UNK N   1      32.661  16.158   7.667  0.00  0.00     0.144 C 
HETATM    8  C   UNK N   1      36.070  14.277   9.647  0.00  0.00     0.128 C 
HETATM    9  C   UNK N   1      33.579  15.097   9.830  0.00  0.00     0.048 C 
HETATM   10  C   UNK N   1      31.433  16.374   6.722  0.00  0.00     0.019 C 
HETATM   11  C   UNK N   1      32.325  15.355   8.962  0.00  0.00     0.160 C 
HETATM   12  C   UNK N   1      36.201  14.478   7.190  0.00  0.00     0.009 C 
HETATM   13  C   UNK N   1      36.947  13.944   8.426  0.00  0.00     0.047 C 
HETATM   14  C   UNK N   1      34.201  16.133   5.568  0.00  0.00     0.013 C 
HETATM   15  C   UNK N   1      34.133  12.974   8.628  0.00  0.00     0.019 C 
HETATM   16  C   UNK N   1      31.890  17.104   5.460  0.00  0.00    -0.065 C 
HETATM   17  C   UNK N   1      33.348  17.346   5.206  0.00  0.00     0.036 C 
HETATM   18  C   UNK N   1      30.309  17.216   7.349  0.00  0.00     0.025 C 
HETATM   19  C   UNK N   1      30.841  15.014   6.328  0.00  0.00     0.023 C 
HETATM   20  C   UNK N   1      29.117  17.372   6.376  0.00  0.00     0.084 C 
HETATM   21  C   UNK N   1      30.994  17.615   4.606  0.00  0.00     0.053 C 
HETATM   22  C   UNK N   1      29.559  17.603   4.947  0.00  0.00     0.149 C 
HETATM   23  H   UNK N   1      36.638  16.417  10.492  0.00  0.00     0.211 HD
ENDROOT
BRANCH   8  24
HETATM   24  C   UNK N   1      36.272  13.268  10.767  0.00  0.00     0.184 C 
HETATM   25  O   UNK N   1      36.762  12.174  10.529  0.00  0.00    -0.292 OA
BRANCH  24  26
HETATM   26  C   UNK N   1      35.870  13.575  12.187  0.00  0.00     0.245 C 
BRANCH  26  27
HETATM   27  O   UNK N   1      36.852  14.292  12.874  0.00  0.00    -0.393 OA
HETATM   28  H   UNK N   1      37.364  14.064  13.666  0.00  0.00     0.209 HD
ENDBRANCH  26  27
ENDBRANCH  24  26
ENDBRANCH   8  24
BRANCH  11  29
HETATM   29  O   UNK N   1      31.373  16.022   9.736  0.00  0.00    -0.392 OA
HETATM   30  H   UNK N   1      31.526  16.660  10.451  0.00  0.00     0.210 HD
ENDBRANCH  11  29
TORSDOF 4
ENDMDL
MODEL 5
REMARK VINA RESULT:      -7.2     17.216     19.964
REMARK  4 active torsions:
REMARK  status: ('A' for Active; 'I' for Inactive)
REMARK    1  A    between atoms: C_14  and  O_3 
REMARK    2  A    between atoms: O_5  and  C_27 
REMARK    3  A    between atoms: C_11  and  C_23 
REMARK    4  A    between atoms: C_23  and  C_27 
ROOT
HETATM    1  F   UNK N   1      34.496  12.696  13.248  0.00  0.00    -0.239 F 
HETATM    2  O   UNK N   1      33.102  15.617  10.380  0.00  0.00    -0.381 OA
HETATM    3  O   UNK N   1      37.534   7.954  15.180  0.00  0.00    -0.293 OA
HETATM    4  C   UNK N   1      35.165  14.384  10.233  0.00  0.00     0.001 C 
HETATM    5  C   UNK N   1      34.334  13.110  10.391  0.00  0.00     0.005 C 
HETATM    6  C   UNK N   1      35.131  11.970  11.033  0.00  0.00     0.034 C 
HETATM    7  C   UNK N   1      35.608  12.425  12.459  0.00  0.00     0.144 C 
HETATM    8  C   UNK N   1      34.135  15.276   9.496  0.00  0.00     0.128 C 
HETATM    9  C   UNK N   1      35.633  14.861  11.615  0.00  0.00     0.048 C 
HETATM   10  C   UNK N   1      36.404  11.246  13.110  0.00  0.00     0.019 C 
HETATM   11  C   UNK N   1      36.428  13.746  12.333  0.00  0.00     0.160 C 
HETATM   12  C   UNK N   1      33.778  12.885   8.992  0.00  0.00     0.009 C 
HETATM   13  C   UNK N   1      33.572  14.307   8.438  0.00  0.00     0.047 C 
HETATM   14  C   UNK N   1      34.285  10.679  11.052  0.00  0.00     0.013 C 
HETATM   15  C   UNK N   1      36.407  14.135   9.350  0.00  0.00     0.019 C 
HETATM   16  C   UNK N   1      35.532   9.992  13.116  0.00  0.00    -0.065 C 
HETATM   17  C   UNK N   1      34.212   9.978  12.406  0.00  0.00     0.036 C 
HETATM   18  C   UNK N   1      36.824  11.513  14.565  0.00  0.00     0.025 C 
HETATM   19  C   UNK N   1      37.675  10.970  12.294  0.00  0.00     0.023 C 
HETATM   20  C   UNK N   1      37.627  10.323  15.142  0.00  0.00     0.084 C 
HETATM   21  C   UNK N   1      35.892   8.916  13.829  0.00  0.00     0.053 C 
HETATM   22  C   UNK N   1      37.059   8.983  14.728  0.00  0.00     0.149 C 
HETATM   23  H   UNK N   1      32.438  15.862  11.042  0.00  0.00     0.211 HD
ENDROOT
BRANCH   8  24
HETATM   24  C   UNK N   1      34.643  16.560   8.856  0.00  0.00     0.184 C 
HETATM   25  O   UNK N   1      35.147  17.433   9.545  0.00  0.00    -0.292 OA
BRANCH  24  26
HETATM   26  C   UNK N   1      34.530  16.798   7.372  0.00  0.00     0.245 C 
BRANCH  26  27
HETATM   27  O   UNK N   1      34.540  18.157   7.050  0.00  0.00    -0.393 OA
HETATM   28  H   UNK N   1      34.808  18.929   7.574  0.00  0.00     0.209 HD
ENDBRANCH  26  27
ENDBRANCH  24  26
ENDBRANCH   8  24
BRANCH  11  29
HETATM   29  O   UNK N   1      36.826  14.214  13.587  0.00  0.00    -0.392 OA
HETATM   30  H   UNK N   1      37.641  14.008  14.070  0.00  0.00     0.210 HD
ENDBRANCH  11  29
TORSDOF 4
ENDMDL
MODEL 6
REMARK VINA RESULT:      -7.2      1.807      7.090
REMARK  4 active torsions:
REMARK  status: ('A' for Active; 'I' for Inactive)
REMARK    1  A    between atoms: C_14  and  O_3 
REMARK    2  A    between atoms: O_5  and  C_27 
REMARK    3  A    between atoms: C_11  and  C_23 
REMARK    4  A    between atoms: C_23  and  C_27 
ROOT
HETATM    1  F   UNK N   1      29.999  24.985  -5.968  0.00  0.00    -0.239 F 
HETATM    2  O   UNK N   1      33.135  22.012  -5.785  0.00  0.00    -0.381 OA
HETATM    3  O   UNK N   1      24.473  27.136  -5.441  0.00  0.00    -0.293 OA
HETATM    4  C   UNK N   1      31.113  21.996  -4.478  0.00  0.00     0.001 C 
HETATM    5  C   UNK N   1      30.344  22.118  -5.794  0.00  0.00     0.005 C 
HETATM    6  C   UNK N   1      28.991  22.817  -5.616  0.00  0.00     0.034 C 
HETATM    7  C   UNK N   1      29.238  24.263  -5.055  0.00  0.00     0.144 C 
HETATM    8  C   UNK N   1      32.342  21.192  -4.970  0.00  0.00     0.128 C 
HETATM    9  C   UNK N   1      31.382  23.398  -3.914  0.00  0.00     0.048 C 
HETATM   10  C   UNK N   1      27.852  24.972  -4.895  0.00  0.00     0.019 C 
HETATM   11  C   UNK N   1      30.056  24.172  -3.729  0.00  0.00     0.160 C 
HETATM   12  C   UNK N   1      30.340  20.692  -6.325  0.00  0.00     0.009 C 
HETATM   13  C   UNK N   1      31.686  20.114  -5.853  0.00  0.00     0.047 C 
HETATM   14  C   UNK N   1      28.209  22.800  -6.947  0.00  0.00     0.013 C 
HETATM   15  C   UNK N   1      30.311  21.189  -3.434  0.00  0.00     0.019 C 
HETATM   16  C   UNK N   1      27.113  24.940  -6.232  0.00  0.00    -0.065 C 
HETATM   17  C   UNK N   1      27.659  24.154  -7.386  0.00  0.00     0.036 C 
HETATM   18  C   UNK N   1      27.956  26.446  -4.470  0.00  0.00     0.025 C 
HETATM   19  C   UNK N   1      27.015  24.233  -3.842  0.00  0.00     0.023 C 
HETATM   20  C   UNK N   1      26.554  27.080  -4.306  0.00  0.00     0.084 C 
HETATM   21  C   UNK N   1      26.015  25.683  -6.420  0.00  0.00     0.053 C 
HETATM   22  C   UNK N   1      25.590  26.647  -5.388  0.00  0.00     0.149 C 
HETATM   23  H   UNK N   1      33.671  22.632  -6.304  0.00  0.00     0.211 HD
ENDROOT
BRANCH   8  24
HETATM   24  C   UNK N   1      33.247  20.570  -3.917  0.00  0.00     0.184 C 
HETATM   25  O   UNK N   1      33.343  21.079  -2.810  0.00  0.00    -0.292 OA
BRANCH  24  26
HETATM   26  C   UNK N   1      34.052  19.329  -4.204  0.00  0.00     0.245 C 
BRANCH  26  27
HETATM   27  O   UNK N   1      33.530  18.199  -3.571  0.00  0.00    -0.393 OA
HETATM   28  H   UNK N   1      33.754  17.790  -2.720  0.00  0.00     0.209 HD
ENDBRANCH  26  27
ENDBRANCH  24  26
ENDBRANCH   8  24
BRANCH  11  29
HETATM   29  O   UNK N   1      30.343  25.442  -3.226  0.00  0.00    -0.392 OA
HETATM   30  H   UNK N   1      30.222  25.767  -2.320  0.00  0.00     0.210 HD
ENDBRANCH  11  29
TORSDOF 4
ENDMDL
MODEL 7
REMARK VINA RESULT:      -7.1     10.886     14.109
REMARK  4 active torsions:
REMARK  status: ('A' for Active; 'I' for Inactive)
REMARK    1  A    between atoms: C_14  and  O_3 
REMARK    2  A    between atoms: O_5  and  C_27 
REMARK    3  A    between atoms: C_11  and  C_23 
REMARK    4  A    between atoms: C_23  and  C_27 
ROOT
HETATM    1  F   UNK N   1      30.767  18.134   5.029  0.00  0.00    -0.239 F 
HETATM    2  O   UNK N   1      34.583  17.917   7.055  0.00  0.00    -0.381 OA
HETATM    3  O   UNK N   1      25.695  16.065   2.697  0.00  0.00    -0.293 OA
HETATM    4  C   UNK N   1      32.771  16.352   7.311  0.00  0.00     0.001 C 
HETATM    5  C   UNK N   1      32.779  16.200   5.789  0.00  0.00     0.005 C 
HETATM    6  C   UNK N   1      31.405  15.812   5.234  0.00  0.00     0.034 C 
HETATM    7  C   UNK N   1      30.371  16.933   5.610  0.00  0.00     0.144 C 
HETATM    8  C   UNK N   1      34.273  16.643   7.551  0.00  0.00     0.128 C 
HETATM    9  C   UNK N   1      31.779  17.454   7.707  0.00  0.00     0.048 C 
HETATM   10  C   UNK N   1      28.977  16.534   5.022  0.00  0.00     0.019 C 
HETATM   11  C   UNK N   1      30.368  17.138   7.157  0.00  0.00     0.160 C 
HETATM   12  C   UNK N   1      33.937  15.244   5.545  0.00  0.00     0.009 C 
HETATM   13  C   UNK N   1      34.950  15.591   6.651  0.00  0.00     0.047 C 
HETATM   14  C   UNK N   1      31.502  15.551   3.716  0.00  0.00     0.013 C 
HETATM   15  C   UNK N   1      32.349  15.037   8.002  0.00  0.00     0.019 C 
HETATM   16  C   UNK N   1      29.114  16.292   3.521  0.00  0.00    -0.065 C 
HETATM   17  C   UNK N   1      30.465  16.284   2.870  0.00  0.00     0.036 C 
HETATM   18  C   UNK N   1      27.895  17.611   5.210  0.00  0.00     0.025 C 
HETATM   19  C   UNK N   1      28.484  15.246   5.696  0.00  0.00     0.023 C 
HETATM   20  C   UNK N   1      26.538  17.146   4.631  0.00  0.00     0.084 C 
HETATM   21  C   UNK N   1      28.026  16.171   2.748  0.00  0.00     0.053 C 
HETATM   22  C   UNK N   1      26.687  16.412   3.317  0.00  0.00     0.149 C 
HETATM   23  H   UNK N   1      34.734  18.821   6.739  0.00  0.00     0.211 HD
ENDROOT
BRANCH   8  24
HETATM   24  C   UNK N   1      34.788  16.563   8.980  0.00  0.00     0.184 C 
HETATM   25  O   UNK N   1      34.615  17.495   9.750  0.00  0.00    -0.292 OA
BRANCH  24  26
HETATM   26  C   UNK N   1      35.530  15.350   9.483  0.00  0.00     0.245 C 
BRANCH  26  27
HETATM   27  O   UNK N   1      36.610  15.690  10.301  0.00  0.00    -0.393 OA
HETATM   28  H   UNK N   1      36.633  16.091  11.184  0.00  0.00     0.209 HD
ENDBRANCH  26  27
ENDBRANCH  24  26
ENDBRANCH   8  24
BRANCH  11  29
HETATM   29  O   UNK N   1      29.500  18.167   7.528  0.00  0.00    -0.392 OA
HETATM   30  H   UNK N   1      29.710  18.978   8.016  0.00  0.00     0.210 HD
ENDBRANCH  11  29
TORSDOF 4
ENDMDL
MODEL 8
REMARK VINA RESULT:      -7.1     10.876     13.877
REMARK  4 active torsions:
REMARK  status: ('A' for Active; 'I' for Inactive)
REMARK    1  A    between atoms: C_14  and  O_3 
REMARK    2  A    between atoms: O_5  and  C_27 
REMARK    3  A    between atoms: C_11  and  C_23 
REMARK    4  A    between atoms: C_23  and  C_27 
ROOT
HETATM    1  F   UNK N   1      31.226  15.706   3.355  0.00  0.00    -0.239 F 
HETATM    2  O   UNK N   1      34.730  16.436   5.783  0.00  0.00    -0.381 OA
HETATM    3  O   UNK N   1      25.713  13.806   2.150  0.00  0.00    -0.293 OA
HETATM    4  C   UNK N   1      32.477  16.226   6.604  0.00  0.00     0.001 C 
HETATM    5  C   UNK N   1      32.406  14.888   5.866  0.00  0.00     0.005 C 
HETATM    6  C   UNK N   1      30.976  14.527   5.450  0.00  0.00     0.034 C 
HETATM    7  C   UNK N   1      30.428  15.646   4.493  0.00  0.00     0.144 C 
HETATM    8  C   UNK N   1      33.985  16.249   6.955  0.00  0.00     0.128 C 
HETATM    9  C   UNK N   1      31.961  17.342   5.686  0.00  0.00     0.048 C 
HETATM   10  C   UNK N   1      28.975  15.256   4.062  0.00  0.00     0.019 C 
HETATM   11  C   UNK N   1      30.524  17.030   5.207  0.00  0.00     0.160 C 
HETATM   12  C   UNK N   1      33.132  13.937   6.805  0.00  0.00     0.009 C 
HETATM   13  C   UNK N   1      34.218  14.811   7.458  0.00  0.00     0.047 C 
HETATM   14  C   UNK N   1      30.948  13.116   4.823  0.00  0.00     0.013 C 
HETATM   15  C   UNK N   1      31.615  16.203   7.886  0.00  0.00     0.019 C 
HETATM   16  C   UNK N   1      28.992  13.861   3.442  0.00  0.00    -0.065 C 
HETATM   17  C   UNK N   1      30.236  13.025   3.476  0.00  0.00     0.036 C 
HETATM   18  C   UNK N   1      28.363  16.207   3.019  0.00  0.00     0.025 C 
HETATM   19  C   UNK N   1      28.058  15.249   5.292  0.00  0.00     0.023 C 
HETATM   20  C   UNK N   1      26.921  15.783   2.654  0.00  0.00     0.084 C 
HETATM   21  C   UNK N   1      27.923  13.396   2.781  0.00  0.00     0.053 C 
HETATM   22  C   UNK N   1      26.773  14.283   2.523  0.00  0.00     0.149 C 
HETATM   23  H   UNK N   1      35.195  16.612   4.950  0.00  0.00     0.211 HD
ENDROOT
BRANCH   8  24
HETATM   24  C   UNK N   1      34.457  17.275   7.974  0.00  0.00     0.184 C 
HETATM   25  O   UNK N   1      34.719  18.415   7.624  0.00  0.00    -0.292 OA
BRANCH  24  26
HETATM   26  C   UNK N   1      34.627  16.919   9.429  0.00  0.00     0.245 C 
BRANCH  26  27
HETATM   27  O   UNK N   1      35.540  17.755  10.077  0.00  0.00    -0.393 OA
HETATM   28  H   UNK N   1      36.510  17.746  10.084  0.00  0.00     0.209 HD
ENDBRANCH  26  27
ENDBRANCH  24  26
ENDBRANCH   8  24
BRANCH  11  29
HETATM   29  O   UNK N   1      30.096  18.061   4.368  0.00  0.00    -0.392 OA
HETATM   30  H   UNK N   1      30.554  18.433   3.598  0.00  0.00     0.210 HD
ENDBRANCH  11  29
TORSDOF 4
ENDMDL
MODEL 9
REMARK VINA RESULT:      -7.1     19.412     22.696
REMARK  4 active torsions:
REMARK  status: ('A' for Active; 'I' for Inactive)
REMARK    1  A    between atoms: C_14  and  O_3 
REMARK    2  A    between atoms: O_5  and  C_27 
REMARK    3  A    between atoms: C_11  and  C_23 
REMARK    4  A    between atoms: C_23  and  C_27 
ROOT
HETATM    1  F   UNK N   1      37.711  11.726  14.649  0.00  0.00    -0.239 F 
HETATM    2  O   UNK N   1      38.575  13.653  10.875  0.00  0.00    -0.381 OA
HETATM    3  O   UNK N   1      34.308   9.672  19.082  0.00  0.00    -0.293 OA
HETATM    4  C   UNK N   1      36.505  12.568  11.451  0.00  0.00     0.001 C 
HETATM    5  C   UNK N   1      36.466  13.457  12.696  0.00  0.00     0.005 C 
HETATM    6  C   UNK N   1      35.701  12.806  13.853  0.00  0.00     0.034 C 
HETATM    7  C   UNK N   1      36.411  11.457  14.234  0.00  0.00     0.144 C 
HETATM    8  C   UNK N   1      37.238  13.521  10.475  0.00  0.00     0.128 C 
HETATM    9  C   UNK N   1      37.208  11.247  11.791  0.00  0.00     0.048 C 
HETATM   10  C   UNK N   1      35.632  10.812  15.429  0.00  0.00     0.019 C 
HETATM   11  C   UNK N   1      36.500  10.544  12.973  0.00  0.00     0.160 C 
HETATM   12  C   UNK N   1      35.943  14.781  12.157  0.00  0.00     0.009 C 
HETATM   13  C   UNK N   1      36.517  14.858  10.731  0.00  0.00     0.047 C 
HETATM   14  C   UNK N   1      35.587  13.794  15.033  0.00  0.00     0.013 C 
HETATM   15  C   UNK N   1      35.080  12.253  10.945  0.00  0.00     0.019 C 
HETATM   16  C   UNK N   1      35.547  11.817  16.576  0.00  0.00    -0.065 C 
HETATM   17  C   UNK N   1      36.010  13.231  16.387  0.00  0.00     0.036 C 
HETATM   18  C   UNK N   1      36.297   9.543  15.988  0.00  0.00     0.025 C 
HETATM   19  C   UNK N   1      34.212  10.444  14.978  0.00  0.00     0.023 C 
HETATM   20  C   UNK N   1      35.467   8.942  17.146  0.00  0.00     0.084 C 
HETATM   21  C   UNK N   1      35.141  11.430  17.792  0.00  0.00     0.053 C 
HETATM   22  C   UNK N   1      34.908  10.001  18.071  0.00  0.00     0.149 C 
HETATM   23  H   UNK N   1      39.500  13.675  11.166  0.00  0.00     0.211 HD
ENDROOT
BRANCH   8  24
HETATM   24  C   UNK N   1      37.229  13.161   8.997  0.00  0.00     0.184 C 
HETATM   25  O   UNK N   1      36.514  13.773   8.219  0.00  0.00    -0.292 OA
BRANCH  24  26
HETATM   26  C   UNK N   1      38.082  12.044   8.453  0.00  0.00     0.245 C 
BRANCH  26  27
HETATM   27  O   UNK N   1      39.448  12.304   8.590  0.00  0.00    -0.393 OA
HETATM   28  H   UNK N   1      39.943  13.135   8.521  0.00  0.00     0.209 HD
ENDBRANCH  26  27
ENDBRANCH  24  26
ENDBRANCH   8  24
BRANCH  11  29
HETATM   29  O   UNK N   1      37.174   9.355  13.257  0.00  0.00    -0.392 OA
HETATM   30  H   UNK N   1      37.731   9.154  14.026  0.00  0.00     0.210 HD
ENDBRANCH  11  29
TORSDOF 4
ENDMDL
