REMARK  11 active torsions:
REMARK  status: ('A' for Active; 'I' for Inactive)
REMARK    1  A    between atoms: O_3  and  C_18 
REMARK    2  A    between atoms: O_3  and  C_29 
REMARK    3  A    between atoms: O_4  and  C_19 
REMARK    4  A    between atoms: O_5  and  C_20 
REMARK    5  A    between atoms: N_8  and  C_11 
REMARK    6  A    between atoms: C_11  and  C_18 
REMARK    7  A    between atoms: C_15  and  C_21 
REMARK    8  A    between atoms: C_21  and  C_23 
REMARK    9  A    between atoms: C_25  and  C_26 
REMARK   10  A    between atoms: C_25  and  C_28 
REMARK   11  A    between atoms: C_28  and  C_29 
ROOT
HETATM    1  C   UNK N   1       9.355   1.029  -1.582  0.00  0.00     0.072 C 
ENDROOT
BRANCH   1   2
HETATM    2  C   UNK N   1      10.531   0.378  -0.901  0.00  0.00     0.013 A 
HETATM    3  C   UNK N   1      10.505  -1.022  -0.640  0.00  0.00     0.084 A 
HETATM    4  C   UNK N   1      11.635  -1.633  -0.002  0.00  0.00    -0.018 A 
HETATM    5  C   UNK N   1      12.723  -0.825   0.335  0.00  0.00    -0.006 A 
HETATM    6  C   UNK N   1      11.711  -3.092   0.312  0.00  0.00     0.052 C 
HETATM    7  C   UNK N   1      12.727   0.507   0.075  0.00  0.00     0.082 A 
HETATM    8  C   UNK N   1      14.023  -1.221   0.998  0.00  0.00     0.219 A 
HETATM    9  C   UNK N   1      11.657   1.149  -0.539  0.00  0.00     0.091 A 
HETATM   10  C   UNK N   1      13.983   0.999   0.545  0.00  0.00     0.297 A 
HETATM   11  O   UNK N   1      14.710  -0.008   1.069  0.00  0.00    -0.313 OA
HETATM   12  O   UNK N   1      14.366   2.154   0.489  0.00  0.00    -0.259 OA
BRANCH   3  13
HETATM   13  O   UNK N   1       9.394  -1.715  -1.022  0.00  0.00    -0.355 OA
HETATM   14  C   UNK N   1       9.142  -3.050  -0.807  0.00  0.00     0.210 C 
ENDBRANCH   3  13
BRANCH   9  15
HETATM   15  O   UNK N   1      11.704   2.471  -0.782  0.00  0.00    -0.359 OA
HETATM   16  H   UNK N   1      12.518   2.903  -0.952  0.00  0.00     0.217 HD
ENDBRANCH   9  15
ENDBRANCH   1   2
BRANCH   1  17
HETATM   17  C   UNK N   1       8.724   2.117  -0.755  0.00  0.00    -0.020 C 
HETATM   18  C   UNK N   1       8.112   1.910   0.420  0.00  0.00    -0.087 C 
HETATM   19  C   UNK N   1       7.540   3.078   1.148  0.00  0.00     0.043 C 
BRANCH  18  20
HETATM   20  C   UNK N   1       7.997   0.543   1.037  0.00  0.00     0.043 C 
BRANCH  20  21
HETATM   21  C   UNK N   1       7.103  -0.382   0.217  0.00  0.00     0.115 C 
BRANCH  21  22
HETATM   22  C   UNK N   1       5.675  -0.045   0.458  0.00  0.00     0.259 C 
HETATM   23  O   UNK N   1       4.949  -0.859   1.009  0.00  0.00    -0.265 OA
BRANCH  22  24
HETATM   24  O   UNK N   1       5.210   1.176   0.099  0.00  0.00    -0.320 OA
BRANCH  24  25
HETATM   25  C   UNK N   1       4.082   1.725   0.661  0.00  0.00     0.209 C 
BRANCH  25  26
HETATM   26  C   UNK N   1       2.926   1.692  -0.314  0.00  0.00     0.299 C 
BRANCH  26  27
HETATM   27  N   UNK N   1       1.992   0.666   0.111  0.00  0.00     0.094 N 
HETATM   28  C   UNK N   1       2.311  -0.571  -0.603  0.00  0.00     0.298 C 
HETATM   29  C   UNK N   1       1.243  -1.616  -0.280  0.00  0.00     0.198 C 
HETATM   30  O   UNK N   1      -0.008  -1.152  -0.728  0.00  0.00    -0.388 OA
HETATM   31  C   UNK N   1      -0.338  -0.033   0.059  0.00  0.00     0.198 C 
HETATM   32  C   UNK N   1       0.643   1.104  -0.242  0.00  0.00     0.298 C 
ENDBRANCH  26  27
ENDBRANCH  25  26
ENDBRANCH  24  25
ENDBRANCH  22  24
ENDBRANCH  21  22
ENDBRANCH  20  21
ENDBRANCH  18  20
ENDBRANCH   1  17
TORSDOF 11
