MODEL 1
REMARK VINA RESULT:      -7.5      0.000      0.000
REMARK  11 active torsions:
REMARK  status: ('A' for Active; 'I' for Inactive)
REMARK    1  A    between atoms: O_3  and  C_18 
REMARK    2  A    between atoms: O_3  and  C_29 
REMARK    3  A    between atoms: O_4  and  C_19 
REMARK    4  A    between atoms: O_5  and  C_20 
REMARK    5  A    between atoms: N_8  and  C_11 
REMARK    6  A    between atoms: C_11  and  C_18 
REMARK    7  A    between atoms: C_15  and  C_21 
REMARK    8  A    between atoms: C_21  and  C_23 
REMARK    9  A    between atoms: C_25  and  C_26 
REMARK   10  A    between atoms: C_25  and  C_28 
REMARK   11  A    between atoms: C_28  and  C_29 
ROOT
HETATM    1  C   UNK N   1      27.802  18.039   6.120  0.00  0.00     0.072 C 
ENDROOT
BRANCH   1   2
HETATM    2  C   UNK N   1      29.266  17.684   6.089  0.00  0.00     0.013 A 
HETATM    3  C   UNK N   1      29.953  17.427   7.309  0.00  0.00     0.084 A 
HETATM    4  C   UNK N   1      31.344  17.078   7.266  0.00  0.00    -0.018 A 
HETATM    5  C   UNK N   1      31.970  17.001   6.020  0.00  0.00    -0.006 A 
HETATM    6  C   UNK N   1      32.155  16.785   8.486  0.00  0.00     0.052 C 
HETATM    7  C   UNK N   1      31.295  17.249   4.869  0.00  0.00     0.082 A 
HETATM    8  C   UNK N   1      33.406  16.650   5.705  0.00  0.00     0.219 A 
HETATM    9  C   UNK N   1      29.947  17.593   4.855  0.00  0.00     0.091 A 
HETATM   10  C   UNK N   1      32.238  17.074   3.811  0.00  0.00     0.297 A 
HETATM   11  O   UNK N   1      33.441  16.730   4.312  0.00  0.00    -0.313 OA
HETATM   12  O   UNK N   1      32.012  17.206   2.621  0.00  0.00    -0.259 OA
BRANCH   3  13
HETATM   13  O   UNK N   1      29.239  17.521   8.468  0.00  0.00    -0.355 OA
HETATM   14  C   UNK N   1      29.333  18.515   9.414  0.00  0.00     0.210 C 
ENDBRANCH   3  13
BRANCH   9  15
HETATM   15  O   UNK N   1      29.315  17.826   3.691  0.00  0.00    -0.359 OA
HETATM   16  H   UNK N   1      29.575  17.389   2.904  0.00  0.00     0.217 HD
ENDBRANCH   9  15
ENDBRANCH   1   2
BRANCH   1  17
HETATM   17  C   UNK N   1      27.556  19.501   6.381  0.00  0.00    -0.020 C 
HETATM   18  C   UNK N   1      26.962  20.331   5.511  0.00  0.00    -0.087 C 
HETATM   19  C   UNK N   1      26.764  21.756   5.898  0.00  0.00     0.043 C 
BRANCH  18  20
HETATM   20  C   UNK N   1      26.475  19.870   4.165  0.00  0.00     0.043 C 
BRANCH  20  21
HETATM   21  C   UNK N   1      24.954  19.754   4.115  0.00  0.00     0.115 C 
BRANCH  21  22
HETATM   22  C   UNK N   1      24.420  20.602   3.018  0.00  0.00     0.259 C 
HETATM   23  O   UNK N   1      25.139  20.883   2.070  0.00  0.00    -0.265 OA
BRANCH  22  24
HETATM   24  O   UNK N   1      23.132  21.019   3.066  0.00  0.00    -0.320 OA
BRANCH  24  25
HETATM   25  C   UNK N   1      22.118  20.339   2.434  0.00  0.00     0.209 C 
BRANCH  25  26
HETATM   26  C   UNK N   1      20.972  20.079   3.386  0.00  0.00     0.299 C 
BRANCH  26  27
HETATM   27  N   UNK N   1      20.617  18.674   3.310  0.00  0.00     0.094 N 
HETATM   28  C   UNK N   1      21.765  17.884   3.756  0.00  0.00     0.298 C 
HETATM   29  C   UNK N   1      21.460  16.403   3.537  0.00  0.00     0.198 C 
HETATM   30  O   UNK N   1      21.264  16.169   2.163  0.00  0.00    -0.388 OA
HETATM   31  C   UNK N   1      20.086  16.846   1.794  0.00  0.00     0.198 C 
HETATM   32  C   UNK N   1      20.312  18.356   1.916  0.00  0.00     0.298 C 
ENDBRANCH  26  27
ENDBRANCH  25  26
ENDBRANCH  24  25
ENDBRANCH  22  24
ENDBRANCH  21  22
ENDBRANCH  20  21
ENDBRANCH  18  20
ENDBRANCH   1  17
TORSDOF 11
ENDMDL
MODEL 2
REMARK VINA RESULT:      -7.1      1.524      2.942
REMARK  11 active torsions:
REMARK  status: ('A' for Active; 'I' for Inactive)
REMARK    1  A    between atoms: O_3  and  C_18 
REMARK    2  A    between atoms: O_3  and  C_29 
REMARK    3  A    between atoms: O_4  and  C_19 
REMARK    4  A    between atoms: O_5  and  C_20 
REMARK    5  A    between atoms: N_8  and  C_11 
REMARK    6  A    between atoms: C_11  and  C_18 
REMARK    7  A    between atoms: C_15  and  C_21 
REMARK    8  A    between atoms: C_21  and  C_23 
REMARK    9  A    between atoms: C_25  and  C_26 
REMARK   10  A    between atoms: C_25  and  C_28 
REMARK   11  A    between atoms: C_28  and  C_29 
ROOT
HETATM    1  C   UNK N   1      28.452  17.606   6.265  0.00  0.00     0.072 C 
ENDROOT
BRANCH   1   2
HETATM    2  C   UNK N   1      29.923  17.392   6.014  0.00  0.00     0.013 A 
HETATM    3  C   UNK N   1      30.385  17.179   4.684  0.00  0.00     0.084 A 
HETATM    4  C   UNK N   1      31.788  16.988   4.455  0.00  0.00    -0.018 A 
HETATM    5  C   UNK N   1      32.649  17.023   5.554  0.00  0.00    -0.006 A 
HETATM    6  C   UNK N   1      32.376  16.762   3.100  0.00  0.00     0.052 C 
HETATM    7  C   UNK N   1      32.187  17.229   6.813  0.00  0.00     0.082 A 
HETATM    8  C   UNK N   1      34.152  16.861   5.581  0.00  0.00     0.219 A 
HETATM    9  C   UNK N   1      30.837  17.418   7.090  0.00  0.00     0.091 A 
HETATM   10  C   UNK N   1      33.333  17.207   7.665  0.00  0.00     0.297 A 
HETATM   11  O   UNK N   1      34.448  16.996   6.938  0.00  0.00    -0.313 OA
HETATM   12  O   UNK N   1      33.330  17.358   8.874  0.00  0.00    -0.259 OA
BRANCH   3  13
HETATM   13  O   UNK N   1      29.455  17.175   3.686  0.00  0.00    -0.355 OA
HETATM   14  C   UNK N   1      28.899  16.070   3.083  0.00  0.00     0.210 C 
ENDBRANCH   3  13
BRANCH   9  15
HETATM   15  O   UNK N   1      30.422  17.623   8.352  0.00  0.00    -0.359 OA
HETATM   16  H   UNK N   1      30.368  18.488   8.709  0.00  0.00     0.217 HD
ENDBRANCH   9  15
ENDBRANCH   1   2
BRANCH   1  17
HETATM   17  C   UNK N   1      28.107  19.044   6.547  0.00  0.00    -0.020 C 
HETATM   18  C   UNK N   1      27.589  19.885   5.640  0.00  0.00    -0.087 C 
HETATM   19  C   UNK N   1      27.277  21.283   6.052  0.00  0.00     0.043 C 
BRANCH  18  20
HETATM   20  C   UNK N   1      27.297  19.463   4.226  0.00  0.00     0.043 C 
BRANCH  20  21
HETATM   21  C   UNK N   1      26.653  20.584   3.415  0.00  0.00     0.115 C 
BRANCH  21  22
HETATM   22  C   UNK N   1      25.197  20.322   3.265  0.00  0.00     0.259 C 
HETATM   23  O   UNK N   1      24.604  20.761   2.290  0.00  0.00    -0.265 OA
BRANCH  22  24
HETATM   24  O   UNK N   1      24.558  19.567   4.191  0.00  0.00    -0.320 OA
BRANCH  24  25
HETATM   25  C   UNK N   1      23.538  18.707   3.858  0.00  0.00     0.209 C 
BRANCH  25  26
HETATM   26  C   UNK N   1      22.608  18.497   5.032  0.00  0.00     0.299 C 
BRANCH  26  27
HETATM   27  N   UNK N   1      21.241  18.511   4.547  0.00  0.00     0.094 N 
HETATM   28  C   UNK N   1      20.915  17.175   4.048  0.00  0.00     0.298 C 
HETATM   29  C   UNK N   1      19.533  17.215   3.395  0.00  0.00     0.198 C 
HETATM   30  O   UNK N   1      19.563  18.104   2.304  0.00  0.00    -0.388 OA
HETATM   31  C   UNK N   1      19.760  19.394   2.830  0.00  0.00     0.198 C 
HETATM   32  C   UNK N   1      21.156  19.479   3.454  0.00  0.00     0.298 C 
ENDBRANCH  26  27
ENDBRANCH  25  26
ENDBRANCH  24  25
ENDBRANCH  22  24
ENDBRANCH  21  22
ENDBRANCH  20  21
ENDBRANCH  18  20
ENDBRANCH   1  17
TORSDOF 11
ENDMDL
MODEL 3
REMARK VINA RESULT:      -7.0      3.220     10.018
REMARK  11 active torsions:
REMARK  status: ('A' for Active; 'I' for Inactive)
REMARK    1  A    between atoms: O_3  and  C_18 
REMARK    2  A    between atoms: O_3  and  C_29 
REMARK    3  A    between atoms: O_4  and  C_19 
REMARK    4  A    between atoms: O_5  and  C_20 
REMARK    5  A    between atoms: N_8  and  C_11 
REMARK    6  A    between atoms: C_11  and  C_18 
REMARK    7  A    between atoms: C_15  and  C_21 
REMARK    8  A    between atoms: C_21  and  C_23 
REMARK    9  A    between atoms: C_25  and  C_26 
REMARK   10  A    between atoms: C_25  and  C_28 
REMARK   11  A    between atoms: C_28  and  C_29 
ROOT
HETATM    1  C   UNK N   1      25.678  19.980   3.430  0.00  0.00     0.072 C 
ENDROOT
BRANCH   1   2
HETATM    2  C   UNK N   1      24.327  19.319   3.523  0.00  0.00     0.013 A 
HETATM    3  C   UNK N   1      24.235  17.970   3.971  0.00  0.00     0.084 A 
HETATM    4  C   UNK N   1      22.943  17.355   4.067  0.00  0.00    -0.018 A 
HETATM    5  C   UNK N   1      21.821  18.110   3.720  0.00  0.00    -0.006 A 
HETATM    6  C   UNK N   1      22.736  15.949   4.530  0.00  0.00     0.052 C 
HETATM    7  C   UNK N   1      21.933  19.395   3.297  0.00  0.00     0.082 A 
HETATM    8  C   UNK N   1      20.365  17.703   3.742  0.00  0.00     0.219 A 
HETATM    9  C   UNK N   1      23.161  20.038   3.184  0.00  0.00     0.091 A 
HETATM   10  C   UNK N   1      20.601  19.845   3.041  0.00  0.00     0.297 A 
HETATM   11  O   UNK N   1      19.719  18.860   3.303  0.00  0.00    -0.313 OA
HETATM   12  O   UNK N   1      20.283  20.952   2.645  0.00  0.00    -0.259 OA
BRANCH   3  13
HETATM   13  O   UNK N   1      25.396  17.331   4.294  0.00  0.00    -0.355 OA
HETATM   14  C   UNK N   1      26.158  16.539   3.467  0.00  0.00     0.210 C 
ENDBRANCH   3  13
BRANCH   9  15
HETATM   15  O   UNK N   1      23.226  21.314   2.765  0.00  0.00    -0.359 OA
HETATM   16  H   UNK N   1      23.979  21.843   2.940  0.00  0.00     0.217 HD
ENDBRANCH   9  15
ENDBRANCH   1   2
BRANCH   1  17
HETATM   17  C   UNK N   1      26.040  20.758   4.667  0.00  0.00    -0.020 C 
HETATM   18  C   UNK N   1      27.145  20.544   5.394  0.00  0.00    -0.087 C 
HETATM   19  C   UNK N   1      27.394  21.396   6.592  0.00  0.00     0.043 C 
BRANCH  18  20
HETATM   20  C   UNK N   1      28.152  19.485   5.035  0.00  0.00     0.043 C 
BRANCH  20  21
HETATM   21  C   UNK N   1      28.286  18.429   6.128  0.00  0.00     0.115 C 
BRANCH  21  22
HETATM   22  C   UNK N   1      29.359  17.465   5.766  0.00  0.00     0.259 C 
HETATM   23  O   UNK N   1      29.707  17.362   4.599  0.00  0.00    -0.265 OA
BRANCH  22  24
HETATM   24  O   UNK N   1      29.962  16.743   6.742  0.00  0.00    -0.320 OA
BRANCH  24  25
HETATM   25  C   UNK N   1      31.301  16.435   6.704  0.00  0.00     0.209 C 
BRANCH  25  26
HETATM   26  C   UNK N   1      31.800  16.042   8.077  0.00  0.00     0.299 C 
BRANCH  26  27
HETATM   27  N   UNK N   1      33.206  16.386   8.173  0.00  0.00     0.094 N 
HETATM   28  C   UNK N   1      33.728  15.843   9.428  0.00  0.00     0.298 C 
HETATM   29  C   UNK N   1      35.166  16.327   9.614  0.00  0.00     0.198 C 
HETATM   30  O   UNK N   1      35.174  17.732   9.698  0.00  0.00    -0.388 OA
HETATM   31  C   UNK N   1      34.781  18.222   8.439  0.00  0.00     0.198 C 
HETATM   32  C   UNK N   1      33.319  17.843   8.183  0.00  0.00     0.298 C 
ENDBRANCH  26  27
ENDBRANCH  25  26
ENDBRANCH  24  25
ENDBRANCH  22  24
ENDBRANCH  21  22
ENDBRANCH  20  21
ENDBRANCH  18  20
ENDBRANCH   1  17
TORSDOF 11
ENDMDL
MODEL 4
REMARK VINA RESULT:      -7.0     10.437     13.143
REMARK  11 active torsions:
REMARK  status: ('A' for Active; 'I' for Inactive)
REMARK    1  A    between atoms: O_3  and  C_18 
REMARK    2  A    between atoms: O_3  and  C_29 
REMARK    3  A    between atoms: O_4  and  C_19 
REMARK    4  A    between atoms: O_5  and  C_20 
REMARK    5  A    between atoms: N_8  and  C_11 
REMARK    6  A    between atoms: C_11  and  C_18 
REMARK    7  A    between atoms: C_15  and  C_21 
REMARK    8  A    between atoms: C_21  and  C_23 
REMARK    9  A    between atoms: C_25  and  C_26 
REMARK   10  A    between atoms: C_25  and  C_28 
REMARK   11  A    between atoms: C_28  and  C_29 
ROOT
HETATM    1  C   UNK N   1      27.292  23.608  -6.100  0.00  0.00     0.072 C 
ENDROOT
BRANCH   1   2
HETATM    2  C   UNK N   1      28.498  22.911  -5.525  0.00  0.00     0.013 A 
HETATM    3  C   UNK N   1      29.227  21.989  -6.329  0.00  0.00     0.084 A 
HETATM    4  C   UNK N   1      30.380  21.340  -5.775  0.00  0.00    -0.018 A 
HETATM    5  C   UNK N   1      30.745  21.645  -4.462  0.00  0.00    -0.006 A 
HETATM    6  C   UNK N   1      31.216  20.362  -6.534  0.00  0.00     0.052 C 
HETATM    7  C   UNK N   1      30.036  22.528  -3.714  0.00  0.00     0.082 A 
HETATM    8  C   UNK N   1      31.909  21.112  -3.658  0.00  0.00     0.219 A 
HETATM    9  C   UNK N   1      28.910  23.182  -4.202  0.00  0.00     0.091 A 
HETATM   10  C   UNK N   1      30.693  22.593  -2.447  0.00  0.00     0.297 A 
HETATM   11  O   UNK N   1      31.764  21.774  -2.437  0.00  0.00    -0.313 OA
HETATM   12  O   UNK N   1      30.357  23.281  -1.500  0.00  0.00    -0.259 OA
BRANCH   3  13
HETATM   13  O   UNK N   1      28.786  21.776  -7.602  0.00  0.00    -0.355 OA
HETATM   14  C   UNK N   1      29.302  22.321  -8.755  0.00  0.00     0.210 C 
ENDBRANCH   3  13
BRANCH   9  15
HETATM   15  O   UNK N   1      28.239  24.054  -3.428  0.00  0.00    -0.359 OA
HETATM   16  H   UNK N   1      28.527  24.941  -3.336  0.00  0.00     0.217 HD
ENDBRANCH   9  15
ENDBRANCH   1   2
BRANCH   1  17
HETATM   17  C   UNK N   1      27.608  24.973  -6.651  0.00  0.00    -0.020 C 
HETATM   18  C   UNK N   1      26.815  26.044  -6.506  0.00  0.00    -0.087 C 
HETATM   19  C   UNK N   1      27.252  27.345  -7.088  0.00  0.00     0.043 C 
BRANCH  18  20
HETATM   20  C   UNK N   1      25.508  25.983  -5.764  0.00  0.00     0.043 C 
BRANCH  20  21
HETATM   21  C   UNK N   1      25.185  27.301  -5.066  0.00  0.00     0.115 C 
BRANCH  21  22
HETATM   22  C   UNK N   1      25.804  27.319  -3.714  0.00  0.00     0.259 C 
HETATM   23  O   UNK N   1      26.150  26.268  -3.196  0.00  0.00    -0.265 OA
BRANCH  22  24
HETATM   24  O   UNK N   1      26.011  28.506  -3.093  0.00  0.00    -0.320 OA
BRANCH  24  25
HETATM   25  C   UNK N   1      27.266  28.933  -2.729  0.00  0.00     0.209 C 
BRANCH  25  26
HETATM   26  C   UNK N   1      28.109  29.225  -3.950  0.00  0.00     0.299 C 
BRANCH  26  27
HETATM   27  N   UNK N   1      29.474  29.469  -3.521  0.00  0.00     0.094 N 
HETATM   28  C   UNK N   1      30.301  28.342  -3.953  0.00  0.00     0.298 C 
HETATM   29  C   UNK N   1      31.707  28.512  -3.378  0.00  0.00     0.198 C 
HETATM   30  O   UNK N   1      31.635  28.500  -1.972  0.00  0.00    -0.388 OA
HETATM   31  C   UNK N   1      30.936  29.659  -1.585  0.00  0.00     0.198 C 
HETATM   32  C   UNK N   1      29.484  29.556  -2.062  0.00  0.00     0.298 C 
ENDBRANCH  26  27
ENDBRANCH  25  26
ENDBRANCH  24  25
ENDBRANCH  22  24
ENDBRANCH  21  22
ENDBRANCH  20  21
ENDBRANCH  18  20
ENDBRANCH   1  17
TORSDOF 11
ENDMDL
MODEL 5
REMARK VINA RESULT:      -6.7      9.345     14.518
REMARK  11 active torsions:
REMARK  status: ('A' for Active; 'I' for Inactive)
REMARK    1  A    between atoms: O_3  and  C_18 
REMARK    2  A    between atoms: O_3  and  C_29 
REMARK    3  A    between atoms: O_4  and  C_19 
REMARK    4  A    between atoms: O_5  and  C_20 
REMARK    5  A    between atoms: N_8  and  C_11 
REMARK    6  A    between atoms: C_11  and  C_18 
REMARK    7  A    between atoms: C_15  and  C_21 
REMARK    8  A    between atoms: C_21  and  C_23 
REMARK    9  A    between atoms: C_25  and  C_26 
REMARK   10  A    between atoms: C_25  and  C_28 
REMARK   11  A    between atoms: C_28  and  C_29 
ROOT
HETATM    1  C   UNK N   1      34.737  10.671  14.415  0.00  0.00     0.072 C 
ENDROOT
BRANCH   1   2
HETATM    2  C   UNK N   1      34.995  10.842  15.890  0.00  0.00     0.013 A 
HETATM    3  C   UNK N   1      35.295   9.701  16.688  0.00  0.00     0.084 A 
HETATM    4  C   UNK N   1      35.550   9.878  18.088  0.00  0.00    -0.018 A 
HETATM    5  C   UNK N   1      35.499  11.170  18.614  0.00  0.00    -0.006 A 
HETATM    6  C   UNK N   1      35.878   8.749  19.012  0.00  0.00     0.052 C 
HETATM    7  C   UNK N   1      35.214  12.244  17.834  0.00  0.00     0.082 A 
HETATM    8  C   UNK N   1      35.736  11.620  20.038  0.00  0.00     0.219 A 
HETATM    9  C   UNK N   1      34.956  12.128  16.472  0.00  0.00     0.091 A 
HETATM   10  C   UNK N   1      35.254  13.382  18.696  0.00  0.00     0.297 A 
HETATM   11  O   UNK N   1      35.556  13.002  19.954  0.00  0.00    -0.313 OA
HETATM   12  O   UNK N   1      35.052  14.537  18.367  0.00  0.00    -0.259 OA
BRANCH   3  13
HETATM   13  O   UNK N   1      35.328   8.487  16.066  0.00  0.00    -0.355 OA
HETATM   14  C   UNK N   1      36.449   7.798  15.666  0.00  0.00     0.210 C 
ENDBRANCH   3  13
BRANCH   9  15
HETATM   15  O   UNK N   1      34.681  13.219  15.735  0.00  0.00    -0.359 OA
HETATM   16  H   UNK N   1      33.902  13.270  15.218  0.00  0.00     0.217 HD
ENDBRANCH   9  15
ENDBRANCH   1   2
BRANCH   1  17
HETATM   17  C   UNK N   1      35.987  10.774  13.583  0.00  0.00    -0.020 C 
HETATM   18  C   UNK N   1      36.208  11.733  12.672  0.00  0.00    -0.087 C 
HETATM   19  C   UNK N   1      37.497  11.730  11.923  0.00  0.00     0.043 C 
BRANCH  18  20
HETATM   20  C   UNK N   1      35.207  12.820  12.390  0.00  0.00     0.043 C 
BRANCH  20  21
HETATM   21  C   UNK N   1      35.774  14.208  12.671  0.00  0.00     0.115 C 
BRANCH  21  22
HETATM   22  C   UNK N   1      35.782  15.011  11.420  0.00  0.00     0.259 C 
HETATM   23  O   UNK N   1      35.672  16.227  11.485  0.00  0.00    -0.265 OA
BRANCH  22  24
HETATM   24  O   UNK N   1      35.950  14.387  10.230  0.00  0.00    -0.320 OA
BRANCH  24  25
HETATM   25  C   UNK N   1      35.656  14.998   9.034  0.00  0.00     0.209 C 
BRANCH  25  26
HETATM   26  C   UNK N   1      34.288  14.582   8.540  0.00  0.00     0.299 C 
BRANCH  26  27
HETATM   27  N   UNK N   1      33.715  15.680   7.784  0.00  0.00     0.094 N 
HETATM   28  C   UNK N   1      34.310  15.677   6.447  0.00  0.00     0.298 C 
HETATM   29  C   UNK N   1      33.831  16.917   5.692  0.00  0.00     0.198 C 
HETATM   30  O   UNK N   1      34.267  18.070   6.372  0.00  0.00    -0.388 OA
HETATM   31  C   UNK N   1      33.587  18.103   7.603  0.00  0.00     0.198 C 
HETATM   32  C   UNK N   1      34.050  16.928   8.469  0.00  0.00     0.298 C 
ENDBRANCH  26  27
ENDBRANCH  25  26
ENDBRANCH  24  25
ENDBRANCH  22  24
ENDBRANCH  21  22
ENDBRANCH  20  21
ENDBRANCH  18  20
ENDBRANCH   1  17
TORSDOF 11
ENDMDL
MODEL 6
REMARK VINA RESULT:      -6.7     11.597     15.205
REMARK  11 active torsions:
REMARK  status: ('A' for Active; 'I' for Inactive)
REMARK    1  A    between atoms: O_3  and  C_18 
REMARK    2  A    between atoms: O_3  and  C_29 
REMARK    3  A    between atoms: O_4  and  C_19 
REMARK    4  A    between atoms: O_5  and  C_20 
REMARK    5  A    between atoms: N_8  and  C_11 
REMARK    6  A    between atoms: C_11  and  C_18 
REMARK    7  A    between atoms: C_15  and  C_21 
REMARK    8  A    between atoms: C_21  and  C_23 
REMARK    9  A    between atoms: C_25  and  C_26 
REMARK   10  A    between atoms: C_25  and  C_28 
REMARK   11  A    between atoms: C_28  and  C_29 
ROOT
HETATM    1  C   UNK N   1      27.681  26.287  -7.974  0.00  0.00     0.072 C 
ENDROOT
BRANCH   1   2
HETATM    2  C   UNK N   1      27.612  27.415  -6.978  0.00  0.00     0.013 A 
HETATM    3  C   UNK N   1      28.344  28.613  -7.221  0.00  0.00     0.084 A 
HETATM    4  C   UNK N   1      28.262  29.685  -6.272  0.00  0.00    -0.018 A 
HETATM    5  C   UNK N   1      27.458  29.511  -5.144  0.00  0.00    -0.006 A 
HETATM    6  C   UNK N   1      28.985  30.982  -6.434  0.00  0.00     0.052 C 
HETATM    7  C   UNK N   1      26.767  28.362  -4.933  0.00  0.00     0.082 A 
HETATM    8  C   UNK N   1      27.197  30.479  -4.012  0.00  0.00     0.219 A 
HETATM    9  C   UNK N   1      26.814  27.291  -5.820  0.00  0.00     0.091 A 
HETATM   10  C   UNK N   1      26.064  28.541  -3.703  0.00  0.00     0.297 A 
HETATM   11  O   UNK N   1      26.324  29.762  -3.193  0.00  0.00    -0.313 OA
HETATM   12  O   UNK N   1      25.328  27.728  -3.173  0.00  0.00    -0.259 OA
BRANCH   3  13
HETATM   13  O   UNK N   1      29.089  28.677  -8.362  0.00  0.00    -0.355 OA
HETATM   14  C   UNK N   1      30.442  28.455  -8.476  0.00  0.00     0.210 C 
ENDBRANCH   3  13
BRANCH   9  15
HETATM   15  O   UNK N   1      26.111  26.172  -5.575  0.00  0.00    -0.359 OA
HETATM   16  H   UNK N   1      25.384  25.929  -6.115  0.00  0.00     0.217 HD
ENDBRANCH   9  15
ENDBRANCH   1   2
BRANCH   1  17
HETATM   17  C   UNK N   1      26.689  26.431  -9.097  0.00  0.00    -0.020 C 
HETATM   18  C   UNK N   1      25.719  25.545  -9.363  0.00  0.00    -0.087 C 
HETATM   19  C   UNK N   1      24.790  25.815 -10.498  0.00  0.00     0.043 C 
BRANCH  18  20
HETATM   20  C   UNK N   1      25.523  24.298  -8.546  0.00  0.00     0.043 C 
BRANCH  20  21
HETATM   21  C   UNK N   1      26.306  23.116  -9.110  0.00  0.00     0.115 C 
BRANCH  21  22
HETATM   22  C   UNK N   1      26.803  22.265  -7.996  0.00  0.00     0.259 C 
HETATM   23  O   UNK N   1      26.829  21.050  -8.132  0.00  0.00    -0.265 OA
BRANCH  22  24
HETATM   24  O   UNK N   1      27.257  22.851  -6.862  0.00  0.00    -0.320 OA
BRANCH  24  25
HETATM   25  C   UNK N   1      28.586  22.835  -6.510  0.00  0.00     0.209 C 
BRANCH  25  26
HETATM   26  C   UNK N   1      28.849  23.786  -5.364  0.00  0.00     0.299 C 
BRANCH  26  27
HETATM   27  N   UNK N   1      29.263  23.014  -4.208  0.00  0.00     0.094 N 
HETATM   28  C   UNK N   1      28.748  23.672  -3.006  0.00  0.00     0.298 C 
HETATM   29  C   UNK N   1      29.304  22.956  -1.776  0.00  0.00     0.198 C 
HETATM   30  O   UNK N   1      30.708  23.060  -1.775  0.00  0.00    -0.388 OA
HETATM   31  C   UNK N   1      31.176  22.318  -2.875  0.00  0.00     0.198 C 
HETATM   32  C   UNK N   1      30.724  22.997  -4.172  0.00  0.00     0.298 C 
ENDBRANCH  26  27
ENDBRANCH  25  26
ENDBRANCH  24  25
ENDBRANCH  22  24
ENDBRANCH  21  22
ENDBRANCH  20  21
ENDBRANCH  18  20
ENDBRANCH   1  17
TORSDOF 11
ENDMDL
MODEL 7
REMARK VINA RESULT:      -6.6     10.274     12.745
REMARK  11 active torsions:
REMARK  status: ('A' for Active; 'I' for Inactive)
REMARK    1  A    between atoms: O_3  and  C_18 
REMARK    2  A    between atoms: O_3  and  C_29 
REMARK    3  A    between atoms: O_4  and  C_19 
REMARK    4  A    between atoms: O_5  and  C_20 
REMARK    5  A    between atoms: N_8  and  C_11 
REMARK    6  A    between atoms: C_11  and  C_18 
REMARK    7  A    between atoms: C_15  and  C_21 
REMARK    8  A    between atoms: C_21  and  C_23 
REMARK    9  A    between atoms: C_25  and  C_26 
REMARK   10  A    between atoms: C_25  and  C_28 
REMARK   11  A    between atoms: C_28  and  C_29 
ROOT
HETATM    1  C   UNK N   1      28.931  23.160  -7.026  0.00  0.00     0.072 C 
ENDROOT
BRANCH   1   2
HETATM    2  C   UNK N   1      29.956  22.558  -6.101  0.00  0.00     0.013 A 
HETATM    3  C   UNK N   1      30.961  21.698  -6.629  0.00  0.00     0.084 A 
HETATM    4  C   UNK N   1      31.939  21.141  -5.740  0.00  0.00    -0.018 A 
HETATM    5  C   UNK N   1      31.868  21.471  -4.385  0.00  0.00    -0.006 A 
HETATM    6  C   UNK N   1      33.036  20.232  -6.192  0.00  0.00     0.052 C 
HETATM    7  C   UNK N   1      30.902  22.295  -3.904  0.00  0.00     0.082 A 
HETATM    8  C   UNK N   1      32.773  21.029  -3.257  0.00  0.00     0.219 A 
HETATM    9  C   UNK N   1      29.930  22.859  -4.721  0.00  0.00     0.091 A 
HETATM   10  C   UNK N   1      31.142  22.408  -2.500  0.00  0.00     0.297 A 
HETATM   11  O   UNK N   1      32.218  21.676  -2.151  0.00  0.00    -0.313 OA
HETATM   12  O   UNK N   1      30.485  23.066  -1.712  0.00  0.00    -0.259 OA
BRANCH   3  13
HETATM   13  O   UNK N   1      30.940  21.453  -7.971  0.00  0.00    -0.355 OA
HETATM   14  C   UNK N   1      30.461  20.324  -8.594  0.00  0.00     0.210 C 
ENDBRANCH   3  13
BRANCH   9  15
HETATM   15  O   UNK N   1      28.993  23.674  -4.204  0.00  0.00    -0.359 OA
HETATM   16  H   UNK N   1      28.970  23.863  -3.286  0.00  0.00     0.217 HD
ENDBRANCH   9  15
ENDBRANCH   1   2
BRANCH   1  17
HETATM   17  C   UNK N   1      27.651  22.368  -7.081  0.00  0.00    -0.020 C 
HETATM   18  C   UNK N   1      26.444  22.869  -6.783  0.00  0.00    -0.087 C 
HETATM   19  C   UNK N   1      25.251  21.981  -6.892  0.00  0.00     0.043 C 
BRANCH  18  20
HETATM   20  C   UNK N   1      26.248  24.298  -6.357  0.00  0.00     0.043 C 
BRANCH  20  21
HETATM   21  C   UNK N   1      25.443  24.406  -5.066  0.00  0.00     0.115 C 
BRANCH  21  22
HETATM   22  C   UNK N   1      25.968  25.524  -4.238  0.00  0.00     0.259 C 
HETATM   23  O   UNK N   1      26.639  25.276  -3.247  0.00  0.00    -0.265 OA
BRANCH  22  24
HETATM   24  O   UNK N   1      25.728  26.802  -4.617  0.00  0.00    -0.320 OA
BRANCH  24  25
HETATM   25  C   UNK N   1      26.517  27.849  -4.204  0.00  0.00     0.209 C 
BRANCH  25  26
HETATM   26  C   UNK N   1      27.294  28.426  -5.367  0.00  0.00     0.299 C 
BRANCH  26  27
HETATM   27  N   UNK N   1      28.702  28.134  -5.172  0.00  0.00     0.094 N 
HETATM   28  C   UNK N   1      29.020  26.899  -5.891  0.00  0.00     0.298 C 
HETATM   29  C   UNK N   1      30.459  26.498  -5.570  0.00  0.00     0.198 C 
HETATM   30  O   UNK N   1      30.574  26.252  -4.188  0.00  0.00    -0.388 OA
HETATM   31  C   UNK N   1      30.380  27.483  -3.534  0.00  0.00     0.198 C 
HETATM   32  C   UNK N   1      28.934  27.944  -3.741  0.00  0.00     0.298 C 
ENDBRANCH  26  27
ENDBRANCH  25  26
ENDBRANCH  24  25
ENDBRANCH  22  24
ENDBRANCH  21  22
ENDBRANCH  20  21
ENDBRANCH  18  20
ENDBRANCH   1  17
TORSDOF 11
ENDMDL
MODEL 8
REMARK VINA RESULT:      -6.6      3.512      9.280
REMARK  11 active torsions:
REMARK  status: ('A' for Active; 'I' for Inactive)
REMARK    1  A    between atoms: O_3  and  C_18 
REMARK    2  A    between atoms: O_3  and  C_29 
REMARK    3  A    between atoms: O_4  and  C_19 
REMARK    4  A    between atoms: O_5  and  C_20 
REMARK    5  A    between atoms: N_8  and  C_11 
REMARK    6  A    between atoms: C_11  and  C_18 
REMARK    7  A    between atoms: C_15  and  C_21 
REMARK    8  A    between atoms: C_21  and  C_23 
REMARK    9  A    between atoms: C_25  and  C_26 
REMARK   10  A    between atoms: C_25  and  C_28 
REMARK   11  A    between atoms: C_28  and  C_29 
ROOT
HETATM    1  C   UNK N   1      20.158  15.248   1.672  0.00  0.00     0.072 C 
ENDROOT
BRANCH   1   2
HETATM    2  C   UNK N   1      20.425  16.650   2.156  0.00  0.00     0.013 A 
HETATM    3  C   UNK N   1      20.634  16.886   3.545  0.00  0.00     0.084 A 
HETATM    4  C   UNK N   1      20.900  18.222   3.993  0.00  0.00    -0.018 A 
HETATM    5  C   UNK N   1      20.948  19.243   3.041  0.00  0.00    -0.006 A 
HETATM    6  C   UNK N   1      21.138  18.576   5.425  0.00  0.00     0.052 C 
HETATM    7  C   UNK N   1      20.748  18.995   1.721  0.00  0.00     0.082 A 
HETATM    8  C   UNK N   1      21.217  20.716   3.249  0.00  0.00     0.219 A 
HETATM    9  C   UNK N   1      20.485  17.719   1.235  0.00  0.00     0.091 A 
HETATM   10  C   UNK N   1      20.874  20.253   1.058  0.00  0.00     0.297 A 
HETATM   11  O   UNK N   1      21.144  21.225   1.952  0.00  0.00    -0.313 OA
HETATM   12  O   UNK N   1      20.763  20.445  -0.140  0.00  0.00    -0.259 OA
BRANCH   3  13
HETATM   13  O   UNK N   1      20.575  15.812   4.384  0.00  0.00    -0.355 OA
HETATM   14  C   UNK N   1      19.489  15.404   5.124  0.00  0.00     0.210 C 
ENDBRANCH   3  13
BRANCH   9  15
HETATM   15  O   UNK N   1      20.296  17.516  -0.081  0.00  0.00    -0.359 OA
HETATM   16  H   UNK N   1      21.021  17.371  -0.657  0.00  0.00     0.217 HD
ENDBRANCH   9  15
ENDBRANCH   1   2
BRANCH   1  17
HETATM   17  C   UNK N   1      21.256  14.707   0.797  0.00  0.00    -0.020 C 
HETATM   18  C   UNK N   1      22.391  14.166   1.263  0.00  0.00    -0.087 C 
HETATM   19  C   UNK N   1      23.395  13.653   0.288  0.00  0.00     0.043 C 
BRANCH  18  20
HETATM   20  C   UNK N   1      22.680  14.044   2.734  0.00  0.00     0.043 C 
BRANCH  20  21
HETATM   21  C   UNK N   1      24.141  14.343   3.058  0.00  0.00     0.115 C 
BRANCH  21  22
HETATM   22  C   UNK N   1      24.221  15.475   4.018  0.00  0.00     0.259 C 
HETATM   23  O   UNK N   1      24.392  15.246   5.206  0.00  0.00    -0.265 OA
BRANCH  22  24
HETATM   24  O   UNK N   1      24.145  16.746   3.556  0.00  0.00    -0.320 OA
BRANCH  24  25
HETATM   25  C   UNK N   1      24.608  17.819   4.280  0.00  0.00     0.209 C 
BRANCH  25  26
HETATM   26  C   UNK N   1      25.516  18.685   3.436  0.00  0.00     0.299 C 
BRANCH  26  27
HETATM   27  N   UNK N   1      26.625  19.131   4.259  0.00  0.00     0.094 N 
HETATM   28  C   UNK N   1      26.784  18.189   5.367  0.00  0.00     0.298 C 
HETATM   29  C   UNK N   1      27.847  18.728   6.324  0.00  0.00     0.198 C 
HETATM   30  O   UNK N   1      27.416  19.962   6.846  0.00  0.00    -0.388 OA
HETATM   31  C   UNK N   1      27.388  20.875   5.775  0.00  0.00     0.198 C 
HETATM   32  C   UNK N   1      26.299  20.456   4.783  0.00  0.00     0.298 C 
ENDBRANCH  26  27
ENDBRANCH  25  26
ENDBRANCH  24  25
ENDBRANCH  22  24
ENDBRANCH  21  22
ENDBRANCH  20  21
ENDBRANCH  18  20
ENDBRANCH   1  17
TORSDOF 11
ENDMDL
MODEL 9
REMARK VINA RESULT:      -6.6      3.156      9.346
REMARK  11 active torsions:
REMARK  status: ('A' for Active; 'I' for Inactive)
REMARK    1  A    between atoms: O_3  and  C_18 
REMARK    2  A    between atoms: O_3  and  C_29 
REMARK    3  A    between atoms: O_4  and  C_19 
REMARK    4  A    between atoms: O_5  and  C_20 
REMARK    5  A    between atoms: N_8  and  C_11 
REMARK    6  A    between atoms: C_11  and  C_18 
REMARK    7  A    between atoms: C_15  and  C_21 
REMARK    8  A    between atoms: C_21  and  C_23 
REMARK    9  A    between atoms: C_25  and  C_26 
REMARK   10  A    between atoms: C_25  and  C_28 
REMARK   11  A    between atoms: C_28  and  C_29 
ROOT
HETATM    1  C   UNK N   1      26.208  19.309   3.636  0.00  0.00     0.072 C 
ENDROOT
BRANCH   1   2
HETATM    2  C   UNK N   1      24.716  19.113   3.708  0.00  0.00     0.013 A 
HETATM    3  C   UNK N   1      24.184  18.036   4.474  0.00  0.00     0.084 A 
HETATM    4  C   UNK N   1      22.762  17.867   4.545  0.00  0.00    -0.018 A 
HETATM    5  C   UNK N   1      21.951  18.775   3.859  0.00  0.00    -0.006 A 
HETATM    6  C   UNK N   1      22.103  16.775   5.323  0.00  0.00     0.052 C 
HETATM    7  C   UNK N   1      22.480  19.795   3.137  0.00  0.00     0.082 A 
HETATM    8  C   UNK N   1      20.442  18.821   3.783  0.00  0.00     0.219 A 
HETATM    9  C   UNK N   1      23.851  20.002   3.033  0.00  0.00     0.091 A 
HETATM   10  C   UNK N   1      21.370  20.508   2.588  0.00  0.00     0.297 A 
HETATM   11  O   UNK N   1      20.213  19.934   2.972  0.00  0.00    -0.313 OA
HETATM   12  O   UNK N   1      21.434  21.496   1.878  0.00  0.00    -0.259 OA
BRANCH   3  13
HETATM   13  O   UNK N   1      25.070  17.218   5.111  0.00  0.00    -0.355 OA
HETATM   14  C   UNK N   1      25.516  15.991   4.677  0.00  0.00     0.210 C 
ENDBRANCH   3  13
BRANCH   9  15
HETATM   15  O   UNK N   1      24.332  21.029   2.310  0.00  0.00    -0.359 OA
HETATM   16  H   UNK N   1      25.065  20.915   1.737  0.00  0.00     0.217 HD
ENDBRANCH   9  15
ENDBRANCH   1   2
BRANCH   1  17
HETATM   17  C   UNK N   1      26.682  20.515   4.402  0.00  0.00    -0.020 C 
HETATM   18  C   UNK N   1      27.098  20.481   5.676  0.00  0.00    -0.087 C 
HETATM   19  C   UNK N   1      27.557  21.747   6.316  0.00  0.00     0.043 C 
BRANCH  18  20
HETATM   20  C   UNK N   1      27.133  19.209   6.477  0.00  0.00     0.043 C 
BRANCH  20  21
HETATM   21  C   UNK N   1      28.538  18.622   6.559  0.00  0.00     0.115 C 
BRANCH  21  22
HETATM   22  C   UNK N   1      28.808  18.155   7.945  0.00  0.00     0.259 C 
HETATM   23  O   UNK N   1      27.966  17.492   8.531  0.00  0.00    -0.265 OA
BRANCH  22  24
HETATM   24  O   UNK N   1      30.002  18.437   8.521  0.00  0.00    -0.320 OA
BRANCH  24  25
HETATM   25  C   UNK N   1      30.915  17.458   8.833  0.00  0.00     0.209 C 
BRANCH  25  26
HETATM   26  C   UNK N   1      32.218  17.687   8.101  0.00  0.00     0.299 C 
BRANCH  26  27
HETATM   27  N   UNK N   1      32.650  16.429   7.521  0.00  0.00     0.094 N 
HETATM   28  C   UNK N   1      31.773  16.118   6.391  0.00  0.00     0.298 C 
HETATM   29  C   UNK N   1      32.119  14.724   5.867  0.00  0.00     0.198 C 
HETATM   30  O   UNK N   1      31.889  13.778   6.884  0.00  0.00    -0.388 OA
HETATM   31  C   UNK N   1      32.827  14.032   7.902  0.00  0.00     0.198 C 
HETATM   32  C   UNK N   1      32.523  15.390   8.542  0.00  0.00     0.298 C 
ENDBRANCH  26  27
ENDBRANCH  25  26
ENDBRANCH  24  25
ENDBRANCH  22  24
ENDBRANCH  21  22
ENDBRANCH  20  21
ENDBRANCH  18  20
ENDBRANCH   1  17
TORSDOF 11
ENDMDL
