MODEL 1
REMARK VINA RESULT:      -7.1      0.000      0.000
REMARK  9 active torsions:
REMARK  status: ('A' for Active; 'I' for Inactive)
REMARK    1  A    between atoms: O_3  and  C_17 
REMARK    2  A    between atoms: O_3  and  C_24 
REMARK    3  A    between atoms: O_4  and  C_19 
REMARK    4  A    between atoms: C_12  and  N_9 
REMARK       I    between atoms: N_9  and  C_18 
REMARK    5  A    between atoms: C_20  and  N_10 
REMARK    6  A    between atoms: C_14  and  C_19 
REMARK    7  A    between atoms: C_15  and  C_17 
REMARK    8  A    between atoms: C_18  and  C_20 
REMARK    9  A    between atoms: C_20  and  C_21 
ROOT
HETATM    1  S   UNK N   1      35.386  12.552   8.549  0.00  0.00    -0.136 SA
HETATM    2  O   UNK N   1      34.086  15.278  11.618  0.00  0.00    -0.271 OA
HETATM    3  N   UNK N   1      35.624  14.804  10.018  0.00  0.00    -0.293 N 
HETATM    4  C   UNK N   1      36.112  13.447   9.960  0.00  0.00     0.187 A 
HETATM    5  C   UNK N   1      35.287  13.176  11.316  0.00  0.00     0.210 A 
HETATM    6  C   UNK N   1      35.015  14.626  11.165  0.00  0.00     0.251 A 
HETATM    7  C   UNK N   1      35.159  15.638   8.936  0.00  0.00     0.117 C 
HETATM    8  C   UNK N   1      35.251  15.147   7.664  0.00  0.00    -0.013 C 
HETATM    9  C   UNK N   1      35.952  13.843   7.409  0.00  0.00     0.115 C 
ENDROOT
BRANCH   5  10
HETATM   10  N   UNK N   1      36.100  12.874  12.472  0.00  0.00    -0.343 N 
HETATM   11  C   UNK N   1      35.525  12.262  13.544  0.00  0.00     0.245 C 
HETATM   12  O   UNK N   1      34.314  12.085  13.570  0.00  0.00    -0.271 OA
HETATM   13  H   UNK N   1      37.056  13.108  12.484  0.00  0.00     0.163 HD
BRANCH  11  14
HETATM   14  C   UNK N   1      36.360  11.689  14.662  0.00  0.00     0.201 C 
BRANCH  14  15
HETATM   15  N   UNK N   1      37.780  11.952  14.487  0.00  0.00    -0.415 N 
HETATM   16  H   UNK N   1      38.695  12.068  14.921  0.00  0.00     0.151 HD
HETATM   17  H   UNK N   1      37.924  12.074  13.485  0.00  0.00     0.151 HD
ENDBRANCH  14  15
BRANCH  14  18
HETATM   18  C   UNK N   1      35.922  12.032  16.061  0.00  0.00    -0.027 A 
HETATM   19  C   UNK N   1      35.804  11.055  17.062  0.00  0.00     0.010 A 
HETATM   20  C   UNK N   1      35.415  11.418  18.356  0.00  0.00     0.001 A 
HETATM   21  C   UNK N   1      35.155  12.758  18.659  0.00  0.00     0.000 A 
HETATM   22  C   UNK N   1      35.279  13.735  17.669  0.00  0.00     0.001 A 
HETATM   23  C   UNK N   1      35.658  13.372  16.374  0.00  0.00     0.010 A 
ENDBRANCH  14  18
ENDBRANCH  11  14
ENDBRANCH   5  10
BRANCH   7  24
HETATM   24  C   UNK N   1      34.513  16.969   9.227  0.00  0.00     0.194 C 
HETATM   25  O   UNK N   1      35.195  17.976   9.300  0.00  0.00    -0.645 OA
BRANCH  24  26
HETATM   26  O   UNK N   1      33.176  17.088   9.347  0.00  0.00    -0.772 OA
HETATM   27  H   UNK N   1      32.587  16.648   8.766  0.00  0.00     0.167 HD
ENDBRANCH  24  26
ENDBRANCH   7  24
BRANCH   8  28
HETATM   28  C   UNK N   1      34.627  15.814   6.474  0.00  0.00     0.216 C 
BRANCH  28  29
HETATM   29  O   UNK N   1      33.255  15.743   6.502  0.00  0.00    -0.317 OA
BRANCH  29  30
HETATM   30  C   UNK N   1      32.477  16.764   6.066  0.00  0.00     0.255 C 
HETATM   31  O   UNK N   1      31.579  17.177   6.779  0.00  0.00    -0.266 OA
HETATM   32  C   UNK N   1      32.695  17.399   4.726  0.00  0.00     0.126 C 
ENDBRANCH  29  30
ENDBRANCH  28  29
ENDBRANCH   8  28
TORSDOF 9
ENDMDL
MODEL 2
REMARK VINA RESULT:      -6.7      2.537      8.428
REMARK  9 active torsions:
REMARK  status: ('A' for Active; 'I' for Inactive)
REMARK    1  A    between atoms: O_3  and  C_17 
REMARK    2  A    between atoms: O_3  and  C_24 
REMARK    3  A    between atoms: O_4  and  C_19 
REMARK    4  A    between atoms: C_12  and  N_9 
REMARK       I    between atoms: N_9  and  C_18 
REMARK    5  A    between atoms: C_20  and  N_10 
REMARK    6  A    between atoms: C_14  and  C_19 
REMARK    7  A    between atoms: C_15  and  C_17 
REMARK    8  A    between atoms: C_18  and  C_20 
REMARK    9  A    between atoms: C_20  and  C_21 
ROOT
HETATM    1  S   UNK N   1      34.974  12.310   8.848  0.00  0.00    -0.136 SA
HETATM    2  O   UNK N   1      36.301  15.643  11.230  0.00  0.00    -0.271 OA
HETATM    3  N   UNK N   1      34.716  14.053  10.893  0.00  0.00    -0.293 N 
HETATM    4  C   UNK N   1      34.275  13.846   9.535  0.00  0.00     0.187 A 
HETATM    5  C   UNK N   1      35.164  15.128   9.133  0.00  0.00     0.210 A 
HETATM    6  C   UNK N   1      35.378  15.147  10.601  0.00  0.00     0.251 A 
HETATM    7  C   UNK N   1      35.107  13.066  11.870  0.00  0.00     0.117 C 
HETATM    8  C   UNK N   1      34.980  11.748  11.535  0.00  0.00    -0.013 C 
HETATM    9  C   UNK N   1      34.317  11.360  10.244  0.00  0.00     0.115 C 
ENDROOT
BRANCH   5  10
HETATM   10  N   UNK N   1      34.410  16.266   8.660  0.00  0.00    -0.343 N 
HETATM   11  C   UNK N   1      34.416  16.558   7.330  0.00  0.00     0.245 C 
HETATM   12  O   UNK N   1      35.148  15.936   6.571  0.00  0.00    -0.271 OA
HETATM   13  H   UNK N   1      33.900  16.823   9.291  0.00  0.00     0.163 HD
BRANCH  11  14
HETATM   14  C   UNK N   1      33.455  17.560   6.742  0.00  0.00     0.201 C 
BRANCH  14  15
HETATM   15  N   UNK N   1      33.450  17.539   5.288  0.00  0.00    -0.415 N 
HETATM   16  H   UNK N   1      33.899  17.828   4.419  0.00  0.00     0.151 HD
HETATM   17  H   UNK N   1      32.633  16.992   5.015  0.00  0.00     0.151 HD
ENDBRANCH  14  15
BRANCH  14  18
HETATM   18  C   UNK N   1      32.050  17.529   7.282  0.00  0.00    -0.027 A 
HETATM   19  C   UNK N   1      31.699  18.178   8.476  0.00  0.00     0.010 A 
HETATM   20  C   UNK N   1      30.376  18.145   8.932  0.00  0.00     0.001 A 
HETATM   21  C   UNK N   1      29.398  17.475   8.191  0.00  0.00     0.000 A 
HETATM   22  C   UNK N   1      29.740  16.835   6.999  0.00  0.00     0.001 A 
HETATM   23  C   UNK N   1      31.062  16.859   6.547  0.00  0.00     0.010 A 
ENDBRANCH  14  18
ENDBRANCH  11  14
ENDBRANCH   5  10
BRANCH   7  24
HETATM   24  C   UNK N   1      35.717  13.496  13.181  0.00  0.00     0.194 C 
HETATM   25  O   UNK N   1      35.016  13.614  14.171  0.00  0.00    -0.645 OA
BRANCH  24  26
HETATM   26  O   UNK N   1      37.043  13.694  13.305  0.00  0.00    -0.772 OA
HETATM   27  H   UNK N   1      37.658  13.313  12.709  0.00  0.00     0.167 HD
ENDBRANCH  24  26
ENDBRANCH   7  24
BRANCH   8  28
HETATM   28  C   UNK N   1      35.531  10.628  12.366  0.00  0.00     0.216 C 
BRANCH  28  29
HETATM   29  O   UNK N   1      34.547   9.959  13.053  0.00  0.00    -0.317 OA
BRANCH  29  30
HETATM   30  C   UNK N   1      34.197  10.300  14.317  0.00  0.00     0.255 C 
HETATM   31  O   UNK N   1      33.105  10.803  14.521  0.00  0.00    -0.266 OA
HETATM   32  C   UNK N   1      35.122  10.073  15.474  0.00  0.00     0.126 C 
ENDBRANCH  29  30
ENDBRANCH  28  29
ENDBRANCH   8  28
TORSDOF 9
ENDMDL
MODEL 3
REMARK VINA RESULT:      -6.5      3.806      6.269
REMARK  9 active torsions:
REMARK  status: ('A' for Active; 'I' for Inactive)
REMARK    1  A    between atoms: O_3  and  C_17 
REMARK    2  A    between atoms: O_3  and  C_24 
REMARK    3  A    between atoms: O_4  and  C_19 
REMARK    4  A    between atoms: C_12  and  N_9 
REMARK       I    between atoms: N_9  and  C_18 
REMARK    5  A    between atoms: C_20  and  N_10 
REMARK    6  A    between atoms: C_14  and  C_19 
REMARK    7  A    between atoms: C_15  and  C_17 
REMARK    8  A    between atoms: C_18  and  C_20 
REMARK    9  A    between atoms: C_20  and  C_21 
ROOT
HETATM    1  S   UNK N   1      31.326  15.780   5.650  0.00  0.00    -0.136 SA
HETATM    2  O   UNK N   1      29.891  16.793   9.581  0.00  0.00    -0.271 OA
HETATM    3  N   UNK N   1      30.569  17.543   7.549  0.00  0.00    -0.293 N 
HETATM    4  C   UNK N   1      31.754  16.939   6.990  0.00  0.00     0.187 A 
HETATM    5  C   UNK N   1      31.931  16.172   8.395  0.00  0.00     0.210 A 
HETATM    6  C   UNK N   1      30.742  16.994   8.727  0.00  0.00     0.251 A 
HETATM    7  C   UNK N   1      29.298  17.787   6.909  0.00  0.00     0.117 C 
HETATM    8  C   UNK N   1      29.185  17.497   5.579  0.00  0.00    -0.013 C 
HETATM    9  C   UNK N   1      30.396  17.079   4.794  0.00  0.00     0.115 C 
ENDROOT
BRANCH   5  10
HETATM   10  N   UNK N   1      33.103  16.550   9.150  0.00  0.00    -0.343 N 
HETATM   11  C   UNK N   1      33.929  15.575   9.623  0.00  0.00     0.245 C 
HETATM   12  O   UNK N   1      33.612  14.398   9.512  0.00  0.00    -0.271 OA
HETATM   13  H   UNK N   1      33.303  17.499   9.320  0.00  0.00     0.163 HD
BRANCH  11  14
HETATM   14  C   UNK N   1      35.290  15.903  10.184  0.00  0.00     0.201 C 
BRANCH  14  15
HETATM   15  N   UNK N   1      35.297  17.150  10.934  0.00  0.00    -0.415 N 
HETATM   16  H   UNK N   1      35.532  17.634  11.800  0.00  0.00     0.151 HD
HETATM   17  H   UNK N   1      34.882  17.851  10.321  0.00  0.00     0.151 HD
ENDBRANCH  14  15
BRANCH  14  18
HETATM   18  C   UNK N   1      35.969  14.808  10.963  0.00  0.00    -0.027 A 
HETATM   19  C   UNK N   1      35.633  14.526  12.296  0.00  0.00     0.010 A 
HETATM   20  C   UNK N   1      36.273  13.485  12.977  0.00  0.00     0.001 A 
HETATM   21  C   UNK N   1      37.240  12.713  12.327  0.00  0.00     0.000 A 
HETATM   22  C   UNK N   1      37.573  12.985  10.998  0.00  0.00     0.001 A 
HETATM   23  C   UNK N   1      36.942  14.031  10.319  0.00  0.00     0.010 A 
ENDBRANCH  14  18
ENDBRANCH  11  14
ENDBRANCH   5  10
BRANCH   7  24
HETATM   24  C   UNK N   1      28.119  18.262   7.720  0.00  0.00     0.194 C 
HETATM   25  O   UNK N   1      27.863  19.452   7.785  0.00  0.00    -0.645 OA
BRANCH  24  26
HETATM   26  O   UNK N   1      27.292  17.393   8.332  0.00  0.00    -0.772 OA
HETATM   27  H   UNK N   1      26.985  16.619   7.903  0.00  0.00     0.167 HD
ENDBRANCH  24  26
ENDBRANCH   7  24
BRANCH   8  28
HETATM   28  C   UNK N   1      27.880  17.509   4.840  0.00  0.00     0.216 C 
BRANCH  28  29
HETATM   29  O   UNK N   1      27.849  18.472   3.859  0.00  0.00    -0.317 OA
BRANCH  29  30
HETATM   30  C   UNK N   1      27.173  19.635   4.019  0.00  0.00     0.255 C 
HETATM   31  O   UNK N   1      27.656  20.519   4.705  0.00  0.00    -0.266 OA
HETATM   32  C   UNK N   1      25.841  19.863   3.369  0.00  0.00     0.126 C 
ENDBRANCH  29  30
ENDBRANCH  28  29
ENDBRANCH   8  28
TORSDOF 9
ENDMDL
MODEL 4
REMARK VINA RESULT:      -6.4      1.643      2.006
REMARK  9 active torsions:
REMARK  status: ('A' for Active; 'I' for Inactive)
REMARK    1  A    between atoms: O_3  and  C_17 
REMARK    2  A    between atoms: O_3  and  C_24 
REMARK    3  A    between atoms: O_4  and  C_19 
REMARK    4  A    between atoms: C_12  and  N_9 
REMARK       I    between atoms: N_9  and  C_18 
REMARK    5  A    between atoms: C_20  and  N_10 
REMARK    6  A    between atoms: C_14  and  C_19 
REMARK    7  A    between atoms: C_15  and  C_17 
REMARK    8  A    between atoms: C_18  and  C_20 
REMARK    9  A    between atoms: C_20  and  C_21 
ROOT
HETATM    1  S   UNK N   1      35.801  12.734   8.077  0.00  0.00    -0.136 SA
HETATM    2  O   UNK N   1      34.004  15.960  10.293  0.00  0.00    -0.271 OA
HETATM    3  N   UNK N   1      35.625  15.318   8.838  0.00  0.00    -0.293 N 
HETATM    4  C   UNK N   1      36.340  14.105   9.150  0.00  0.00     0.187 A 
HETATM    5  C   UNK N   1      35.556  14.095  10.556  0.00  0.00     0.210 A 
HETATM    6  C   UNK N   1      35.039  15.373  10.011  0.00  0.00     0.251 A 
HETATM    7  C   UNK N   1      35.038  15.717   7.582  0.00  0.00     0.117 C 
HETATM    8  C   UNK N   1      35.233  14.908   6.499  0.00  0.00    -0.013 C 
HETATM    9  C   UNK N   1      36.152  13.724   6.599  0.00  0.00     0.115 C 
ENDROOT
BRANCH   5  10
HETATM   10  N   UNK N   1      36.391  14.277  11.720  0.00  0.00    -0.343 N 
HETATM   11  C   UNK N   1      35.888  13.976  12.950  0.00  0.00     0.245 C 
HETATM   12  O   UNK N   1      34.708  13.674  13.071  0.00  0.00    -0.271 OA
HETATM   13  H   UNK N   1      37.311  14.615  11.626  0.00  0.00     0.163 HD
BRANCH  11  14
HETATM   14  C   UNK N   1      36.780  13.895  14.164  0.00  0.00     0.201 C 
BRANCH  14  15
HETATM   15  N   UNK N   1      37.074  15.204  14.727  0.00  0.00    -0.415 N 
HETATM   16  H   UNK N   1      37.751  15.813  15.184  0.00  0.00     0.151 HD
HETATM   17  H   UNK N   1      36.225  15.757  14.615  0.00  0.00     0.151 HD
ENDBRANCH  14  15
BRANCH  14  18
HETATM   18  C   UNK N   1      36.351  12.934  15.240  0.00  0.00    -0.027 A 
HETATM   19  C   UNK N   1      35.636  13.358  16.372  0.00  0.00     0.010 A 
HETATM   20  C   UNK N   1      35.237  12.429  17.339  0.00  0.00     0.001 A 
HETATM   21  C   UNK N   1      35.536  11.074  17.174  0.00  0.00     0.000 A 
HETATM   22  C   UNK N   1      36.240  10.646  16.046  0.00  0.00     0.001 A 
HETATM   23  C   UNK N   1      36.648  11.574  15.084  0.00  0.00     0.010 A 
ENDBRANCH  14  18
ENDBRANCH  11  14
ENDBRANCH   5  10
BRANCH   7  24
HETATM   24  C   UNK N   1      34.167  16.946   7.507  0.00  0.00     0.194 C 
HETATM   25  O   UNK N   1      34.640  18.008   7.142  0.00  0.00    -0.645 OA
BRANCH  24  26
HETATM   26  O   UNK N   1      32.848  16.888   7.775  0.00  0.00    -0.772 OA
HETATM   27  H   UNK N   1      32.451  16.120   8.136  0.00  0.00     0.167 HD
ENDBRANCH  24  26
ENDBRANCH   7  24
BRANCH   8  28
HETATM   28  C   UNK N   1      34.520  15.092   5.192  0.00  0.00     0.216 C 
BRANCH  28  29
HETATM   29  O   UNK N   1      33.378  14.332   5.113  0.00  0.00    -0.317 OA
BRANCH  29  30
HETATM   30  C   UNK N   1      32.147  14.894   5.037  0.00  0.00     0.255 C 
HETATM   31  O   UNK N   1      32.049  16.103   4.914  0.00  0.00    -0.266 OA
HETATM   32  C   UNK N   1      30.901  14.064   5.099  0.00  0.00     0.126 C 
ENDBRANCH  29  30
ENDBRANCH  28  29
ENDBRANCH   8  28
TORSDOF 9
ENDMDL
MODEL 5
REMARK VINA RESULT:      -6.3      2.104      2.965
REMARK  9 active torsions:
REMARK  status: ('A' for Active; 'I' for Inactive)
REMARK    1  A    between atoms: O_3  and  C_17 
REMARK    2  A    between atoms: O_3  and  C_24 
REMARK    3  A    between atoms: O_4  and  C_19 
REMARK    4  A    between atoms: C_12  and  N_9 
REMARK       I    between atoms: N_9  and  C_18 
REMARK    5  A    between atoms: C_20  and  N_10 
REMARK    6  A    between atoms: C_14  and  C_19 
REMARK    7  A    between atoms: C_15  and  C_17 
REMARK    8  A    between atoms: C_18  and  C_20 
REMARK    9  A    between atoms: C_20  and  C_21 
ROOT
HETATM    1  S   UNK N   1      35.811  15.292  11.825  0.00  0.00    -0.136 SA
HETATM    2  O   UNK N   1      36.397  11.272  10.397  0.00  0.00    -0.271 OA
HETATM    3  N   UNK N   1      34.954  13.001  10.684  0.00  0.00    -0.293 N 
HETATM    4  C   UNK N   1      34.984  13.674  11.960  0.00  0.00     0.187 A 
HETATM    5  C   UNK N   1      36.006  12.530  12.451  0.00  0.00     0.210 A 
HETATM    6  C   UNK N   1      35.718  12.015  11.090  0.00  0.00     0.251 A 
HETATM    7  C   UNK N   1      34.956  13.581   9.363  0.00  0.00     0.117 C 
HETATM    8  C   UNK N   1      34.896  14.942   9.261  0.00  0.00    -0.013 C 
HETATM    9  C   UNK N   1      34.687  15.780  10.490  0.00  0.00     0.115 C 
ENDROOT
BRANCH   5  10
HETATM   10  N   UNK N   1      35.501  11.670  13.496  0.00  0.00    -0.343 N 
HETATM   11  C   UNK N   1      36.322  11.327  14.526  0.00  0.00     0.245 C 
HETATM   12  O   UNK N   1      37.504  11.645  14.499  0.00  0.00    -0.271 OA
HETATM   13  H   UNK N   1      34.575  11.337  13.463  0.00  0.00     0.163 HD
BRANCH  11  14
HETATM   14  C   UNK N   1      35.787  10.657  15.767  0.00  0.00     0.201 C 
BRANCH  14  15
HETATM   15  N   UNK N   1      36.540   9.466  16.126  0.00  0.00    -0.415 N 
HETATM   16  H   UNK N   1      36.539   8.458  16.278  0.00  0.00     0.151 HD
HETATM   17  H   UNK N   1      37.494   9.778  16.307  0.00  0.00     0.151 HD
ENDBRANCH  14  15
BRANCH  14  18
HETATM   18  C   UNK N   1      35.585  11.543  16.967  0.00  0.00    -0.027 A 
HETATM   19  C   UNK N   1      35.318  12.915  16.840  0.00  0.00     0.010 A 
HETATM   20  C   UNK N   1      35.114  13.700  17.981  0.00  0.00     0.001 A 
HETATM   21  C   UNK N   1      35.164  13.117  19.250  0.00  0.00     0.000 A 
HETATM   22  C   UNK N   1      35.422  11.750  19.382  0.00  0.00     0.001 A 
HETATM   23  C   UNK N   1      35.635  10.967  18.244  0.00  0.00     0.010 A 
ENDBRANCH  14  18
ENDBRANCH  11  14
ENDBRANCH   5  10
BRANCH   7  24
HETATM   24  C   UNK N   1      35.109  12.701   8.148  0.00  0.00     0.194 C 
HETATM   25  O   UNK N   1      34.121  12.286   7.566  0.00  0.00    -0.645 OA
BRANCH  24  26
HETATM   26  O   UNK N   1      36.322  12.408   7.642  0.00  0.00    -0.772 OA
HETATM   27  H   UNK N   1      36.790  13.013   7.100  0.00  0.00     0.167 HD
ENDBRANCH  24  26
ENDBRANCH   7  24
BRANCH   8  28
HETATM   28  C   UNK N   1      35.092  15.683   7.972  0.00  0.00     0.216 C 
BRANCH  28  29
HETATM   29  O   UNK N   1      33.899  16.059   7.404  0.00  0.00    -0.317 OA
BRANCH  29  30
HETATM   30  C   UNK N   1      33.773  17.208   6.696  0.00  0.00     0.255 C 
HETATM   31  O   UNK N   1      34.498  18.153   6.955  0.00  0.00    -0.266 OA
HETATM   32  C   UNK N   1      32.763  17.344   5.597  0.00  0.00     0.126 C 
ENDBRANCH  29  30
ENDBRANCH  28  29
ENDBRANCH   8  28
TORSDOF 9
ENDMDL
MODEL 6
REMARK VINA RESULT:      -6.0      1.660      2.270
REMARK  9 active torsions:
REMARK  status: ('A' for Active; 'I' for Inactive)
REMARK    1  A    between atoms: O_3  and  C_17 
REMARK    2  A    between atoms: O_3  and  C_24 
REMARK    3  A    between atoms: O_4  and  C_19 
REMARK    4  A    between atoms: C_12  and  N_9 
REMARK       I    between atoms: N_9  and  C_18 
REMARK    5  A    between atoms: C_20  and  N_10 
REMARK    6  A    between atoms: C_14  and  C_19 
REMARK    7  A    between atoms: C_15  and  C_17 
REMARK    8  A    between atoms: C_18  and  C_20 
REMARK    9  A    between atoms: C_20  and  C_21 
ROOT
HETATM    1  S   UNK N   1      34.388  13.651   7.878  0.00  0.00    -0.136 SA
HETATM    2  O   UNK N   1      34.413  16.736  10.881  0.00  0.00    -0.271 OA
HETATM    3  N   UNK N   1      35.386  15.887   9.014  0.00  0.00    -0.293 N 
HETATM    4  C   UNK N   1      35.595  14.460   8.977  0.00  0.00     0.187 A 
HETATM    5  C   UNK N   1      35.108  14.426  10.512  0.00  0.00     0.210 A 
HETATM    6  C   UNK N   1      35.066  15.892  10.286  0.00  0.00     0.251 A 
HETATM    7  C   UNK N   1      34.815  16.737   7.997  0.00  0.00     0.117 C 
HETATM    8  C   UNK N   1      34.494  16.171   6.796  0.00  0.00    -0.013 C 
HETATM    9  C   UNK N   1      34.865  14.744   6.513  0.00  0.00     0.115 C 
ENDROOT
BRANCH   5  10
HETATM   10  N   UNK N   1      36.120  14.033  11.463  0.00  0.00    -0.343 N 
HETATM   11  C   UNK N   1      35.736  13.559  12.681  0.00  0.00     0.245 C 
HETATM   12  O   UNK N   1      34.555  13.584  13.002  0.00  0.00    -0.271 OA
HETATM   13  H   UNK N   1      37.075  14.106  11.234  0.00  0.00     0.163 HD
BRANCH  11  14
HETATM   14  C   UNK N   1      36.720  12.893  13.610  0.00  0.00     0.201 C 
BRANCH  14  15
HETATM   15  N   UNK N   1      37.230  13.802  14.624  0.00  0.00    -0.415 N 
HETATM   16  H   UNK N   1      38.042  14.205  15.092  0.00  0.00     0.151 HD
HETATM   17  H   UNK N   1      36.413  14.223  15.064  0.00  0.00     0.151 HD
ENDBRANCH  14  15
BRANCH  14  18
HETATM   18  C   UNK N   1      36.276  11.595  14.230  0.00  0.00    -0.027 A 
HETATM   19  C   UNK N   1      36.147  10.418  13.477  0.00  0.00     0.010 A 
HETATM   20  C   UNK N   1      35.752   9.227  14.096  0.00  0.00     0.001 A 
HETATM   21  C   UNK N   1      35.498   9.204  15.471  0.00  0.00     0.000 A 
HETATM   22  C   UNK N   1      35.633  10.370  16.226  0.00  0.00     0.001 A 
HETATM   23  C   UNK N   1      36.017  11.563  15.607  0.00  0.00     0.010 A 
ENDBRANCH  14  18
ENDBRANCH  11  14
ENDBRANCH   5  10
BRANCH   7  24
HETATM   24  C   UNK N   1      34.510  18.182   8.300  0.00  0.00     0.194 C 
HETATM   25  O   UNK N   1      35.396  19.018   8.247  0.00  0.00    -0.645 OA
BRANCH  24  26
HETATM   26  O   UNK N   1      33.256  18.592   8.570  0.00  0.00    -0.772 OA
HETATM   27  H   UNK N   1      33.014  19.497   8.532  0.00  0.00     0.167 HD
ENDBRANCH  24  26
ENDBRANCH   7  24
BRANCH   8  28
HETATM   28  C   UNK N   1      33.716  16.884   5.730  0.00  0.00     0.216 C 
BRANCH  28  29
HETATM   29  O   UNK N   1      32.475  16.328   5.535  0.00  0.00    -0.317 OA
BRANCH  29  30
HETATM   30  C   UNK N   1      31.338  17.055   5.652  0.00  0.00     0.255 C 
HETATM   31  O   UNK N   1      30.941  17.702   4.698  0.00  0.00    -0.266 OA
HETATM   32  C   UNK N   1      30.553  17.082   6.929  0.00  0.00     0.126 C 
ENDBRANCH  29  30
ENDBRANCH  28  29
ENDBRANCH   8  28
TORSDOF 9
ENDMDL
MODEL 7
REMARK VINA RESULT:      -6.0      2.532      3.687
REMARK  9 active torsions:
REMARK  status: ('A' for Active; 'I' for Inactive)
REMARK    1  A    between atoms: O_3  and  C_17 
REMARK    2  A    between atoms: O_3  and  C_24 
REMARK    3  A    between atoms: O_4  and  C_19 
REMARK    4  A    between atoms: C_12  and  N_9 
REMARK       I    between atoms: N_9  and  C_18 
REMARK    5  A    between atoms: C_20  and  N_10 
REMARK    6  A    between atoms: C_14  and  C_19 
REMARK    7  A    between atoms: C_15  and  C_17 
REMARK    8  A    between atoms: C_18  and  C_20 
REMARK    9  A    between atoms: C_20  and  C_21 
ROOT
HETATM    1  S   UNK N   1      35.289  10.972  12.058  0.00  0.00    -0.136 SA
HETATM    2  O   UNK N   1      36.011  15.177  12.641  0.00  0.00    -0.271 OA
HETATM    3  N   UNK N   1      36.897  13.136  12.189  0.00  0.00    -0.293 N 
HETATM    4  C   UNK N   1      36.439  12.031  12.995  0.00  0.00     0.187 A 
HETATM    5  C   UNK N   1      35.647  13.112  13.889  0.00  0.00     0.210 A 
HETATM    6  C   UNK N   1      36.328  14.039  12.953  0.00  0.00     0.251 A 
HETATM    7  C   UNK N   1      37.029  13.207  10.754  0.00  0.00     0.117 C 
HETATM    8  C   UNK N   1      36.775  12.076  10.031  0.00  0.00    -0.013 C 
HETATM    9  C   UNK N   1      36.513  10.776  10.735  0.00  0.00     0.115 C 
ENDROOT
BRANCH   5  10
HETATM   10  N   UNK N   1      36.119  13.239  15.248  0.00  0.00    -0.343 N 
HETATM   11  C   UNK N   1      35.212  13.255  16.264  0.00  0.00     0.245 C 
HETATM   12  O   UNK N   1      34.014  13.284  16.015  0.00  0.00    -0.271 OA
HETATM   13  H   UNK N   1      37.082  13.313  15.437  0.00  0.00     0.163 HD
BRANCH  11  14
HETATM   14  C   UNK N   1      35.644  13.123  17.704  0.00  0.00     0.201 C 
BRANCH  14  15
HETATM   15  N   UNK N   1      35.238  14.260  18.513  0.00  0.00    -0.415 N 
HETATM   16  H   UNK N   1      34.720  15.137  18.571  0.00  0.00     0.151 HD
HETATM   17  H   UNK N   1      35.659  14.120  19.431  0.00  0.00     0.151 HD
ENDBRANCH  14  15
BRANCH  14  18
HETATM   18  C   UNK N   1      35.293  11.828  18.387  0.00  0.00    -0.027 A 
HETATM   19  C   UNK N   1      35.167  11.735  19.782  0.00  0.00     0.010 A 
HETATM   20  C   UNK N   1      34.817  10.518  20.377  0.00  0.00     0.001 A 
HETATM   21  C   UNK N   1      34.578   9.393  19.581  0.00  0.00     0.000 A 
HETATM   22  C   UNK N   1      34.694   9.482  18.192  0.00  0.00     0.001 A 
HETATM   23  C   UNK N   1      35.053  10.695  17.598  0.00  0.00     0.010 A 
ENDBRANCH  14  18
ENDBRANCH  11  14
ENDBRANCH   5  10
BRANCH   7  24
HETATM   24  C   UNK N   1      37.351  14.520  10.085  0.00  0.00     0.194 C 
HETATM   25  O   UNK N   1      38.491  14.760   9.728  0.00  0.00    -0.645 OA
BRANCH  24  26
HETATM   26  O   UNK N   1      36.388  15.421   9.810  0.00  0.00    -0.772 OA
HETATM   27  H   UNK N   1      35.754  15.677  10.451  0.00  0.00     0.167 HD
ENDBRANCH  24  26
ENDBRANCH   7  24
BRANCH   8  28
HETATM   28  C   UNK N   1      36.677  12.057   8.534  0.00  0.00     0.216 C 
BRANCH  28  29
HETATM   29  O   UNK N   1      35.373  12.076   8.101  0.00  0.00    -0.317 OA
BRANCH  29  30
HETATM   30  C   UNK N   1      34.803  13.197   7.596  0.00  0.00     0.255 C 
HETATM   31  O   UNK N   1      34.245  13.976   8.350  0.00  0.00    -0.266 OA
HETATM   32  C   UNK N   1      34.841  13.503   6.129  0.00  0.00     0.126 C 
ENDBRANCH  29  30
ENDBRANCH  28  29
ENDBRANCH   8  28
TORSDOF 9
ENDMDL
MODEL 8
REMARK VINA RESULT:      -5.8      2.268      9.189
REMARK  9 active torsions:
REMARK  status: ('A' for Active; 'I' for Inactive)
REMARK    1  A    between atoms: O_3  and  C_17 
REMARK    2  A    between atoms: O_3  and  C_24 
REMARK    3  A    between atoms: O_4  and  C_19 
REMARK    4  A    between atoms: C_12  and  N_9 
REMARK       I    between atoms: N_9  and  C_18 
REMARK    5  A    between atoms: C_20  and  N_10 
REMARK    6  A    between atoms: C_14  and  C_19 
REMARK    7  A    between atoms: C_15  and  C_17 
REMARK    8  A    between atoms: C_18  and  C_20 
REMARK    9  A    between atoms: C_20  and  C_21 
ROOT
HETATM    1  S   UNK N   1      36.529  12.285   9.656  0.00  0.00    -0.136 SA
HETATM    2  O   UNK N   1      35.298  15.820  11.785  0.00  0.00    -0.271 OA
HETATM    3  N   UNK N   1      35.034  13.585  11.490  0.00  0.00    -0.293 N 
HETATM    4  C   UNK N   1      34.973  13.107  10.130  0.00  0.00     0.187 A 
HETATM    5  C   UNK N   1      34.959  14.650   9.670  0.00  0.00     0.210 A 
HETATM    6  C   UNK N   1      34.939  14.845  11.141  0.00  0.00     0.251 A 
HETATM    7  C   UNK N   1      35.815  13.070  12.589  0.00  0.00     0.117 C 
HETATM    8  C   UNK N   1      36.544  11.933  12.379  0.00  0.00    -0.013 C 
HETATM    9  C   UNK N   1      36.407  11.179  11.087  0.00  0.00     0.115 C 
ENDROOT
BRANCH   5  10
HETATM   10  N   UNK N   1      33.739  15.083   9.030  0.00  0.00    -0.343 N 
HETATM   11  C   UNK N   1      33.664  15.069   7.670  0.00  0.00     0.245 C 
HETATM   12  O   UNK N   1      34.659  14.810   7.006  0.00  0.00    -0.271 OA
HETATM   13  H   UNK N   1      32.972  15.384   9.569  0.00  0.00     0.163 HD
BRANCH  11  14
HETATM   14  C   UNK N   1      32.350  15.255   6.954  0.00  0.00     0.201 C 
BRANCH  14  15
HETATM   15  N   UNK N   1      31.383  15.997   7.749  0.00  0.00    -0.415 N 
HETATM   16  H   UNK N   1      30.538  16.567   7.767  0.00  0.00     0.151 HD
HETATM   17  H   UNK N   1      31.686  15.908   8.718  0.00  0.00     0.151 HD
ENDBRANCH  14  15
BRANCH  14  18
HETATM   18  C   UNK N   1      32.427  15.807   5.556  0.00  0.00    -0.027 A 
HETATM   19  C   UNK N   1      32.347  14.978   4.425  0.00  0.00     0.010 A 
HETATM   20  C   UNK N   1      32.401  15.533   3.142  0.00  0.00     0.001 A 
HETATM   21  C   UNK N   1      32.521  16.917   2.982  0.00  0.00     0.000 A 
HETATM   22  C   UNK N   1      32.593  17.746   4.103  0.00  0.00     0.001 A 
HETATM   23  C   UNK N   1      32.549  17.193   5.386  0.00  0.00     0.010 A 
ENDBRANCH  14  18
ENDBRANCH  11  14
ENDBRANCH   5  10
BRANCH   7  24
HETATM   24  C   UNK N   1      35.883  13.825  13.892  0.00  0.00     0.194 C 
HETATM   25  O   UNK N   1      35.095  13.571  14.787  0.00  0.00    -0.645 OA
BRANCH  24  26
HETATM   26  O   UNK N   1      36.842  14.743  14.122  0.00  0.00    -0.772 OA
HETATM   27  H   UNK N   1      36.725  15.645  13.899  0.00  0.00     0.167 HD
ENDBRANCH  24  26
ENDBRANCH   7  24
BRANCH   8  28
HETATM   28  C   UNK N   1      37.549  11.405  13.358  0.00  0.00     0.216 C 
BRANCH  28  29
HETATM   29  O   UNK N   1      37.149  10.217  13.921  0.00  0.00    -0.317 OA
BRANCH  29  30
HETATM   30  C   UNK N   1      36.218  10.168  14.904  0.00  0.00     0.255 C 
HETATM   31  O   UNK N   1      35.115   9.711  14.661  0.00  0.00    -0.266 OA
HETATM   32  C   UNK N   1      36.514  10.662  16.289  0.00  0.00     0.126 C 
ENDBRANCH  29  30
ENDBRANCH  28  29
ENDBRANCH   8  28
TORSDOF 9
ENDMDL
MODEL 9
REMARK VINA RESULT:      -5.8     12.214     15.231
REMARK  9 active torsions:
REMARK  status: ('A' for Active; 'I' for Inactive)
REMARK    1  A    between atoms: O_3  and  C_17 
REMARK    2  A    between atoms: O_3  and  C_24 
REMARK    3  A    between atoms: O_4  and  C_19 
REMARK    4  A    between atoms: C_12  and  N_9 
REMARK       I    between atoms: N_9  and  C_18 
REMARK    5  A    between atoms: C_20  and  N_10 
REMARK    6  A    between atoms: C_14  and  C_19 
REMARK    7  A    between atoms: C_15  and  C_17 
REMARK    8  A    between atoms: C_18  and  C_20 
REMARK    9  A    between atoms: C_20  and  C_21 
ROOT
HETATM    1  S   UNK N   1      22.403  17.220   4.466  0.00  0.00    -0.136 SA
HETATM    2  O   UNK N   1      22.344  14.960   0.801  0.00  0.00    -0.271 OA
HETATM    3  N   UNK N   1      21.222  15.582   2.674  0.00  0.00    -0.293 N 
HETATM    4  C   UNK N   1      21.953  15.542   3.918  0.00  0.00     0.187 A 
HETATM    5  C   UNK N   1      23.154  14.848   3.100  0.00  0.00     0.210 A 
HETATM    6  C   UNK N   1      22.155  14.944   2.008  0.00  0.00     0.251 A 
HETATM    7  C   UNK N   1      20.390  16.641   2.155  0.00  0.00     0.117 C 
HETATM    8  C   UNK N   1      20.172  17.730   2.950  0.00  0.00    -0.013 C 
HETATM    9  C   UNK N   1      20.669  17.741   4.367  0.00  0.00     0.115 C 
ENDROOT
BRANCH   5  10
HETATM   10  N   UNK N   1      23.442  13.485   3.480  0.00  0.00    -0.343 N 
HETATM   11  C   UNK N   1      24.729  13.130   3.749  0.00  0.00     0.245 C 
HETATM   12  O   UNK N   1      25.637  13.926   3.550  0.00  0.00    -0.271 OA
HETATM   13  H   UNK N   1      22.717  12.822   3.545  0.00  0.00     0.163 HD
BRANCH  11  14
HETATM   14  C   UNK N   1      25.060  11.809   4.397  0.00  0.00     0.201 C 
BRANCH  14  15
HETATM   15  N   UNK N   1      26.456  11.439   4.225  0.00  0.00    -0.415 N 
HETATM   16  H   UNK N   1      27.385  11.705   3.900  0.00  0.00     0.151 HD
HETATM   17  H   UNK N   1      26.545  10.492   4.594  0.00  0.00     0.151 HD
ENDBRANCH  14  15
BRANCH  14  18
HETATM   18  C   UNK N   1      24.638  11.649   5.833  0.00  0.00    -0.027 A 
HETATM   19  C   UNK N   1      24.802  12.677   6.775  0.00  0.00     0.010 A 
HETATM   20  C   UNK N   1      24.376  12.496   8.095  0.00  0.00     0.001 A 
HETATM   21  C   UNK N   1      23.773  11.294   8.478  0.00  0.00     0.000 A 
HETATM   22  C   UNK N   1      23.600  10.271   7.543  0.00  0.00     0.001 A 
HETATM   23  C   UNK N   1      24.034  10.447   6.226  0.00  0.00     0.010 A 
ENDBRANCH  14  18
ENDBRANCH  11  14
ENDBRANCH   5  10
BRANCH   7  24
HETATM   24  C   UNK N   1      19.860  16.568   0.746  0.00  0.00     0.194 C 
HETATM   25  O   UNK N   1      20.369  17.240  -0.134  0.00  0.00    -0.645 OA
BRANCH  24  26
HETATM   26  O   UNK N   1      18.865  15.722   0.414  0.00  0.00    -0.772 OA
HETATM   27  H   UNK N   1      18.631  14.997   0.960  0.00  0.00     0.167 HD
ENDBRANCH  24  26
ENDBRANCH   7  24
BRANCH   8  28
HETATM   28  C   UNK N   1      19.500  18.982   2.468  0.00  0.00     0.216 C 
BRANCH  28  29
HETATM   29  O   UNK N   1      20.257  20.103   2.713  0.00  0.00    -0.317 OA
BRANCH  29  30
HETATM   30  C   UNK N   1      21.367  20.389   1.992  0.00  0.00     0.255 C 
HETATM   31  O   UNK N   1      21.279  20.518   0.783  0.00  0.00    -0.266 OA
HETATM   32  C   UNK N   1      22.706  20.554   2.646  0.00  0.00     0.126 C 
ENDBRANCH  29  30
ENDBRANCH  28  29
ENDBRANCH   8  28
TORSDOF 9
ENDMDL
