MODEL 1
REMARK VINA RESULT:      -6.6      0.000      0.000
REMARK  6 active torsions:
REMARK  status: ('A' for Active; 'I' for Inactive)
REMARK    1  A    between atoms: N_4  and  C_8 
REMARK    2  A    between atoms: N_5  and  C_9 
REMARK    3  A    between atoms: N_5  and  C_11 
REMARK    4  A    between atoms: N_5  and  C_12 
REMARK    5  A    between atoms: C_8  and  C_9 
REMARK    6  A    between atoms: C_15  and  C_21 
ROOT
HETATM    1 Cl   UNK N   1      28.562  14.391   2.703  0.00  0.00    -0.084 Cl
HETATM    2  O   UNK N   1      30.185  18.577   9.498  0.00  0.00    -0.271 OA
HETATM    3  N   UNK N   1      30.289  17.164   7.764  0.00  0.00    -0.314 N 
HETATM    4  N   UNK N   1      27.654  18.753   7.273  0.00  0.00    -0.380 N 
ATOM      5  HN  UNK N   1      27.189  19.658   7.347  1.00  0.00     0.160 HD
HETATM    6  C   UNK N   1      29.735  16.528   6.581  0.00  0.00     0.050 A 
HETATM    7  C   UNK N   1      28.592  16.996   5.815  0.00  0.00     0.020 A 
HETATM    8  C   UNK N   1      29.611  18.030   8.563  0.00  0.00     0.242 C 
HETATM    9  C   UNK N   1      27.737  18.236   6.098  0.00  0.00     0.054 C 
HETATM   10  C   UNK N   1      28.152  18.183   8.480  0.00  0.00     0.223 C 
HETATM   11  C   UNK N   1      30.451  15.415   6.077  0.00  0.00     0.032 A 
HETATM   12  C   UNK N   1      28.285  16.286   4.638  0.00  0.00     0.040 A 
HETATM   13  C   UNK N   1      30.096  14.753   4.915  0.00  0.00     0.026 A 
HETATM   14  C   UNK N   1      29.007  15.190   4.194  0.00  0.00     0.035 A 
ENDROOT
BRANCH   3  15
HETATM   15  C   UNK N   1      31.628  16.779   8.199  0.00  0.00     0.162 C 
BRANCH  15  16
HETATM   16  C   UNK N   1      32.660  17.636   7.458  0.00  0.00     0.292 C 
BRANCH  16  17
HETATM   17  N   UNK N   1      33.921  16.936   7.286  0.00  0.00     0.089 N 
BRANCH  17  18
HETATM   18  C   UNK N   1      33.991  16.545   5.884  0.00  0.00     0.268 C 
HETATM   19  C   UNK N   1      33.260  17.559   5.024  0.00  0.00     0.037 C 
ENDBRANCH  17  18
BRANCH  17  20
HETATM   20  C   UNK N   1      33.819  15.711   8.065  0.00  0.00     0.268 C 
HETATM   21  C   UNK N   1      34.530  14.574   7.354  0.00  0.00     0.037 C 
ENDBRANCH  17  20
ENDBRANCH  16  17
ENDBRANCH  15  16
ENDBRANCH   3  15
BRANCH   9  22
HETATM   22  C   UNK N   1      26.818  18.854   5.042  0.00  0.00     0.030 A 
HETATM   23  C   UNK N   1      27.273  19.899   4.188  0.00  0.00     0.128 A 
HETATM   24  F   UNK N   1      28.551  20.349   4.232  0.00  0.00    -0.205 F 
HETATM   25  C   UNK N   1      26.399  20.502   3.276  0.00  0.00     0.043 A 
HETATM   26  C   UNK N   1      25.070  20.094   3.188  0.00  0.00     0.003 A 
HETATM   27  C   UNK N   1      24.609  19.066   4.004  0.00  0.00     0.001 A 
HETATM   28  C   UNK N   1      25.474  18.457   4.912  0.00  0.00     0.017 A 
ENDBRANCH   9  22
TORSDOF 6
ENDMDL
MODEL 2
REMARK VINA RESULT:      -6.6      2.662      3.775
REMARK  6 active torsions:
REMARK  status: ('A' for Active; 'I' for Inactive)
REMARK    1  A    between atoms: N_4  and  C_8 
REMARK    2  A    between atoms: N_5  and  C_9 
REMARK    3  A    between atoms: N_5  and  C_11 
REMARK    4  A    between atoms: N_5  and  C_12 
REMARK    5  A    between atoms: C_8  and  C_9 
REMARK    6  A    between atoms: C_15  and  C_21 
ROOT
HETATM    1 Cl   UNK N   1      27.903  18.057   9.441  0.00  0.00    -0.084 Cl
HETATM    2  O   UNK N   1      33.571  15.854   4.024  0.00  0.00    -0.271 OA
HETATM    3  N   UNK N   1      32.394  16.157   5.905  0.00  0.00    -0.314 N 
HETATM    4  N   UNK N   1      30.624  17.463   3.698  0.00  0.00    -0.380 N 
ATOM      5  HN  UNK N   1      30.302  17.407   2.732  1.00  0.00     0.160 HD
HETATM    6  C   UNK N   1      31.288  16.721   6.659  0.00  0.00     0.050 A 
HETATM    7  C   UNK N   1      30.076  17.295   6.099  0.00  0.00     0.020 A 
HETATM    8  C   UNK N   1      32.660  16.436   4.601  0.00  0.00     0.242 C 
HETATM    9  C   UNK N   1      29.721  17.435   4.614  0.00  0.00     0.054 C 
HETATM   10  C   UNK N   1      32.030  17.567   3.905  0.00  0.00     0.223 C 
HETATM   11  C   UNK N   1      31.363  16.592   8.067  0.00  0.00     0.032 A 
HETATM   12  C   UNK N   1      29.082  17.692   7.014  0.00  0.00     0.040 A 
HETATM   13  C   UNK N   1      30.353  17.007   8.917  0.00  0.00     0.026 A 
HETATM   14  C   UNK N   1      29.208  17.560   8.388  0.00  0.00     0.035 A 
ENDROOT
BRANCH   3  15
HETATM   15  C   UNK N   1      33.356  15.313   6.606  0.00  0.00     0.162 C 
BRANCH  15  16
HETATM   16  C   UNK N   1      34.572  16.160   6.998  0.00  0.00     0.292 C 
BRANCH  16  17
HETATM   17  N   UNK N   1      35.039  15.848   8.338  0.00  0.00     0.089 N 
BRANCH  17  18
HETATM   18  C   UNK N   1      34.215  14.747   8.819  0.00  0.00     0.268 C 
HETATM   19  C   UNK N   1      33.892  14.943  10.288  0.00  0.00     0.037 C 
ENDBRANCH  17  18
BRANCH  17  20
HETATM   20  C   UNK N   1      34.726  17.006   9.161  0.00  0.00     0.268 C 
HETATM   21  C   UNK N   1      34.591  18.246   8.297  0.00  0.00     0.037 C 
ENDBRANCH  17  20
ENDBRANCH  16  17
ENDBRANCH  15  16
ENDBRANCH   3  15
BRANCH   9  22
HETATM   22  C   UNK N   1      28.291  17.690   4.136  0.00  0.00     0.030 A 
HETATM   23  C   UNK N   1      27.733  19.000   4.144  0.00  0.00     0.128 A 
HETATM   24  F   UNK N   1      28.460  20.082   4.516  0.00  0.00    -0.205 F 
HETATM   25  C   UNK N   1      26.400  19.207   3.770  0.00  0.00     0.043 A 
HETATM   26  C   UNK N   1      25.595  18.137   3.387  0.00  0.00     0.003 A 
HETATM   27  C   UNK N   1      26.124  16.850   3.360  0.00  0.00     0.001 A 
HETATM   28  C   UNK N   1      27.452  16.636   3.727  0.00  0.00     0.017 A 
ENDBRANCH   9  22
TORSDOF 6
ENDMDL
MODEL 3
REMARK VINA RESULT:      -6.5      1.317      2.008
REMARK  6 active torsions:
REMARK  status: ('A' for Active; 'I' for Inactive)
REMARK    1  A    between atoms: N_4  and  C_8 
REMARK    2  A    between atoms: N_5  and  C_9 
REMARK    3  A    between atoms: N_5  and  C_11 
REMARK    4  A    between atoms: N_5  and  C_12 
REMARK    5  A    between atoms: C_8  and  C_9 
REMARK    6  A    between atoms: C_15  and  C_21 
ROOT
HETATM    1 Cl   UNK N   1      27.182  14.475   2.471  0.00  0.00    -0.084 Cl
HETATM    2  O   UNK N   1      30.031  18.576   8.904  0.00  0.00    -0.271 OA
HETATM    3  N   UNK N   1      29.758  17.104   7.239  0.00  0.00    -0.314 N 
HETATM    4  N   UNK N   1      27.382  19.087   6.878  0.00  0.00    -0.380 N 
ATOM      5  HN  UNK N   1      27.077  20.058   6.943  1.00  0.00     0.160 HD
HETATM    6  C   UNK N   1      29.010  16.527   6.136  0.00  0.00     0.050 A 
HETATM    7  C   UNK N   1      27.897  17.149   5.439  0.00  0.00     0.020 A 
HETATM    8  C   UNK N   1      29.299  18.098   8.045  0.00  0.00     0.242 C 
HETATM    9  C   UNK N   1      27.279  18.522   5.727  0.00  0.00     0.054 C 
HETATM   10  C   UNK N   1      27.882  18.487   8.070  0.00  0.00     0.223 C 
HETATM   11  C   UNK N   1      29.491  15.293   5.633  0.00  0.00     0.032 A 
HETATM   12  C   UNK N   1      27.379  16.458   4.327  0.00  0.00     0.040 A 
HETATM   13  C   UNK N   1      28.936  14.658   4.537  0.00  0.00     0.026 A 
HETATM   14  C   UNK N   1      27.875  15.243   3.882  0.00  0.00     0.035 A 
ENDROOT
BRANCH   3  15
HETATM   15  C   UNK N   1      31.049  16.519   7.587  0.00  0.00     0.162 C 
BRANCH  15  16
HETATM   16  C   UNK N   1      32.163  17.339   6.926  0.00  0.00     0.292 C 
BRANCH  16  17
HETATM   17  N   UNK N   1      33.191  16.490   6.349  0.00  0.00     0.089 N 
BRANCH  17  18
HETATM   18  C   UNK N   1      34.379  16.657   7.176  0.00  0.00     0.268 C 
HETATM   19  C   UNK N   1      34.358  18.017   7.846  0.00  0.00     0.037 C 
ENDBRANCH  17  18
BRANCH  17  20
HETATM   20  C   UNK N   1      33.499  17.050   5.042  0.00  0.00     0.268 C 
HETATM   21  C   UNK N   1      32.239  17.580   4.385  0.00  0.00     0.037 C 
ENDBRANCH  17  20
ENDBRANCH  16  17
ENDBRANCH  15  16
ENDBRANCH   3  15
BRANCH   9  22
HETATM   22  C   UNK N   1      26.386  19.245   4.718  0.00  0.00     0.030 A 
HETATM   23  C   UNK N   1      24.993  18.959   4.628  0.00  0.00     0.128 A 
HETATM   24  F   UNK N   1      24.390  18.084   5.468  0.00  0.00    -0.205 F 
HETATM   25  C   UNK N   1      24.203  19.577   3.651  0.00  0.00     0.043 A 
HETATM   26  C   UNK N   1      24.763  20.479   2.749  0.00  0.00     0.003 A 
HETATM   27  C   UNK N   1      26.119  20.782   2.828  0.00  0.00     0.001 A 
HETATM   28  C   UNK N   1      26.912  20.174   3.801  0.00  0.00     0.017 A 
ENDBRANCH   9  22
TORSDOF 6
ENDMDL
MODEL 4
REMARK VINA RESULT:      -6.4     10.836     12.574
REMARK  6 active torsions:
REMARK  status: ('A' for Active; 'I' for Inactive)
REMARK    1  A    between atoms: N_4  and  C_8 
REMARK    2  A    between atoms: N_5  and  C_9 
REMARK    3  A    between atoms: N_5  and  C_11 
REMARK    4  A    between atoms: N_5  and  C_12 
REMARK    5  A    between atoms: C_8  and  C_9 
REMARK    6  A    between atoms: C_15  and  C_21 
ROOT
HETATM    1 Cl   UNK N   1      27.749  21.587  -9.066  0.00  0.00    -0.084 Cl
HETATM    2  O   UNK N   1      30.874  22.790  -1.642  0.00  0.00    -0.271 OA
HETATM    3  N   UNK N   1      30.484  22.050  -3.719  0.00  0.00    -0.314 N 
HETATM    4  N   UNK N   1      28.335  24.267  -3.303  0.00  0.00    -0.380 N 
ATOM      5  HN  UNK N   1      28.130  25.176  -2.888  1.00  0.00     0.160 HD
HETATM    6  C   UNK N   1      29.703  21.987  -4.942  0.00  0.00     0.050 A 
HETATM    7  C   UNK N   1      28.675  22.930  -5.350  0.00  0.00     0.020 A 
HETATM    8  C   UNK N   1      30.114  22.731  -2.602  0.00  0.00     0.242 C 
HETATM    9  C   UNK N   1      28.198  24.166  -4.578  0.00  0.00     0.054 C 
HETATM   10  C   UNK N   1      28.744  23.230  -2.415  0.00  0.00     0.223 C 
HETATM   11  C   UNK N   1      30.065  20.973  -5.862  0.00  0.00     0.032 A 
HETATM   12  C   UNK N   1      28.113  22.741  -6.627  0.00  0.00     0.040 A 
HETATM   13  C   UNK N   1      29.470  20.834  -7.104  0.00  0.00     0.026 A 
HETATM   14  C   UNK N   1      28.489  21.722  -7.486  0.00  0.00     0.035 A 
ENDROOT
BRANCH   3  15
HETATM   15  C   UNK N   1      31.701  21.248  -3.627  0.00  0.00     0.162 C 
BRANCH  15  16
HETATM   16  C   UNK N   1      32.873  22.052  -4.201  0.00  0.00     0.292 C 
BRANCH  16  17
HETATM   17  N   UNK N   1      33.816  21.203  -4.908  0.00  0.00     0.089 N 
BRANCH  17  18
HETATM   18  C   UNK N   1      33.672  21.511  -6.324  0.00  0.00     0.268 C 
HETATM   19  C   UNK N   1      33.225  22.950  -6.500  0.00  0.00     0.037 C 
ENDBRANCH  17  18
BRANCH  17  20
HETATM   20  C   UNK N   1      33.356  19.835  -4.720  0.00  0.00     0.268 C 
HETATM   21  C   UNK N   1      34.522  18.930  -4.370  0.00  0.00     0.037 C 
ENDBRANCH  17  20
ENDBRANCH  16  17
ENDBRANCH  15  16
ENDBRANCH   3  15
BRANCH   9  22
HETATM   22  C   UNK N   1      27.405  25.291  -5.245  0.00  0.00     0.030 A 
HETATM   23  C   UNK N   1      25.981  25.277  -5.268  0.00  0.00     0.128 A 
HETATM   24  F   UNK N   1      25.269  24.303  -4.652  0.00  0.00    -0.205 F 
HETATM   25  C   UNK N   1      25.272  26.276  -5.945  0.00  0.00     0.043 A 
HETATM   26  C   UNK N   1      25.944  27.300  -6.608  0.00  0.00     0.003 A 
HETATM   27  C   UNK N   1      27.335  27.340  -6.587  0.00  0.00     0.001 A 
HETATM   28  C   UNK N   1      28.049  26.350  -5.912  0.00  0.00     0.017 A 
ENDBRANCH   9  22
TORSDOF 6
ENDMDL
MODEL 5
REMARK VINA RESULT:      -6.2     11.008     12.758
REMARK  6 active torsions:
REMARK  status: ('A' for Active; 'I' for Inactive)
REMARK    1  A    between atoms: N_4  and  C_8 
REMARK    2  A    between atoms: N_5  and  C_9 
REMARK    3  A    between atoms: N_5  and  C_11 
REMARK    4  A    between atoms: N_5  and  C_12 
REMARK    5  A    between atoms: C_8  and  C_9 
REMARK    6  A    between atoms: C_15  and  C_21 
ROOT
HETATM    1 Cl   UNK N   1      27.610  21.492  -9.078  0.00  0.00    -0.084 Cl
HETATM    2  O   UNK N   1      30.972  22.751  -1.768  0.00  0.00    -0.271 OA
HETATM    3  N   UNK N   1      30.525  22.006  -3.832  0.00  0.00    -0.314 N 
HETATM    4  N   UNK N   1      28.342  24.172  -3.332  0.00  0.00    -0.380 N 
ATOM      5  HN  UNK N   1      28.132  25.076  -2.908  1.00  0.00     0.160 HD
HETATM    6  C   UNK N   1      29.702  21.928  -5.027  0.00  0.00     0.050 A 
HETATM    7  C   UNK N   1      28.639  22.848  -5.394  0.00  0.00     0.020 A 
HETATM    8  C   UNK N   1      30.180  22.677  -2.700  0.00  0.00     0.242 C 
HETATM    9  C   UNK N   1      28.162  24.071  -4.602  0.00  0.00     0.054 C 
HETATM   10  C   UNK N   1      28.807  23.144  -2.463  0.00  0.00     0.223 C 
HETATM   11  C   UNK N   1      30.053  20.924  -5.962  0.00  0.00     0.032 A 
HETATM   12  C   UNK N   1      28.035  22.649  -6.651  0.00  0.00     0.040 A 
HETATM   13  C   UNK N   1      29.417  20.774  -7.181  0.00  0.00     0.026 A 
HETATM   14  C   UNK N   1      28.403  21.640  -7.526  0.00  0.00     0.035 A 
ENDROOT
BRANCH   3  15
HETATM   15  C   UNK N   1      31.762  21.232  -3.786  0.00  0.00     0.162 C 
BRANCH  15  16
HETATM   16  C   UNK N   1      32.944  22.162  -4.084  0.00  0.00     0.292 C 
BRANCH  16  17
HETATM   17  N   UNK N   1      33.438  21.990  -5.440  0.00  0.00     0.089 N 
BRANCH  17  18
HETATM   18  C   UNK N   1      34.893  21.975  -5.352  0.00  0.00     0.268 C 
HETATM   19  C   UNK N   1      35.330  21.221  -4.111  0.00  0.00     0.037 C 
ENDBRANCH  17  18
BRANCH  17  20
HETATM   20  C   UNK N   1      33.068  23.196  -6.166  0.00  0.00     0.268 C 
HETATM   21  C   UNK N   1      33.070  24.394  -5.234  0.00  0.00     0.037 C 
ENDBRANCH  17  20
ENDBRANCH  16  17
ENDBRANCH  15  16
ENDBRANCH   3  15
BRANCH   9  22
HETATM   22  C   UNK N   1      27.320  25.179  -5.237  0.00  0.00     0.030 A 
HETATM   23  C   UNK N   1      27.925  26.228  -5.986  0.00  0.00     0.128 A 
HETATM   24  F   UNK N   1      29.260  26.259  -6.218  0.00  0.00    -0.205 F 
HETATM   25  C   UNK N   1      27.149  27.273  -6.500  0.00  0.00     0.043 A 
HETATM   26  C   UNK N   1      25.773  27.307  -6.289  0.00  0.00     0.003 A 
HETATM   27  C   UNK N   1      25.160  26.285  -5.571  0.00  0.00     0.001 A 
HETATM   28  C   UNK N   1      25.925  25.238  -5.059  0.00  0.00     0.017 A 
ENDBRANCH   9  22
TORSDOF 6
ENDMDL
MODEL 6
REMARK VINA RESULT:      -6.2      6.524      8.323
REMARK  6 active torsions:
REMARK  status: ('A' for Active; 'I' for Inactive)
REMARK    1  A    between atoms: N_4  and  C_8 
REMARK    2  A    between atoms: N_5  and  C_9 
REMARK    3  A    between atoms: N_5  and  C_11 
REMARK    4  A    between atoms: N_5  and  C_12 
REMARK    5  A    between atoms: C_8  and  C_9 
REMARK    6  A    between atoms: C_15  and  C_21 
ROOT
HETATM    1 Cl   UNK N   1      22.854  14.507   1.003  0.00  0.00    -0.084 Cl
HETATM    2  O   UNK N   1      20.922  16.337   8.700  0.00  0.00    -0.271 OA
HETATM    3  N   UNK N   1      21.318  15.256   6.779  0.00  0.00    -0.314 N 
HETATM    4  N   UNK N   1      22.068  18.212   6.140  0.00  0.00    -0.380 N 
ATOM      5  HN  UNK N   1      22.481  19.074   6.498  1.00  0.00     0.160 HD
HETATM    6  C   UNK N   1      21.649  15.215   5.365  0.00  0.00     0.050 A 
HETATM    7  C   UNK N   1      22.239  16.296   4.594  0.00  0.00     0.020 A 
HETATM    8  C   UNK N   1      21.123  16.397   7.493  0.00  0.00     0.242 C 
HETATM    9  C   UNK N   1      22.620  17.691   5.101  0.00  0.00     0.054 C 
HETATM   10  C   UNK N   1      20.936  17.700   6.839  0.00  0.00     0.223 C 
HETATM   11  C   UNK N   1      21.478  13.966   4.720  0.00  0.00     0.032 A 
HETATM   12  C   UNK N   1      22.577  16.009   3.257  0.00  0.00     0.040 A 
HETATM   13  C   UNK N   1      21.824  13.746   3.399  0.00  0.00     0.026 A 
HETATM   14  C   UNK N   1      22.375  14.773   2.664  0.00  0.00     0.035 A 
ENDROOT
BRANCH   3  15
HETATM   15  C   UNK N   1      21.070  13.997   7.473  0.00  0.00     0.162 C 
BRANCH  15  16
HETATM   16  C   UNK N   1      22.350  13.565   8.198  0.00  0.00     0.292 C 
BRANCH  16  17
HETATM   17  N   UNK N   1      22.125  12.410   9.050  0.00  0.00     0.089 N 
BRANCH  17  18
HETATM   18  C   UNK N   1      21.970  12.920  10.407  0.00  0.00     0.268 C 
HETATM   19  C   UNK N   1      22.677  12.006  11.389  0.00  0.00     0.037 C 
ENDBRANCH  17  18
BRANCH  17  20
HETATM   20  C   UNK N   1      23.358  11.637   9.025  0.00  0.00     0.268 C 
HETATM   21  C   UNK N   1      23.378  10.717   7.818  0.00  0.00     0.037 C 
ENDBRANCH  17  20
ENDBRANCH  16  17
ENDBRANCH  15  16
ENDBRANCH   3  15
BRANCH   9  22
HETATM   22  C   UNK N   1      23.570  18.610   4.332  0.00  0.00     0.030 A 
HETATM   23  C   UNK N   1      23.075  19.642   3.485  0.00  0.00     0.128 A 
HETATM   24  F   UNK N   1      21.748  19.894   3.370  0.00  0.00    -0.205 F 
HETATM   25  C   UNK N   1      23.956  20.428   2.732  0.00  0.00     0.043 A 
HETATM   26  C   UNK N   1      25.330  20.215   2.796  0.00  0.00     0.003 A 
HETATM   27  C   UNK N   1      25.836  19.220   3.627  0.00  0.00     0.001 A 
HETATM   28  C   UNK N   1      24.966  18.436   4.383  0.00  0.00     0.017 A 
ENDBRANCH   9  22
TORSDOF 6
ENDMDL
MODEL 7
REMARK VINA RESULT:      -6.2     10.654     14.135
REMARK  6 active torsions:
REMARK  status: ('A' for Active; 'I' for Inactive)
REMARK    1  A    between atoms: N_4  and  C_8 
REMARK    2  A    between atoms: N_5  and  C_9 
REMARK    3  A    between atoms: N_5  and  C_11 
REMARK    4  A    between atoms: N_5  and  C_12 
REMARK    5  A    between atoms: C_8  and  C_9 
REMARK    6  A    between atoms: C_15  and  C_21 
ROOT
HETATM    1 Cl   UNK N   1      33.650  26.205  -5.880  0.00  0.00    -0.084 Cl
HETATM    2  O   UNK N   1      26.521  23.762  -2.793  0.00  0.00    -0.271 OA
HETATM    3  N   UNK N   1      28.124  24.890  -3.876  0.00  0.00    -0.314 N 
HETATM    4  N   UNK N   1      29.614  22.419  -2.700  0.00  0.00    -0.380 N 
ATOM      5  HN  UNK N   1      29.555  21.426  -2.479  1.00  0.00     0.160 HD
HETATM    6  C   UNK N   1      29.508  25.132  -4.245  0.00  0.00     0.050 A 
HETATM    7  C   UNK N   1      30.609  24.196  -4.095  0.00  0.00     0.020 A 
HETATM    8  C   UNK N   1      27.717  23.947  -2.985  0.00  0.00     0.242 C 
HETATM    9  C   UNK N   1      30.544  22.779  -3.514  0.00  0.00     0.054 C 
HETATM   10  C   UNK N   1      28.660  23.277  -2.079  0.00  0.00     0.223 C 
HETATM   11  C   UNK N   1      29.772  26.354  -4.910  0.00  0.00     0.032 A 
HETATM   12  C   UNK N   1      31.856  24.596  -4.614  0.00  0.00     0.040 A 
HETATM   13  C   UNK N   1      31.023  26.695  -5.394  0.00  0.00     0.026 A 
HETATM   14  C   UNK N   1      32.069  25.812  -5.244  0.00  0.00     0.035 A 
ENDROOT
BRANCH   3  15
HETATM   15  C   UNK N   1      27.096  25.777  -4.410  0.00  0.00     0.162 C 
BRANCH  15  16
HETATM   16  C   UNK N   1      26.603  26.701  -3.291  0.00  0.00     0.292 C 
BRANCH  16  17
HETATM   17  N   UNK N   1      25.761  27.769  -3.802  0.00  0.00     0.089 N 
BRANCH  17  18
HETATM   18  C   UNK N   1      25.785  27.657  -5.254  0.00  0.00     0.268 C 
HETATM   19  C   UNK N   1      24.432  27.197  -5.762  0.00  0.00     0.037 C 
ENDBRANCH  17  18
BRANCH  17  20
HETATM   20  C   UNK N   1      26.430  29.016  -3.460  0.00  0.00     0.268 C 
HETATM   21  C   UNK N   1      27.028  29.651  -4.701  0.00  0.00     0.037 C 
ENDBRANCH  17  20
ENDBRANCH  16  17
ENDBRANCH  15  16
ENDBRANCH   3  15
BRANCH   9  22
HETATM   22  C   UNK N   1      31.648  21.747  -3.747  0.00  0.00     0.030 A 
HETATM   23  C   UNK N   1      31.580  20.825  -4.830  0.00  0.00     0.128 A 
HETATM   24  F   UNK N   1      30.568  20.860  -5.732  0.00  0.00    -0.205 F 
HETATM   25  C   UNK N   1      32.562  19.841  -4.989  0.00  0.00     0.043 A 
HETATM   26  C   UNK N   1      33.623  19.744  -4.091  0.00  0.00     0.003 A 
HETATM   27  C   UNK N   1      33.716  20.643  -3.034  0.00  0.00     0.001 A 
HETATM   28  C   UNK N   1      32.744  21.629  -2.871  0.00  0.00     0.017 A 
ENDBRANCH   9  22
TORSDOF 6
ENDMDL
MODEL 8
REMARK VINA RESULT:      -6.2      7.404      9.034
REMARK  6 active torsions:
REMARK  status: ('A' for Active; 'I' for Inactive)
REMARK    1  A    between atoms: N_4  and  C_8 
REMARK    2  A    between atoms: N_5  and  C_9 
REMARK    3  A    between atoms: N_5  and  C_11 
REMARK    4  A    between atoms: N_5  and  C_12 
REMARK    5  A    between atoms: C_8  and  C_9 
REMARK    6  A    between atoms: C_15  and  C_21 
ROOT
HETATM    1 Cl   UNK N   1      19.450  18.314   9.067  0.00  0.00    -0.084 Cl
HETATM    2  O   UNK N   1      23.255  12.300   5.106  0.00  0.00    -0.271 OA
HETATM    3  N   UNK N   1      22.078  13.490   6.593  0.00  0.00    -0.314 N 
HETATM    4  N   UNK N   1      22.757  15.552   4.357  0.00  0.00    -0.380 N 
ATOM      5  HN  UNK N   1      22.877  15.700   3.356  1.00  0.00     0.160 HD
HETATM    6  C   UNK N   1      21.542  14.735   7.117  0.00  0.00     0.050 A 
HETATM    7  C   UNK N   1      21.431  15.990   6.393  0.00  0.00     0.020 A 
HETATM    8  C   UNK N   1      22.914  13.400   5.524  0.00  0.00     0.242 C 
HETATM    9  C   UNK N   1      21.861  16.263   4.947  0.00  0.00     0.054 C 
HETATM   10  C   UNK N   1      23.597  14.578   4.971  0.00  0.00     0.223 C 
HETATM   11  C   UNK N   1      20.980  14.675   8.415  0.00  0.00     0.032 A 
HETATM   12  C   UNK N   1      20.783  17.050   7.057  0.00  0.00     0.040 A 
HETATM   13  C   UNK N   1      20.360  15.754   9.019  0.00  0.00     0.026 A 
HETATM   14  C   UNK N   1      20.263  16.947   8.337  0.00  0.00     0.035 A 
ENDROOT
BRANCH   3  15
HETATM   15  C   UNK N   1      21.796  12.253   7.314  0.00  0.00     0.162 C 
BRANCH  15  16
HETATM   16  C   UNK N   1      23.053  11.823   8.079  0.00  0.00     0.292 C 
BRANCH  16  17
HETATM   17  N   UNK N   1      23.155  12.487   9.368  0.00  0.00     0.089 N 
BRANCH  17  18
HETATM   18  C   UNK N   1      24.572  12.744   9.591  0.00  0.00     0.268 C 
HETATM   19  C   UNK N   1      25.126  13.606   8.473  0.00  0.00     0.037 C 
ENDBRANCH  17  18
BRANCH  17  20
HETATM   20  C   UNK N   1      22.736  11.513  10.364  0.00  0.00     0.268 C 
HETATM   21  C   UNK N   1      23.229  11.921  11.740  0.00  0.00     0.037 C 
ENDBRANCH  17  20
ENDBRANCH  16  17
ENDBRANCH  15  16
ENDBRANCH   3  15
BRANCH   9  22
HETATM   22  C   UNK N   1      21.362  17.475   4.160  0.00  0.00     0.030 A 
HETATM   23  C   UNK N   1      20.052  17.504   3.601  0.00  0.00     0.128 A 
HETATM   24  F   UNK N   1      19.174  16.490   3.792  0.00  0.00    -0.205 F 
HETATM   25  C   UNK N   1      19.635  18.591   2.824  0.00  0.00     0.043 A 
HETATM   26  C   UNK N   1      20.492  19.662   2.580  0.00  0.00     0.003 A 
HETATM   27  C   UNK N   1      21.771  19.659   3.128  0.00  0.00     0.001 A 
HETATM   28  C   UNK N   1      22.193  18.583   3.907  0.00  0.00     0.017 A 
ENDBRANCH   9  22
TORSDOF 6
ENDMDL
MODEL 9
REMARK VINA RESULT:      -6.2      5.955     10.248
REMARK  6 active torsions:
REMARK  status: ('A' for Active; 'I' for Inactive)
REMARK    1  A    between atoms: N_4  and  C_8 
REMARK    2  A    between atoms: N_5  and  C_9 
REMARK    3  A    between atoms: N_5  and  C_11 
REMARK    4  A    between atoms: N_5  and  C_12 
REMARK    5  A    between atoms: C_8  and  C_9 
REMARK    6  A    between atoms: C_15  and  C_21 
ROOT
HETATM    1 Cl   UNK N   1      33.740   9.482  10.263  0.00  0.00    -0.084 Cl
HETATM    2  O   UNK N   1      35.361  17.463  10.264  0.00  0.00    -0.271 OA
HETATM    3  N   UNK N   1      34.524  15.437   9.807  0.00  0.00    -0.314 N 
HETATM    4  N   UNK N   1      36.445  14.926  12.206  0.00  0.00    -0.380 N 
ATOM      5  HN  UNK N   1      36.816  15.293  13.082  1.00  0.00     0.160 HD
HETATM    6  C   UNK N   1      34.471  13.994   9.973  0.00  0.00     0.050 A 
HETATM    7  C   UNK N   1      35.048  13.238  11.070  0.00  0.00     0.020 A 
HETATM    8  C   UNK N   1      35.440  16.248  10.401  0.00  0.00     0.242 C 
HETATM    9  C   UNK N   1      35.835  13.795  12.263  0.00  0.00     0.054 C 
HETATM   10  C   UNK N   1      36.653  15.714  11.037  0.00  0.00     0.223 C 
HETATM   11  C   UNK N   1      33.687  13.287   9.029  0.00  0.00     0.032 A 
HETATM   12  C   UNK N   1      34.789  11.854  11.091  0.00  0.00     0.040 A 
HETATM   13  C   UNK N   1      33.473  11.922   9.099  0.00  0.00     0.026 A 
HETATM   14  C   UNK N   1      34.028  11.202  10.134  0.00  0.00     0.035 A 
ENDROOT
BRANCH   3  15
HETATM   15  C   UNK N   1      33.607  16.064   8.860  0.00  0.00     0.162 C 
BRANCH  15  16
HETATM   16  C   UNK N   1      34.324  16.250   7.519  0.00  0.00     0.292 C 
BRANCH  16  17
HETATM   17  N   UNK N   1      33.406  16.155   6.397  0.00  0.00     0.089 N 
BRANCH  17  18
HETATM   18  C   UNK N   1      34.069  15.342   5.386  0.00  0.00     0.268 C 
HETATM   19  C   UNK N   1      35.465  14.971   5.851  0.00  0.00     0.037 C 
ENDBRANCH  17  18
BRANCH  17  20
HETATM   20  C   UNK N   1      33.287  17.499   5.851  0.00  0.00     0.268 C 
HETATM   21  C   UNK N   1      32.925  17.439   4.378  0.00  0.00     0.037 C 
ENDBRANCH  17  20
ENDBRANCH  16  17
ENDBRANCH  15  16
ENDBRANCH   3  15
BRANCH   9  22
HETATM   22  C   UNK N   1      36.064  12.987  13.540  0.00  0.00     0.030 A 
HETATM   23  C   UNK N   1      37.127  12.044  13.636  0.00  0.00     0.128 A 
HETATM   24  F   UNK N   1      38.014  11.865  12.627  0.00  0.00    -0.205 F 
HETATM   25  C   UNK N   1      37.281  11.261  14.786  0.00  0.00     0.043 A 
HETATM   26  C   UNK N   1      36.398  11.388  15.856  0.00  0.00     0.003 A 
HETATM   27  C   UNK N   1      35.361  12.312  15.788  0.00  0.00     0.001 A 
HETATM   28  C   UNK N   1      35.203  13.099  14.648  0.00  0.00     0.017 A 
ENDBRANCH   9  22
TORSDOF 6
ENDMDL
