REMARK  13 active torsions:
REMARK  status: ('A' for Active; 'I' for Inactive)
REMARK    1  A    between atoms: O_2  and  C_19 
REMARK    2  A    between atoms: O_3  and  C_23 
REMARK    3  A    between atoms: O_4  and  C_24 
REMARK    4  A    between atoms: O_6  and  C_26 
REMARK    5  A    between atoms: O_6  and  C_32 
REMARK       I    between atoms: N_8  and  C_16 
REMARK    6  A    between atoms: C_15  and  N_9 
REMARK    7  A    between atoms: C_17  and  N_9 
REMARK    8  A    between atoms: C_10  and  C_19 
REMARK    9  A    between atoms: C_15  and  C_16 
REMARK   10  A    between atoms: C_17  and  C_21 
REMARK   11  A    between atoms: C_17  and  C_26 
REMARK   12  A    between atoms: C_21  and  C_25 
REMARK   13  A    between atoms: C_25  and  C_27 
ROOT
HETATM    1  O   UNK N   1       2.041   1.943  -0.874  0.00  0.00    -0.271 OA
HETATM    2  N   UNK N   1       3.933   2.266   0.294  0.00  0.00    -0.331 N 
HETATM    3  C   UNK N   1       4.049   3.658  -0.193  0.00  0.00     0.189 C 
HETATM    4  C   UNK N   1       5.359   4.345   0.252  0.00  0.00     0.075 C 
HETATM    5  C   UNK N   1       4.976   1.720   1.148  0.00  0.00     0.166 C 
HETATM    6  C   UNK N   1       6.512   3.397   0.183  0.00  0.00    -0.045 A 
HETATM    7  C   UNK N   1       6.319   2.088   0.614  0.00  0.00    -0.031 A 
HETATM    8  C   UNK N   1       2.877   1.484  -0.110  0.00  0.00     0.242 C 
HETATM    9  C   UNK N   1       7.764   3.806  -0.280  0.00  0.00     0.047 A 
HETATM   10  C   UNK N   1       7.364   1.166   0.562  0.00  0.00     0.049 A 
HETATM   11  C   UNK N   1       8.838   2.894  -0.314  0.00  0.00     0.102 A 
HETATM   12  C   UNK N   1       8.633   1.563   0.097  0.00  0.00     0.102 A 
ENDROOT
BRANCH   8  13
HETATM   13  C   UNK N   1       2.688   0.046   0.330  0.00  0.00     0.166 C 
HETATM   14  C   UNK N   1       3.160  -0.389   1.709  0.00  0.00     0.042 C 
BRANCH  13  15
HETATM   15  N   UNK N   1       3.053  -0.889  -0.728  0.00  0.00    -0.397 N 
HETATM   16  H   UNK N   1       3.941  -0.832  -1.227  0.00  0.00     0.154 HD
BRANCH  15  17
HETATM   17  C   UNK N   1       2.041  -1.925  -1.023  0.00  0.00     0.178 C 
BRANCH  17  18
HETATM   18  C   UNK N   1       2.718  -3.293  -1.032  0.00  0.00     0.039 C 
BRANCH  18  19
HETATM   19  C   UNK N   1       3.330  -3.633   0.324  0.00  0.00     0.041 C 
BRANCH  19  20
HETATM   20  C   UNK N   1       4.790  -3.900   0.189  0.00  0.00    -0.058 A 
HETATM   21  C   UNK N   1       5.671  -2.873  -0.175  0.00  0.00     0.007 A 
HETATM   22  C   UNK N   1       7.039  -3.133  -0.298  0.00  0.00     0.001 A 
HETATM   23  C   UNK N   1       7.529  -4.420  -0.057  0.00  0.00     0.000 A 
HETATM   24  C   UNK N   1       6.653  -5.446   0.310  0.00  0.00     0.001 A 
HETATM   25  C   UNK N   1       5.284  -5.185   0.435  0.00  0.00     0.007 A 
ENDBRANCH  19  20
ENDBRANCH  18  19
ENDBRANCH  17  18
BRANCH  17  26
HETATM   26  C   UNK N   1       0.676  -1.811  -0.316  0.00  0.00     0.281 C 
HETATM   27  O   UNK N   1       0.143  -0.714  -0.254  0.00  0.00    -0.263 OA
BRANCH  26  28
HETATM   28  O   UNK N   1      -0.014  -2.876   0.179  0.00  0.00    -0.320 OA
BRANCH  28  29
HETATM   29  C   UNK N   1       0.125  -4.172  -0.261  0.00  0.00     0.174 C 
HETATM   30  C   UNK N   1       0.493  -5.086   0.888  0.00  0.00     0.034 C 
ENDBRANCH  28  29
ENDBRANCH  26  28
ENDBRANCH  17  26
ENDBRANCH  15  17
ENDBRANCH  13  15
ENDBRANCH   8  13
BRANCH   3  31
HETATM   31  C   UNK N   1       2.898   4.530   0.245  0.00  0.00     0.164 C 
HETATM   32  O   UNK N   1       2.065   4.119   1.039  0.00  0.00    -0.648 OA
BRANCH  31  33
HETATM   33  O   UNK N   1       2.790   5.782  -0.239  0.00  0.00    -0.775 OA
HETATM   34  H   UNK N   1       3.507   6.282  -0.576  0.00  0.00     0.167 HD
ENDBRANCH  31  33
ENDBRANCH   3  31
BRANCH  12  35
HETATM   35  O   UNK N   1       9.670   0.690   0.053  0.00  0.00    -0.353 OA
HETATM   36  C   UNK N   1       9.565  -0.627   0.439  0.00  0.00     0.210 C 
ENDBRANCH  12  35
BRANCH  11  37
HETATM   37  O   UNK N   1      10.071   3.278  -0.725  0.00  0.00    -0.353 OA
HETATM   38  C   UNK N   1      10.387   4.576  -1.059  0.00  0.00     0.210 C 
ENDBRANCH  11  37
TORSDOF 13
