MODEL 1
REMARK VINA RESULT:      -7.4      0.000      0.000
REMARK  13 active torsions:
REMARK  status: ('A' for Active; 'I' for Inactive)
REMARK    1  A    between atoms: O_2  and  C_19 
REMARK    2  A    between atoms: O_3  and  C_23 
REMARK    3  A    between atoms: O_4  and  C_24 
REMARK    4  A    between atoms: O_6  and  C_26 
REMARK    5  A    between atoms: O_6  and  C_32 
REMARK       I    between atoms: N_8  and  C_16 
REMARK    6  A    between atoms: C_15  and  N_9 
REMARK    7  A    between atoms: C_17  and  N_9 
REMARK    8  A    between atoms: C_10  and  C_19 
REMARK    9  A    between atoms: C_15  and  C_16 
REMARK   10  A    between atoms: C_17  and  C_21 
REMARK   11  A    between atoms: C_17  and  C_26 
REMARK   12  A    between atoms: C_21  and  C_25 
REMARK   13  A    between atoms: C_25  and  C_27 
ROOT
HETATM    1  O   UNK N   1      20.749  18.473   7.271  0.00  0.00    -0.271 OA
HETATM    2  N   UNK N   1      20.482  16.251   7.470  0.00  0.00    -0.331 N 
HETATM    3  C   UNK N   1      19.970  16.392   8.851  0.00  0.00     0.189 C 
HETATM    4  C   UNK N   1      19.736  15.033   9.548  0.00  0.00     0.075 C 
HETATM    5  C   UNK N   1      20.653  14.922   6.905  0.00  0.00     0.166 C 
HETATM    6  C   UNK N   1      20.825  14.065   9.215  0.00  0.00    -0.045 A 
HETATM    7  C   UNK N   1      21.292  14.019   7.905  0.00  0.00    -0.031 A 
HETATM    8  C   UNK N   1      20.846  17.369   6.757  0.00  0.00     0.242 C 
HETATM    9  C   UNK N   1      21.355  13.206  10.179  0.00  0.00     0.047 A 
HETATM   10  C   UNK N   1      22.311  13.137   7.549  0.00  0.00     0.049 A 
HETATM   11  C   UNK N   1      22.366  12.289   9.830  0.00  0.00     0.102 A 
HETATM   12  C   UNK N   1      22.856  12.264   8.511  0.00  0.00     0.102 A 
ENDROOT
BRANCH   8  13
HETATM   13  C   UNK N   1      21.391  17.315   5.344  0.00  0.00     0.166 C 
HETATM   14  C   UNK N   1      22.544  18.223   4.945  0.00  0.00     0.042 C 
BRANCH  13  15
HETATM   15  N   UNK N   1      20.316  17.279   4.358  0.00  0.00    -0.397 N 
HETATM   16  H   UNK N   1      19.372  17.605   4.565  0.00  0.00     0.154 HD
BRANCH  15  17
HETATM   17  C   UNK N   1      20.697  16.734   3.038  0.00  0.00     0.178 C 
BRANCH  17  18
HETATM   18  C   UNK N   1      20.365  15.245   3.000  0.00  0.00     0.039 C 
BRANCH  18  19
HETATM   19  C   UNK N   1      21.491  14.396   3.583  0.00  0.00     0.041 C 
BRANCH  19  20
HETATM   20  C   UNK N   1      22.717  14.499   2.742  0.00  0.00    -0.058 A 
HETATM   21  C   UNK N   1      22.698  14.089   1.403  0.00  0.00     0.007 A 
HETATM   22  C   UNK N   1      23.852  14.191   0.621  0.00  0.00     0.001 A 
HETATM   23  C   UNK N   1      25.028  14.704   1.177  0.00  0.00     0.000 A 
HETATM   24  C   UNK N   1      25.049  15.118   2.512  0.00  0.00     0.001 A 
HETATM   25  C   UNK N   1      23.893  15.018   3.294  0.00  0.00     0.007 A 
ENDBRANCH  19  20
ENDBRANCH  18  19
ENDBRANCH  17  18
BRANCH  17  26
HETATM   26  C   UNK N   1      20.350  17.573   1.792  0.00  0.00     0.281 C 
HETATM   27  O   UNK N   1      20.265  17.006   0.714  0.00  0.00    -0.263 OA
BRANCH  26  28
HETATM   28  O   UNK N   1      20.054  18.902   1.830  0.00  0.00    -0.320 OA
BRANCH  28  29
HETATM   29  C   UNK N   1      20.982  19.907   1.978  0.00  0.00     0.174 C 
HETATM   30  C   UNK N   1      20.778  20.976   0.926  0.00  0.00     0.034 C 
ENDBRANCH  28  29
ENDBRANCH  26  28
ENDBRANCH  17  26
ENDBRANCH  15  17
ENDBRANCH  13  15
ENDBRANCH   8  13
BRANCH   3  31
HETATM   31  C   UNK N   1      18.683  17.176   8.922  0.00  0.00     0.164 C 
HETATM   32  O   UNK N   1      17.650  16.732   8.444  0.00  0.00    -0.648 OA
BRANCH  31  33
HETATM   33  O   UNK N   1      18.669  18.378   9.528  0.00  0.00    -0.775 OA
HETATM   34  H   UNK N   1      18.219  19.131   9.198  0.00  0.00     0.167 HD
ENDBRANCH  31  33
ENDBRANCH   3  31
BRANCH  12  35
HETATM   35  O   UNK N   1      23.836  11.384   8.186  0.00  0.00    -0.353 OA
HETATM   36  C   UNK N   1      23.616  10.253   7.432  0.00  0.00     0.210 C 
ENDBRANCH  12  35
BRANCH  11  37
HETATM   37  O   UNK N   1      22.870  11.421  10.741  0.00  0.00    -0.353 OA
HETATM   38  C   UNK N   1      23.474  11.819  11.912  0.00  0.00     0.210 C 
ENDBRANCH  11  37
TORSDOF 13
ENDMDL
MODEL 2
REMARK VINA RESULT:      -7.1      6.599      8.478
REMARK  13 active torsions:
REMARK  status: ('A' for Active; 'I' for Inactive)
REMARK    1  A    between atoms: O_2  and  C_19 
REMARK    2  A    between atoms: O_3  and  C_23 
REMARK    3  A    between atoms: O_4  and  C_24 
REMARK    4  A    between atoms: O_6  and  C_26 
REMARK    5  A    between atoms: O_6  and  C_32 
REMARK       I    between atoms: N_8  and  C_16 
REMARK    6  A    between atoms: C_15  and  N_9 
REMARK    7  A    between atoms: C_17  and  N_9 
REMARK    8  A    between atoms: C_10  and  C_19 
REMARK    9  A    between atoms: C_15  and  C_16 
REMARK   10  A    between atoms: C_17  and  C_21 
REMARK   11  A    between atoms: C_17  and  C_26 
REMARK   12  A    between atoms: C_21  and  C_25 
REMARK   13  A    between atoms: C_25  and  C_27 
ROOT
HETATM    1  O   UNK N   1      27.757  19.996   7.310  0.00  0.00    -0.271 OA
HETATM    2  N   UNK N   1      28.937  18.114   6.971  0.00  0.00    -0.331 N 
HETATM    3  C   UNK N   1      29.701  18.315   8.222  0.00  0.00     0.189 C 
HETATM    4  C   UNK N   1      30.828  17.276   8.413  0.00  0.00     0.075 C 
HETATM    5  C   UNK N   1      29.259  16.986   6.112  0.00  0.00     0.166 C 
HETATM    6  C   UNK N   1      31.515  16.986   7.118  0.00  0.00    -0.045 A 
HETATM    7  C   UNK N   1      30.738  16.857   5.971  0.00  0.00    -0.031 A 
HETATM    8  C   UNK N   1      27.974  19.023   6.603  0.00  0.00     0.242 C 
HETATM    9  C   UNK N   1      32.901  16.825   7.050  0.00  0.00     0.047 A 
HETATM   10  C   UNK N   1      31.336  16.593   4.739  0.00  0.00     0.049 A 
HETATM   11  C   UNK N   1      33.518  16.532   5.817  0.00  0.00     0.102 A 
HETATM   12  C   UNK N   1      32.733  16.428   4.653  0.00  0.00     0.102 A 
ENDROOT
BRANCH   8  13
HETATM   13  C   UNK N   1      27.154  18.901   5.334  0.00  0.00     0.166 C 
HETATM   14  C   UNK N   1      27.518  19.739   4.117  0.00  0.00     0.042 C 
BRANCH  13  15
HETATM   15  N   UNK N   1      25.724  18.889   5.620  0.00  0.00    -0.397 N 
HETATM   16  H   UNK N   1      25.326  19.347   6.440  0.00  0.00     0.154 HD
BRANCH  15  17
HETATM   17  C   UNK N   1      24.896  18.163   4.635  0.00  0.00     0.178 C 
BRANCH  17  18
HETATM   18  C   UNK N   1      25.405  16.729   4.517  0.00  0.00     0.039 C 
BRANCH  18  19
HETATM   19  C   UNK N   1      25.326  16.214   3.082  0.00  0.00     0.041 C 
BRANCH  19  20
HETATM   20  C   UNK N   1      26.536  15.413   2.744  0.00  0.00    -0.058 A 
HETATM   21  C   UNK N   1      27.811  15.991   2.800  0.00  0.00     0.007 A 
HETATM   22  C   UNK N   1      28.940  15.231   2.482  0.00  0.00     0.001 A 
HETATM   23  C   UNK N   1      28.797  13.891   2.108  0.00  0.00     0.000 A 
HETATM   24  C   UNK N   1      27.526  13.310   2.056  0.00  0.00     0.001 A 
HETATM   25  C   UNK N   1      26.396  14.071   2.376  0.00  0.00     0.007 A 
ENDBRANCH  19  20
ENDBRANCH  18  19
ENDBRANCH  17  18
BRANCH  17  26
HETATM   26  C   UNK N   1      23.370  18.374   4.692  0.00  0.00     0.281 C 
HETATM   27  O   UNK N   1      22.775  18.046   5.707  0.00  0.00    -0.263 OA
BRANCH  26  28
HETATM   28  O   UNK N   1      22.649  18.978   3.706  0.00  0.00    -0.320 OA
BRANCH  28  29
HETATM   29  C   UNK N   1      21.329  19.349   3.817  0.00  0.00     0.174 C 
HETATM   30  C   UNK N   1      21.001  20.446   2.826  0.00  0.00     0.034 C 
ENDBRANCH  28  29
ENDBRANCH  26  28
ENDBRANCH  17  26
ENDBRANCH  15  17
ENDBRANCH  13  15
ENDBRANCH   8  13
BRANCH   3  31
HETATM   31  C   UNK N   1      28.829  18.283   9.453  0.00  0.00     0.164 C 
HETATM   32  O   UNK N   1      29.296  18.505  10.560  0.00  0.00    -0.648 OA
BRANCH  31  33
HETATM   33  O   UNK N   1      27.515  18.013   9.331  0.00  0.00    -0.775 OA
HETATM   34  H   UNK N   1      27.044  17.419   9.882  0.00  0.00     0.167 HD
ENDBRANCH  31  33
ENDBRANCH   3  31
BRANCH  12  35
HETATM   35  O   UNK N   1      33.336  16.154   3.470  0.00  0.00    -0.353 OA
HETATM   36  C   UNK N   1      33.294  14.916   2.870  0.00  0.00     0.210 C 
ENDBRANCH  12  35
BRANCH  11  37
HETATM   37  O   UNK N   1      34.856  16.336   5.733  0.00  0.00    -0.353 OA
HETATM   38  C   UNK N   1      35.469  15.146   6.059  0.00  0.00     0.210 C 
ENDBRANCH  11  37
TORSDOF 13
ENDMDL
MODEL 3
REMARK VINA RESULT:      -7.1      2.715      4.311
REMARK  13 active torsions:
REMARK  status: ('A' for Active; 'I' for Inactive)
REMARK    1  A    between atoms: O_2  and  C_19 
REMARK    2  A    between atoms: O_3  and  C_23 
REMARK    3  A    between atoms: O_4  and  C_24 
REMARK    4  A    between atoms: O_6  and  C_26 
REMARK    5  A    between atoms: O_6  and  C_32 
REMARK       I    between atoms: N_8  and  C_16 
REMARK    6  A    between atoms: C_15  and  N_9 
REMARK    7  A    between atoms: C_17  and  N_9 
REMARK    8  A    between atoms: C_10  and  C_19 
REMARK    9  A    between atoms: C_15  and  C_16 
REMARK   10  A    between atoms: C_17  and  C_21 
REMARK   11  A    between atoms: C_17  and  C_26 
REMARK   12  A    between atoms: C_21  and  C_25 
REMARK   13  A    between atoms: C_25  and  C_27 
ROOT
HETATM    1  O   UNK N   1      20.960  18.632   7.073  0.00  0.00    -0.271 OA
HETATM    2  N   UNK N   1      20.501  16.445   7.313  0.00  0.00    -0.331 N 
HETATM    3  C   UNK N   1      20.155  16.629   8.740  0.00  0.00     0.189 C 
HETATM    4  C   UNK N   1      19.865  15.297   9.466  0.00  0.00     0.075 C 
HETATM    5  C   UNK N   1      20.481  15.109   6.741  0.00  0.00     0.166 C 
HETATM    6  C   UNK N   1      20.813  14.229   9.026  0.00  0.00    -0.045 A 
HETATM    7  C   UNK N   1      21.131  14.143   7.674  0.00  0.00    -0.031 A 
HETATM    8  C   UNK N   1      20.894  17.525   6.559  0.00  0.00     0.242 C 
HETATM    9  C   UNK N   1      21.356  13.318   9.934  0.00  0.00     0.047 A 
HETATM   10  C   UNK N   1      22.016  13.167   7.217  0.00  0.00     0.049 A 
HETATM   11  C   UNK N   1      22.231  12.309   9.485  0.00  0.00     0.102 A 
HETATM   12  C   UNK N   1      22.573  12.241   8.121  0.00  0.00     0.102 A 
ENDROOT
BRANCH   8  13
HETATM   13  C   UNK N   1      21.278  17.425   5.096  0.00  0.00     0.166 C 
HETATM   14  C   UNK N   1      20.201  17.188   4.048  0.00  0.00     0.042 C 
BRANCH  13  15
HETATM   15  N   UNK N   1      22.460  16.591   4.909  0.00  0.00    -0.397 N 
HETATM   16  H   UNK N   1      22.553  15.669   5.336  0.00  0.00     0.154 HD
BRANCH  15  17
HETATM   17  C   UNK N   1      23.513  17.181   4.056  0.00  0.00     0.178 C 
BRANCH  17  18
HETATM   18  C   UNK N   1      23.621  18.673   4.361  0.00  0.00     0.039 C 
BRANCH  18  19
HETATM   19  C   UNK N   1      24.657  19.360   3.475  0.00  0.00     0.041 C 
BRANCH  19  20
HETATM   20  C   UNK N   1      25.810  19.839   4.290  0.00  0.00    -0.058 A 
HETATM   21  C   UNK N   1      25.599  20.643   5.417  0.00  0.00     0.007 A 
HETATM   22  C   UNK N   1      26.687  21.087   6.176  0.00  0.00     0.001 A 
HETATM   23  C   UNK N   1      27.987  20.726   5.808  0.00  0.00     0.000 A 
HETATM   24  C   UNK N   1      28.200  19.920   4.686  0.00  0.00     0.001 A 
HETATM   25  C   UNK N   1      27.111  19.475   3.928  0.00  0.00     0.007 A 
ENDBRANCH  19  20
ENDBRANCH  18  19
ENDBRANCH  17  18
BRANCH  17  26
HETATM   26  C   UNK N   1      24.826  16.391   3.894  0.00  0.00     0.281 C 
HETATM   27  O   UNK N   1      25.077  15.899   2.804  0.00  0.00    -0.263 OA
BRANCH  26  28
HETATM   28  O   UNK N   1      25.766  16.271   4.872  0.00  0.00    -0.320 OA
BRANCH  28  29
HETATM   29  C   UNK N   1      26.019  15.117   5.578  0.00  0.00     0.174 C 
HETATM   30  C   UNK N   1      25.167  15.062   6.827  0.00  0.00     0.034 C 
ENDBRANCH  28  29
ENDBRANCH  26  28
ENDBRANCH  17  26
ENDBRANCH  15  17
ENDBRANCH  13  15
ENDBRANCH   8  13
BRANCH   3  31
HETATM   31  C   UNK N   1      18.965  17.534   8.942  0.00  0.00     0.164 C 
HETATM   32  O   UNK N   1      17.839  17.169   8.638  0.00  0.00    -0.648 OA
BRANCH  31  33
HETATM   33  O   UNK N   1      19.143  18.759   9.472  0.00  0.00    -0.775 OA
HETATM   34  H   UNK N   1      19.173  19.552   8.974  0.00  0.00     0.167 HD
ENDBRANCH  31  33
ENDBRANCH   3  31
BRANCH  12  35
HETATM   35  O   UNK N   1      23.423  11.272   7.699  0.00  0.00    -0.353 OA
HETATM   36  C   UNK N   1      24.101  11.330   6.503  0.00  0.00     0.210 C 
ENDBRANCH  12  35
BRANCH  11  37
HETATM   37  O   UNK N   1      22.742  11.391  10.342  0.00  0.00    -0.353 OA
HETATM   38  C   UNK N   1      23.283  11.718  11.565  0.00  0.00     0.210 C 
ENDBRANCH  11  37
TORSDOF 13
ENDMDL
MODEL 4
REMARK VINA RESULT:      -7.0     15.042     17.130
REMARK  13 active torsions:
REMARK  status: ('A' for Active; 'I' for Inactive)
REMARK    1  A    between atoms: O_2  and  C_19 
REMARK    2  A    between atoms: O_3  and  C_23 
REMARK    3  A    between atoms: O_4  and  C_24 
REMARK    4  A    between atoms: O_6  and  C_26 
REMARK    5  A    between atoms: O_6  and  C_32 
REMARK       I    between atoms: N_8  and  C_16 
REMARK    6  A    between atoms: C_15  and  N_9 
REMARK    7  A    between atoms: C_17  and  N_9 
REMARK    8  A    between atoms: C_10  and  C_19 
REMARK    9  A    between atoms: C_15  and  C_16 
REMARK   10  A    between atoms: C_17  and  C_21 
REMARK   11  A    between atoms: C_17  and  C_26 
REMARK   12  A    between atoms: C_21  and  C_25 
REMARK   13  A    between atoms: C_25  and  C_27 
ROOT
HETATM    1  O   UNK N   1      31.299  25.136  -3.788  0.00  0.00    -0.271 OA
HETATM    2  N   UNK N   1      29.974  23.470  -4.507  0.00  0.00    -0.331 N 
HETATM    3  C   UNK N   1      30.969  22.448  -4.115  0.00  0.00     0.189 C 
HETATM    4  C   UNK N   1      30.568  21.020  -4.543  0.00  0.00     0.075 C 
HETATM    5  C   UNK N   1      28.749  23.054  -5.172  0.00  0.00     0.166 C 
HETATM    6  C   UNK N   1      29.949  21.022  -5.903  0.00  0.00    -0.045 A 
HETATM    7  C   UNK N   1      29.056  22.041  -6.222  0.00  0.00    -0.031 A 
HETATM    8  C   UNK N   1      30.239  24.802  -4.296  0.00  0.00     0.242 C 
HETATM    9  C   UNK N   1      30.233  20.021  -6.834  0.00  0.00     0.047 A 
HETATM   10  C   UNK N   1      28.459  22.088  -7.482  0.00  0.00     0.049 A 
HETATM   11  C   UNK N   1      29.618  20.038  -8.102  0.00  0.00     0.102 A 
HETATM   12  C   UNK N   1      28.736  21.085  -8.432  0.00  0.00     0.102 A 
ENDROOT
BRANCH   8  13
HETATM   13  C   UNK N   1      29.282  25.914  -4.679  0.00  0.00     0.166 C 
HETATM   14  C   UNK N   1      29.433  26.610  -6.023  0.00  0.00     0.042 C 
BRANCH  13  15
HETATM   15  N   UNK N   1      29.064  26.836  -3.571  0.00  0.00    -0.397 N 
HETATM   16  H   UNK N   1      29.592  26.781  -2.699  0.00  0.00     0.154 HD
BRANCH  15  17
HETATM   17  C   UNK N   1      28.022  27.858  -3.804  0.00  0.00     0.178 C 
BRANCH  17  18
HETATM   18  C   UNK N   1      26.683  27.327  -3.300  0.00  0.00     0.039 C 
BRANCH  18  19
HETATM   19  C   UNK N   1      25.562  27.564  -4.308  0.00  0.00     0.041 C 
BRANCH  19  20
HETATM   20  C   UNK N   1      25.662  26.601  -5.441  0.00  0.00    -0.058 A 
HETATM   21  C   UNK N   1      25.818  27.062  -6.755  0.00  0.00     0.007 A 
HETATM   22  C   UNK N   1      25.912  26.151  -7.811  0.00  0.00     0.001 A 
HETATM   23  C   UNK N   1      25.852  24.778  -7.556  0.00  0.00     0.000 A 
HETATM   24  C   UNK N   1      25.700  24.315  -6.245  0.00  0.00     0.001 A 
HETATM   25  C   UNK N   1      25.608  25.227  -5.188  0.00  0.00     0.007 A 
ENDBRANCH  19  20
ENDBRANCH  18  19
ENDBRANCH  17  18
BRANCH  17  26
HETATM   26  C   UNK N   1      28.374  29.323  -3.479  0.00  0.00     0.281 C 
HETATM   27  O   UNK N   1      29.374  29.808  -3.987  0.00  0.00    -0.263 OA
BRANCH  26  28
HETATM   28  O   UNK N   1      27.594  30.141  -2.719  0.00  0.00    -0.320 OA
BRANCH  28  29
HETATM   29  C   UNK N   1      28.032  30.841  -1.619  0.00  0.00     0.174 C 
HETATM   30  C   UNK N   1      28.429  29.890  -0.510  0.00  0.00     0.034 C 
ENDBRANCH  28  29
ENDBRANCH  26  28
ENDBRANCH  17  26
ENDBRANCH  15  17
ENDBRANCH  13  15
ENDBRANCH   8  13
BRANCH   3  31
HETATM   31  C   UNK N   1      31.233  22.428  -2.629  0.00  0.00     0.164 C 
HETATM   32  O   UNK N   1      32.208  21.850  -2.172  0.00  0.00    -0.648 OA
BRANCH  31  33
HETATM   33  O   UNK N   1      30.388  23.062  -1.794  0.00  0.00    -0.775 OA
HETATM   34  H   UNK N   1      30.544  23.188  -0.879  0.00  0.00     0.167 HD
ENDBRANCH  31  33
ENDBRANCH   3  31
BRANCH  12  35
HETATM   35  O   UNK N   1      28.155  21.099  -9.657  0.00  0.00    -0.353 OA
HETATM   36  C   UNK N   1      26.800  21.249  -9.849  0.00  0.00     0.210 C 
ENDBRANCH  12  35
BRANCH  11  37
HETATM   37  O   UNK N   1      29.850  19.058  -9.008  0.00  0.00    -0.353 OA
HETATM   38  C   UNK N   1      31.096  18.517  -9.234  0.00  0.00     0.210 C 
ENDBRANCH  11  37
TORSDOF 13
ENDMDL
MODEL 5
REMARK VINA RESULT:      -7.0     11.577     14.097
REMARK  13 active torsions:
REMARK  status: ('A' for Active; 'I' for Inactive)
REMARK    1  A    between atoms: O_2  and  C_19 
REMARK    2  A    between atoms: O_3  and  C_23 
REMARK    3  A    between atoms: O_4  and  C_24 
REMARK    4  A    between atoms: O_6  and  C_26 
REMARK    5  A    between atoms: O_6  and  C_32 
REMARK       I    between atoms: N_8  and  C_16 
REMARK    6  A    between atoms: C_15  and  N_9 
REMARK    7  A    between atoms: C_17  and  N_9 
REMARK    8  A    between atoms: C_10  and  C_19 
REMARK    9  A    between atoms: C_15  and  C_16 
REMARK   10  A    between atoms: C_17  and  C_21 
REMARK   11  A    between atoms: C_17  and  C_26 
REMARK   12  A    between atoms: C_21  and  C_25 
REMARK   13  A    between atoms: C_25  and  C_27 
ROOT
HETATM    1  O   UNK N   1      35.044  17.139  10.821  0.00  0.00    -0.271 OA
HETATM    2  N   UNK N   1      35.480  15.218   9.740  0.00  0.00    -0.331 N 
HETATM    3  C   UNK N   1      36.398  14.772  10.810  0.00  0.00     0.189 C 
HETATM    4  C   UNK N   1      37.125  13.453  10.469  0.00  0.00     0.075 C 
HETATM    5  C   UNK N   1      35.310  14.391   8.555  0.00  0.00     0.166 C 
HETATM    6  C   UNK N   1      37.531  13.420   9.032  0.00  0.00    -0.045 A 
HETATM    7  C   UNK N   1      36.635  13.900   8.080  0.00  0.00    -0.031 A 
HETATM    8  C   UNK N   1      34.843  16.432   9.844  0.00  0.00     0.242 C 
HETATM    9  C   UNK N   1      38.766  12.903   8.635  0.00  0.00     0.047 A 
HETATM   10  C   UNK N   1      36.973  13.895   6.727  0.00  0.00     0.049 A 
HETATM   11  C   UNK N   1      39.111  12.866   7.269  0.00  0.00     0.102 A 
HETATM   12  C   UNK N   1      38.215  13.377   6.311  0.00  0.00     0.102 A 
ENDROOT
BRANCH   8  13
HETATM   13  C   UNK N   1      33.898  16.972   8.790  0.00  0.00     0.166 C 
HETATM   14  C   UNK N   1      34.228  18.273   8.074  0.00  0.00     0.042 C 
BRANCH  13  15
HETATM   15  N   UNK N   1      32.508  16.887   9.225  0.00  0.00    -0.397 N 
HETATM   16  H   UNK N   1      32.215  17.129  10.171  0.00  0.00     0.154 HD
BRANCH  15  17
HETATM   17  C   UNK N   1      31.557  16.427   8.192  0.00  0.00     0.178 C 
BRANCH  17  18
HETATM   18  C   UNK N   1      30.697  17.606   7.746  0.00  0.00     0.039 C 
BRANCH  18  19
HETATM   19  C   UNK N   1      29.414  17.147   7.058  0.00  0.00     0.041 C 
BRANCH  19  20
HETATM   20  C   UNK N   1      28.689  18.308   6.470  0.00  0.00    -0.058 A 
HETATM   21  C   UNK N   1      28.060  19.248   7.298  0.00  0.00     0.007 A 
HETATM   22  C   UNK N   1      27.383  20.335   6.737  0.00  0.00     0.001 A 
HETATM   23  C   UNK N   1      27.333  20.484   5.348  0.00  0.00     0.000 A 
HETATM   24  C   UNK N   1      27.962  19.550   4.519  0.00  0.00     0.001 A 
HETATM   25  C   UNK N   1      28.642  18.463   5.081  0.00  0.00     0.007 A 
ENDBRANCH  19  20
ENDBRANCH  18  19
ENDBRANCH  17  18
BRANCH  17  26
HETATM   26  C   UNK N   1      32.094  15.484   7.097  0.00  0.00     0.281 C 
HETATM   27  O   UNK N   1      31.885  14.286   7.207  0.00  0.00    -0.263 OA
BRANCH  26  28
HETATM   28  O   UNK N   1      32.723  15.913   5.967  0.00  0.00    -0.320 OA
BRANCH  28  29
HETATM   29  C   UNK N   1      32.105  16.113   4.754  0.00  0.00     0.174 C 
HETATM   30  C   UNK N   1      32.254  17.553   4.314  0.00  0.00     0.034 C 
ENDBRANCH  28  29
ENDBRANCH  26  28
ENDBRANCH  17  26
ENDBRANCH  15  17
ENDBRANCH  13  15
ENDBRANCH   8  13
BRANCH   3  31
HETATM   31  C   UNK N   1      35.705  14.588  12.138  0.00  0.00     0.164 C 
HETATM   32  O   UNK N   1      36.214  14.990  13.174  0.00  0.00    -0.648 OA
BRANCH  31  33
HETATM   33  O   UNK N   1      34.504  13.980  12.183  0.00  0.00    -0.775 OA
HETATM   34  H   UNK N   1      34.325  13.136  11.818  0.00  0.00     0.167 HD
ENDBRANCH  31  33
ENDBRANCH   3  31
BRANCH  12  35
HETATM   35  O   UNK N   1      38.560  13.346   5.000  0.00  0.00    -0.353 OA
HETATM   36  C   UNK N   1      37.645  13.197   3.982  0.00  0.00     0.210 C 
ENDBRANCH  12  35
BRANCH  11  37
HETATM   37  O   UNK N   1      40.289  12.336   6.858  0.00  0.00    -0.353 OA
HETATM   38  C   UNK N   1      41.474  13.037   6.853  0.00  0.00     0.210 C 
ENDBRANCH  11  37
TORSDOF 13
ENDMDL
MODEL 6
REMARK VINA RESULT:      -6.7     11.995     14.288
REMARK  13 active torsions:
REMARK  status: ('A' for Active; 'I' for Inactive)
REMARK    1  A    between atoms: O_2  and  C_19 
REMARK    2  A    between atoms: O_3  and  C_23 
REMARK    3  A    between atoms: O_4  and  C_24 
REMARK    4  A    between atoms: O_6  and  C_26 
REMARK    5  A    between atoms: O_6  and  C_32 
REMARK       I    between atoms: N_8  and  C_16 
REMARK    6  A    between atoms: C_15  and  N_9 
REMARK    7  A    between atoms: C_17  and  N_9 
REMARK    8  A    between atoms: C_10  and  C_19 
REMARK    9  A    between atoms: C_15  and  C_16 
REMARK   10  A    between atoms: C_17  and  C_21 
REMARK   11  A    between atoms: C_17  and  C_26 
REMARK   12  A    between atoms: C_21  and  C_25 
REMARK   13  A    between atoms: C_25  and  C_27 
ROOT
HETATM    1  O   UNK N   1      35.305  17.257  10.854  0.00  0.00    -0.271 OA
HETATM    2  N   UNK N   1      35.629  15.284   9.830  0.00  0.00    -0.331 N 
HETATM    3  C   UNK N   1      36.519  14.816  10.915  0.00  0.00     0.189 C 
HETATM    4  C   UNK N   1      37.168  13.447  10.613  0.00  0.00     0.075 C 
HETATM    5  C   UNK N   1      35.411  14.435   8.669  0.00  0.00     0.166 C 
HETATM    6  C   UNK N   1      37.571  13.349   9.178  0.00  0.00    -0.045 A 
HETATM    7  C   UNK N   1      36.706  13.853   8.212  0.00  0.00    -0.031 A 
HETATM    8  C   UNK N   1      35.064  16.536   9.898  0.00  0.00     0.242 C 
HETATM    9  C   UNK N   1      38.774  12.749   8.799  0.00  0.00     0.047 A 
HETATM   10  C   UNK N   1      37.043  13.790   6.860  0.00  0.00     0.049 A 
HETATM   11  C   UNK N   1      39.117  12.653   7.436  0.00  0.00     0.102 A 
HETATM   12  C   UNK N   1      38.253  13.188   6.462  0.00  0.00     0.102 A 
ENDROOT
BRANCH   8  13
HETATM   13  C   UNK N   1      34.152  17.099   8.827  0.00  0.00     0.166 C 
HETATM   14  C   UNK N   1      34.519  18.401   8.131  0.00  0.00     0.042 C 
BRANCH  13  15
HETATM   15  N   UNK N   1      32.752  17.032   9.228  0.00  0.00    -0.397 N 
HETATM   16  H   UNK N   1      32.461  16.703  10.148  0.00  0.00     0.154 HD
BRANCH  15  17
HETATM   17  C   UNK N   1      31.786  17.477   8.201  0.00  0.00     0.178 C 
BRANCH  17  18
HETATM   18  C   UNK N   1      31.772  16.465   7.059  0.00  0.00     0.039 C 
BRANCH  18  19
HETATM   19  C   UNK N   1      32.039  17.127   5.710  0.00  0.00     0.041 C 
BRANCH  19  20
HETATM   20  C   UNK N   1      32.817  16.217   4.823  0.00  0.00    -0.058 A 
HETATM   21  C   UNK N   1      32.848  16.427   3.438  0.00  0.00     0.007 A 
HETATM   22  C   UNK N   1      33.582  15.569   2.614  0.00  0.00     0.001 A 
HETATM   23  C   UNK N   1      34.286  14.498   3.173  0.00  0.00     0.000 A 
HETATM   24  C   UNK N   1      34.260  14.288   4.555  0.00  0.00     0.001 A 
HETATM   25  C   UNK N   1      33.527  15.148   5.380  0.00  0.00     0.007 A 
ENDBRANCH  19  20
ENDBRANCH  18  19
ENDBRANCH  17  18
BRANCH  17  26
HETATM   26  C   UNK N   1      30.427  18.019   8.688  0.00  0.00     0.281 C 
HETATM   27  O   UNK N   1      30.421  18.982   9.439  0.00  0.00    -0.263 OA
BRANCH  26  28
HETATM   28  O   UNK N   1      29.224  17.538   8.269  0.00  0.00    -0.320 OA
BRANCH  28  29
HETATM   29  C   UNK N   1      28.488  18.064   7.233  0.00  0.00     0.174 C 
HETATM   30  C   UNK N   1      27.612  16.999   6.609  0.00  0.00     0.034 C 
ENDBRANCH  28  29
ENDBRANCH  26  28
ENDBRANCH  17  26
ENDBRANCH  15  17
ENDBRANCH  13  15
ENDBRANCH   8  13
BRANCH   3  31
HETATM   31  C   UNK N   1      35.816  14.711  12.246  0.00  0.00     0.164 C 
HETATM   32  O   UNK N   1      34.719  14.179  12.337  0.00  0.00    -0.648 OA
BRANCH  31  33
HETATM   33  O   UNK N   1      36.406  15.203  13.351  0.00  0.00    -0.775 OA
HETATM   34  H   UNK N   1      37.231  14.909  13.685  0.00  0.00     0.167 HD
ENDBRANCH  31  33
ENDBRANCH   3  31
BRANCH  12  35
HETATM   35  O   UNK N   1      38.596  13.099   5.152  0.00  0.00    -0.353 OA
HETATM   36  C   UNK N   1      39.175  14.132   4.451  0.00  0.00     0.210 C 
ENDBRANCH  12  35
BRANCH  11  37
HETATM   37  O   UNK N   1      40.262  12.043   7.043  0.00  0.00    -0.353 OA
HETATM   38  C   UNK N   1      41.497  12.649   7.091  0.00  0.00     0.210 C 
ENDBRANCH  11  37
TORSDOF 13
ENDMDL
MODEL 7
REMARK VINA RESULT:      -6.7     14.649     16.805
REMARK  13 active torsions:
REMARK  status: ('A' for Active; 'I' for Inactive)
REMARK    1  A    between atoms: O_2  and  C_19 
REMARK    2  A    between atoms: O_3  and  C_23 
REMARK    3  A    between atoms: O_4  and  C_24 
REMARK    4  A    between atoms: O_6  and  C_26 
REMARK    5  A    between atoms: O_6  and  C_32 
REMARK       I    between atoms: N_8  and  C_16 
REMARK    6  A    between atoms: C_15  and  N_9 
REMARK    7  A    between atoms: C_17  and  N_9 
REMARK    8  A    between atoms: C_10  and  C_19 
REMARK    9  A    between atoms: C_15  and  C_16 
REMARK   10  A    between atoms: C_17  and  C_21 
REMARK   11  A    between atoms: C_17  and  C_26 
REMARK   12  A    between atoms: C_21  and  C_25 
REMARK   13  A    between atoms: C_25  and  C_27 
ROOT
HETATM    1  O   UNK N   1      29.795  24.791  -4.832  0.00  0.00    -0.271 OA
HETATM    2  N   UNK N   1      30.215  22.585  -4.898  0.00  0.00    -0.331 N 
HETATM    3  C   UNK N   1      30.884  22.627  -3.579  0.00  0.00     0.189 C 
HETATM    4  C   UNK N   1      31.521  21.277  -3.183  0.00  0.00     0.075 C 
HETATM    5  C   UNK N   1      30.169  21.331  -5.634  0.00  0.00     0.166 C 
HETATM    6  C   UNK N   1      32.164  20.621  -4.362  0.00  0.00    -0.045 A 
HETATM    7  C   UNK N   1      31.500  20.660  -5.584  0.00  0.00    -0.031 A 
HETATM    8  C   UNK N   1      29.696  23.736  -5.441  0.00  0.00     0.242 C 
HETATM    9  C   UNK N   1      33.389  19.962  -4.250  0.00  0.00     0.047 A 
HETATM   10  C   UNK N   1      32.064  20.067  -6.713  0.00  0.00     0.049 A 
HETATM   11  C   UNK N   1      33.961  19.334  -5.375  0.00  0.00     0.102 A 
HETATM   12  C   UNK N   1      33.300  19.399  -6.617  0.00  0.00     0.102 A 
ENDROOT
BRANCH   8  13
HETATM   13  C   UNK N   1      29.007  23.785  -6.790  0.00  0.00     0.166 C 
HETATM   14  C   UNK N   1      29.823  24.051  -8.045  0.00  0.00     0.042 C 
BRANCH  13  15
HETATM   15  N   UNK N   1      27.770  24.555  -6.730  0.00  0.00    -0.397 N 
HETATM   16  H   UNK N   1      27.698  25.505  -7.095  0.00  0.00     0.154 HD
BRANCH  15  17
HETATM   17  C   UNK N   1      26.628  23.858  -6.102  0.00  0.00     0.178 C 
BRANCH  17  18
HETATM   18  C   UNK N   1      25.855  24.849  -5.236  0.00  0.00     0.039 C 
BRANCH  18  19
HETATM   19  C   UNK N   1      25.362  26.045  -6.045  0.00  0.00     0.041 C 
BRANCH  19  20
HETATM   20  C   UNK N   1      25.958  27.310  -5.529  0.00  0.00    -0.058 A 
HETATM   21  C   UNK N   1      25.530  27.854  -4.311  0.00  0.00     0.007 A 
HETATM   22  C   UNK N   1      26.096  29.040  -3.834  0.00  0.00     0.001 A 
HETATM   23  C   UNK N   1      27.091  29.684  -4.575  0.00  0.00     0.000 A 
HETATM   24  C   UNK N   1      27.524  29.142  -5.789  0.00  0.00     0.001 A 
HETATM   25  C   UNK N   1      26.958  27.954  -6.264  0.00  0.00     0.007 A 
ENDBRANCH  19  20
ENDBRANCH  18  19
ENDBRANCH  17  18
BRANCH  17  26
HETATM   26  C   UNK N   1      25.810  22.892  -6.982  0.00  0.00     0.281 C 
HETATM   27  O   UNK N   1      24.858  22.314  -6.481  0.00  0.00    -0.263 OA
BRANCH  26  28
HETATM   28  O   UNK N   1      26.037  22.699  -8.311  0.00  0.00    -0.320 OA
BRANCH  28  29
HETATM   29  C   UNK N   1      26.268  21.476  -8.897  0.00  0.00     0.174 C 
HETATM   30  C   UNK N   1      27.499  20.827  -8.301  0.00  0.00     0.034 C 
ENDBRANCH  28  29
ENDBRANCH  26  28
ENDBRANCH  17  26
ENDBRANCH  15  17
ENDBRANCH  13  15
ENDBRANCH   8  13
BRANCH   3  31
HETATM   31  C   UNK N   1      29.957  23.045  -2.464  0.00  0.00     0.164 C 
HETATM   32  O   UNK N   1      30.362  23.153  -1.317  0.00  0.00    -0.648 OA
BRANCH  31  33
HETATM   33  O   UNK N   1      28.665  23.312  -2.738  0.00  0.00    -0.775 OA
HETATM   34  H   UNK N   1      27.941  22.982  -2.243  0.00  0.00     0.167 HD
ENDBRANCH  31  33
ENDBRANCH   3  31
BRANCH  12  35
HETATM   35  O   UNK N   1      33.861  18.799  -7.696  0.00  0.00    -0.353 OA
HETATM   36  C   UNK N   1      34.309  19.493  -8.797  0.00  0.00     0.210 C 
ENDBRANCH  12  35
BRANCH  11  37
HETATM   37  O   UNK N   1      35.131  18.658  -5.282  0.00  0.00    -0.353 OA
HETATM   38  C   UNK N   1      35.234  17.394  -4.746  0.00  0.00     0.210 C 
ENDBRANCH  11  37
TORSDOF 13
ENDMDL
MODEL 8
REMARK VINA RESULT:      -6.6      2.759      3.695
REMARK  13 active torsions:
REMARK  status: ('A' for Active; 'I' for Inactive)
REMARK    1  A    between atoms: O_2  and  C_19 
REMARK    2  A    between atoms: O_3  and  C_23 
REMARK    3  A    between atoms: O_4  and  C_24 
REMARK    4  A    between atoms: O_6  and  C_26 
REMARK    5  A    between atoms: O_6  and  C_32 
REMARK       I    between atoms: N_8  and  C_16 
REMARK    6  A    between atoms: C_15  and  N_9 
REMARK    7  A    between atoms: C_17  and  N_9 
REMARK    8  A    between atoms: C_10  and  C_19 
REMARK    9  A    between atoms: C_15  and  C_16 
REMARK   10  A    between atoms: C_17  and  C_21 
REMARK   11  A    between atoms: C_17  and  C_26 
REMARK   12  A    between atoms: C_21  and  C_25 
REMARK   13  A    between atoms: C_25  and  C_27 
ROOT
HETATM    1  O   UNK N   1      21.145  18.679   6.859  0.00  0.00    -0.271 OA
HETATM    2  N   UNK N   1      20.590  16.520   7.142  0.00  0.00    -0.331 N 
HETATM    3  C   UNK N   1      20.379  16.718   8.592  0.00  0.00     0.189 C 
HETATM    4  C   UNK N   1      20.081  15.401   9.343  0.00  0.00     0.075 C 
HETATM    5  C   UNK N   1      20.447  15.188   6.575  0.00  0.00     0.166 C 
HETATM    6  C   UNK N   1      20.927  14.284   8.824  0.00  0.00    -0.045 A 
HETATM    7  C   UNK N   1      21.122  14.186   7.449  0.00  0.00    -0.031 A 
HETATM    8  C   UNK N   1      20.975  17.579   6.354  0.00  0.00     0.242 C 
HETATM    9  C   UNK N   1      21.496  13.342   9.682  0.00  0.00     0.047 A 
HETATM   10  C   UNK N   1      21.910  13.164   6.919  0.00  0.00     0.049 A 
HETATM   11  C   UNK N   1      22.273  12.288   9.161  0.00  0.00     0.102 A 
HETATM   12  C   UNK N   1      22.491  12.206   7.772  0.00  0.00     0.102 A 
ENDROOT
BRANCH   8  13
HETATM   13  C   UNK N   1      21.224  17.463   4.864  0.00  0.00     0.166 C 
HETATM   14  C   UNK N   1      20.047  17.326   3.910  0.00  0.00     0.042 C 
BRANCH  13  15
HETATM   15  N   UNK N   1      22.313  16.537   4.575  0.00  0.00    -0.397 N 
HETATM   16  H   UNK N   1      22.175  15.680   4.038  0.00  0.00     0.154 HD
BRANCH  15  17
HETATM   17  C   UNK N   1      23.630  16.932   5.117  0.00  0.00     0.178 C 
BRANCH  17  18
HETATM   18  C   UNK N   1      24.523  15.697   5.202  0.00  0.00     0.039 C 
BRANCH  18  19
HETATM   19  C   UNK N   1      25.262  15.621   6.535  0.00  0.00     0.041 C 
BRANCH  19  20
HETATM   20  C   UNK N   1      26.718  15.873   6.344  0.00  0.00    -0.058 A 
HETATM   21  C   UNK N   1      27.418  15.250   5.302  0.00  0.00     0.007 A 
HETATM   22  C   UNK N   1      28.783  15.494   5.130  0.00  0.00     0.001 A 
HETATM   23  C   UNK N   1      29.452  16.362   5.999  0.00  0.00     0.000 A 
HETATM   24  C   UNK N   1      28.756  16.988   7.037  0.00  0.00     0.001 A 
HETATM   25  C   UNK N   1      27.388  16.745   7.208  0.00  0.00     0.007 A 
ENDBRANCH  19  20
ENDBRANCH  18  19
ENDBRANCH  17  18
BRANCH  17  26
HETATM   26  C   UNK N   1      24.262  18.232   4.581  0.00  0.00     0.281 C 
HETATM   27  O   UNK N   1      23.799  18.728   3.565  0.00  0.00    -0.263 OA
BRANCH  26  28
HETATM   28  O   UNK N   1      25.260  18.908   5.214  0.00  0.00    -0.320 OA
BRANCH  28  29
HETATM   29  C   UNK N   1      26.185  19.709   4.585  0.00  0.00     0.174 C 
HETATM   30  C   UNK N   1      27.362  18.885   4.109  0.00  0.00     0.034 C 
ENDBRANCH  28  29
ENDBRANCH  26  28
ENDBRANCH  17  26
ENDBRANCH  15  17
ENDBRANCH  13  15
ENDBRANCH   8  13
BRANCH   3  31
HETATM   31  C   UNK N   1      19.263  17.686   8.896  0.00  0.00     0.164 C 
HETATM   32  O   UNK N   1      18.094  17.367   8.737  0.00  0.00    -0.648 OA
BRANCH  31  33
HETATM   33  O   UNK N   1      19.556  18.917   9.357  0.00  0.00    -0.775 OA
HETATM   34  H   UNK N   1      19.475  19.703   8.853  0.00  0.00     0.167 HD
ENDBRANCH  31  33
ENDBRANCH   3  31
BRANCH  12  35
HETATM   35  O   UNK N   1      23.247  11.193   7.280  0.00  0.00    -0.353 OA
HETATM   36  C   UNK N   1      24.378  11.394   6.522  0.00  0.00     0.210 C 
ENDBRANCH  12  35
BRANCH  11  37
HETATM   37  O   UNK N   1      22.805  11.341   9.972  0.00  0.00    -0.353 OA
HETATM   38  C   UNK N   1      23.307  11.614  11.225  0.00  0.00     0.210 C 
ENDBRANCH  11  37
TORSDOF 13
ENDMDL
MODEL 9
REMARK VINA RESULT:      -6.6      5.123      7.168
REMARK  13 active torsions:
REMARK  status: ('A' for Active; 'I' for Inactive)
REMARK    1  A    between atoms: O_2  and  C_19 
REMARK    2  A    between atoms: O_3  and  C_23 
REMARK    3  A    between atoms: O_4  and  C_24 
REMARK    4  A    between atoms: O_6  and  C_26 
REMARK    5  A    between atoms: O_6  and  C_32 
REMARK       I    between atoms: N_8  and  C_16 
REMARK    6  A    between atoms: C_15  and  N_9 
REMARK    7  A    between atoms: C_17  and  N_9 
REMARK    8  A    between atoms: C_10  and  C_19 
REMARK    9  A    between atoms: C_15  and  C_16 
REMARK   10  A    between atoms: C_17  and  C_21 
REMARK   11  A    between atoms: C_17  and  C_26 
REMARK   12  A    between atoms: C_21  and  C_25 
REMARK   13  A    between atoms: C_25  and  C_27 
ROOT
HETATM    1  O   UNK N   1      24.888  18.800   4.720  0.00  0.00    -0.271 OA
HETATM    2  N   UNK N   1      23.291  17.257   5.062  0.00  0.00    -0.331 N 
HETATM    3  C   UNK N   1      22.222  18.275   4.955  0.00  0.00     0.189 C 
HETATM    4  C   UNK N   1      20.819  17.710   5.265  0.00  0.00     0.075 C 
HETATM    5  C   UNK N   1      22.936  15.882   5.374  0.00  0.00     0.166 C 
HETATM    6  C   UNK N   1      20.867  16.749   6.408  0.00  0.00    -0.045 A 
HETATM    7  C   UNK N   1      21.927  15.850   6.472  0.00  0.00    -0.031 A 
HETATM    8  C   UNK N   1      24.607  17.628   4.926  0.00  0.00     0.242 C 
HETATM    9  C   UNK N   1      19.870  16.728   7.385  0.00  0.00     0.047 A 
HETATM   10  C   UNK N   1      22.019  14.939   7.524  0.00  0.00     0.049 A 
HETATM   11  C   UNK N   1      19.932  15.796   8.440  0.00  0.00     0.102 A 
HETATM   12  C   UNK N   1      21.020  14.905   8.517  0.00  0.00     0.102 A 
ENDROOT
BRANCH   8  13
HETATM   13  C   UNK N   1      25.764  16.654   5.033  0.00  0.00     0.166 C 
HETATM   14  C   UNK N   1      25.964  15.859   6.314  0.00  0.00     0.042 C 
BRANCH  13  15
HETATM   15  N   UNK N   1      26.997  17.230   4.510  0.00  0.00    -0.397 N 
HETATM   16  H   UNK N   1      27.141  17.406   3.516  0.00  0.00     0.154 HD
BRANCH  15  17
HETATM   17  C   UNK N   1      28.024  17.538   5.528  0.00  0.00     0.178 C 
BRANCH  17  18
HETATM   18  C   UNK N   1      29.395  17.140   4.988  0.00  0.00     0.039 C 
BRANCH  18  19
HETATM   19  C   UNK N   1      30.118  16.179   5.928  0.00  0.00     0.041 C 
BRANCH  19  20
HETATM   20  C   UNK N   1      31.377  16.791   6.438  0.00  0.00    -0.058 A 
HETATM   21  C   UNK N   1      31.433  17.334   7.728  0.00  0.00     0.007 A 
HETATM   22  C   UNK N   1      32.619  17.905   8.198  0.00  0.00     0.001 A 
HETATM   23  C   UNK N   1      33.752  17.935   7.379  0.00  0.00     0.000 A 
HETATM   24  C   UNK N   1      33.700  17.390   6.092  0.00  0.00     0.001 A 
HETATM   25  C   UNK N   1      32.513  16.817   5.623  0.00  0.00     0.007 A 
ENDBRANCH  19  20
ENDBRANCH  18  19
ENDBRANCH  17  18
BRANCH  17  26
HETATM   26  C   UNK N   1      27.914  18.886   6.267  0.00  0.00     0.281 C 
HETATM   27  O   UNK N   1      28.243  18.934   7.442  0.00  0.00    -0.263 OA
BRANCH  26  28
HETATM   28  O   UNK N   1      27.544  20.052   5.668  0.00  0.00    -0.320 OA
BRANCH  28  29
HETATM   29  C   UNK N   1      27.580  21.288   6.271  0.00  0.00     0.174 C 
HETATM   30  C   UNK N   1      26.182  21.749   6.622  0.00  0.00     0.034 C 
ENDBRANCH  28  29
ENDBRANCH  26  28
ENDBRANCH  17  26
ENDBRANCH  15  17
ENDBRANCH  13  15
ENDBRANCH   8  13
BRANCH   3  31
HETATM   31  C   UNK N   1      22.168  18.927   3.596  0.00  0.00     0.164 C 
HETATM   32  O   UNK N   1      21.550  18.413   2.676  0.00  0.00    -0.648 OA
BRANCH  31  33
HETATM   33  O   UNK N   1      22.804  20.097   3.393  0.00  0.00    -0.775 OA
HETATM   34  H   UNK N   1      22.372  20.918   3.266  0.00  0.00     0.167 HD
ENDBRANCH  31  33
ENDBRANCH   3  31
BRANCH  12  35
HETATM   35  O   UNK N   1      21.077  14.017   9.541  0.00  0.00    -0.353 OA
HETATM   36  C   UNK N   1      22.227  13.352   9.900  0.00  0.00     0.210 C 
ENDBRANCH  12  35
BRANCH  11  37
HETATM   37  O   UNK N   1      18.957  15.733   9.378  0.00  0.00    -0.353 OA
HETATM   38  C   UNK N   1      17.968  16.682   9.507  0.00  0.00     0.210 C 
ENDBRANCH  11  37
TORSDOF 13
ENDMDL
