MODEL 1
REMARK VINA RESULT:      -6.5      0.000      0.000
REMARK  5 active torsions:
REMARK  status: ('A' for Active; 'I' for Inactive)
REMARK    1  A    between atoms: O_1  and  C_19 
REMARK    2  A    between atoms: N_2  and  C_6 
REMARK    3  A    between atoms: N_2  and  C_10 
REMARK    4  A    between atoms: N_2  and  C_11 
REMARK    5  A    between atoms: C_6  and  C_7 
ROOT
HETATM    1  N   UNK N   1      32.249  17.406   7.463  0.00  0.00    -0.340 N 
ENDROOT
BRANCH   1   2
HETATM    2  C   UNK N   1      33.311  18.041   8.245  0.00  0.00     0.205 C 
BRANCH   2   3
HETATM    3  C   UNK N   1      34.009  17.127   9.217  0.00  0.00     0.091 A 
HETATM    4  N   UNK N   1      33.470  15.917   9.641  0.00  0.00    -0.377 N 
HETATM    5  C   UNK N   1      34.327  15.359  10.653  0.00  0.00     0.140 A 
HETATM    6  H   UNK N   1      32.640  15.509   9.305  0.00  0.00     0.160 HD
HETATM    7  C   UNK N   1      35.456  16.414  10.774  0.00  0.00     0.140 A 
HETATM    8  N   UNK N   1      35.080  17.435   9.826  0.00  0.00    -0.377 N 
ATOM      9  HN  UNK N   1      35.606  18.295   9.666  1.00  0.00     0.160 HD
ENDBRANCH   2   3
ENDBRANCH   1   2
BRANCH   1  10
HETATM   10  C   UNK N   1      32.588  16.739   6.220  0.00  0.00     0.035 A 
HETATM   11  C   UNK N   1      32.720  17.443   5.006  0.00  0.00     0.030 A 
HETATM   12  C   UNK N   1      33.070  16.789   3.823  0.00  0.00     0.009 A 
HETATM   13  C   UNK N   1      33.293  15.413   3.827  0.00  0.00    -0.062 A 
HETATM   14  C   UNK N   1      33.168  14.694   5.015  0.00  0.00     0.009 A 
HETATM   15  C   UNK N   1      33.666  14.716   2.569  0.00  0.00     0.048 C 
HETATM   16  C   UNK N   1      32.826  15.353   6.199  0.00  0.00     0.030 A 
ENDBRANCH   1  10
BRANCH   1  17
HETATM   17  C   UNK N   1      30.886  17.621   7.905  0.00  0.00     0.037 A 
HETATM   18  C   UNK N   1      29.813  17.045   7.194  0.00  0.00     0.066 A 
HETATM   19  C   UNK N   1      28.492  17.207   7.623  0.00  0.00     0.067 A 
HETATM   20  C   UNK N   1      28.216  17.946   8.774  0.00  0.00     0.036 A 
HETATM   21  C   UNK N   1      29.261  18.526   9.493  0.00  0.00     0.005 A 
HETATM   22  C   UNK N   1      30.579  18.365   9.062  0.00  0.00     0.030 A 
BRANCH  19  23
HETATM   23  O   UNK N   1      27.487  16.649   6.931  0.00  0.00    -0.361 OA
HETATM   24  H   UNK N   1      27.638  16.253   6.095  0.00  0.00     0.217 HD
ENDBRANCH  19  23
ENDBRANCH   1  17
TORSDOF 5
ENDMDL
MODEL 2
REMARK VINA RESULT:      -6.4     14.058     16.668
REMARK  5 active torsions:
REMARK  status: ('A' for Active; 'I' for Inactive)
REMARK    1  A    between atoms: O_1  and  C_19 
REMARK    2  A    between atoms: N_2  and  C_6 
REMARK    3  A    between atoms: N_2  and  C_10 
REMARK    4  A    between atoms: N_2  and  C_11 
REMARK    5  A    between atoms: C_6  and  C_7 
ROOT
HETATM    1  N   UNK N   1      27.059  24.754  -4.431  0.00  0.00    -0.340 N 
ENDROOT
BRANCH   1   2
HETATM    2  C   UNK N   1      25.867  24.010  -4.839  0.00  0.00     0.205 C 
BRANCH   2   3
HETATM    3  C   UNK N   1      25.790  23.704  -6.312  0.00  0.00     0.091 A 
HETATM    4  N   UNK N   1      25.532  24.673  -7.276  0.00  0.00    -0.377 N 
HETATM    5  C   UNK N   1      25.406  24.028  -8.556  0.00  0.00     0.140 A 
HETATM    6  H   UNK N   1      25.450  25.639  -7.111  0.00  0.00     0.160 HD
HETATM    7  C   UNK N   1      25.623  22.532  -8.217  0.00  0.00     0.140 A 
HETATM    8  N   UNK N   1      25.828  22.527  -6.787  0.00  0.00    -0.377 N 
ATOM      9  HN  UNK N   1      25.984  21.686  -6.231  1.00  0.00     0.160 HD
ENDBRANCH   2   3
ENDBRANCH   1   2
BRANCH   1  10
HETATM   10  C   UNK N   1      27.017  26.204  -4.417  0.00  0.00     0.035 A 
HETATM   11  C   UNK N   1      27.717  26.981  -5.362  0.00  0.00     0.030 A 
HETATM   12  C   UNK N   1      27.647  28.376  -5.349  0.00  0.00     0.009 A 
HETATM   13  C   UNK N   1      26.878  29.026  -4.385  0.00  0.00    -0.062 A 
HETATM   14  C   UNK N   1      26.177  28.280  -3.438  0.00  0.00     0.009 A 
HETATM   15  C   UNK N   1      26.802  30.509  -4.370  0.00  0.00     0.048 C 
HETATM   16  C   UNK N   1      26.242  26.884  -3.460  0.00  0.00     0.030 A 
ENDBRANCH   1  10
BRANCH   1  17
HETATM   17  C   UNK N   1      28.271  23.991  -4.215  0.00  0.00     0.037 A 
HETATM   18  C   UNK N   1      28.798  23.852  -2.914  0.00  0.00     0.066 A 
HETATM   19  C   UNK N   1      29.944  23.088  -2.676  0.00  0.00     0.067 A 
HETATM   20  C   UNK N   1      30.587  22.443  -3.734  0.00  0.00     0.036 A 
HETATM   21  C   UNK N   1      30.086  22.567  -5.030  0.00  0.00     0.005 A 
HETATM   22  C   UNK N   1      28.942  23.331  -5.265  0.00  0.00     0.030 A 
BRANCH  19  23
HETATM   23  O   UNK N   1      30.427  22.969  -1.430  0.00  0.00    -0.361 OA
HETATM   24  H   UNK N   1      30.414  23.695  -0.837  0.00  0.00     0.217 HD
ENDBRANCH  19  23
ENDBRANCH   1  17
TORSDOF 5
ENDMDL
MODEL 3
REMARK VINA RESULT:      -6.3      3.542      6.376
REMARK  5 active torsions:
REMARK  status: ('A' for Active; 'I' for Inactive)
REMARK    1  A    between atoms: O_1  and  C_19 
REMARK    2  A    between atoms: N_2  and  C_6 
REMARK    3  A    between atoms: N_2  and  C_10 
REMARK    4  A    between atoms: N_2  and  C_11 
REMARK    5  A    between atoms: C_6  and  C_7 
ROOT
HETATM    1  N   UNK N   1      29.271  17.214   5.151  0.00  0.00    -0.340 N 
ENDROOT
BRANCH   1   2
HETATM    2  C   UNK N   1      28.978  16.302   6.258  0.00  0.00     0.205 C 
BRANCH   2   3
HETATM    3  C   UNK N   1      28.896  16.959   7.610  0.00  0.00     0.091 A 
HETATM    4  N   UNK N   1      27.712  17.470   8.135  0.00  0.00    -0.377 N 
HETATM    5  C   UNK N   1      28.007  18.133   9.377  0.00  0.00     0.140 A 
HETATM    6  H   UNK N   1      26.822  17.391   7.724  0.00  0.00     0.160 HD
HETATM    7  C   UNK N   1      29.539  17.946   9.518  0.00  0.00     0.140 A 
HETATM    8  N   UNK N   1      29.910  17.216   8.329  0.00  0.00    -0.377 N 
ATOM      9  HN  UNK N   1      30.865  16.943   8.096  1.00  0.00     0.160 HD
ENDBRANCH   2   3
ENDBRANCH   1   2
BRANCH   1  10
HETATM   10  C   UNK N   1      28.193  17.992   4.571  0.00  0.00     0.035 A 
HETATM   11  C   UNK N   1      27.075  17.385   3.964  0.00  0.00     0.030 A 
HETATM   12  C   UNK N   1      26.035  18.149   3.431  0.00  0.00     0.009 A 
HETATM   13  C   UNK N   1      26.091  19.540   3.490  0.00  0.00    -0.062 A 
HETATM   14  C   UNK N   1      27.187  20.166   4.085  0.00  0.00     0.009 A 
HETATM   15  C   UNK N   1      24.985  20.355   2.925  0.00  0.00     0.048 C 
HETATM   16  C   UNK N   1      28.222  19.398   4.625  0.00  0.00     0.030 A 
ENDBRANCH   1  10
BRANCH   1  17
HETATM   17  C   UNK N   1      30.607  17.165   4.593  0.00  0.00     0.037 A 
HETATM   18  C   UNK N   1      31.722  17.477   5.399  0.00  0.00     0.066 A 
HETATM   19  C   UNK N   1      33.024  17.399   4.893  0.00  0.00     0.067 A 
HETATM   20  C   UNK N   1      33.238  17.005   3.572  0.00  0.00     0.036 A 
HETATM   21  C   UNK N   1      32.151  16.693   2.755  0.00  0.00     0.005 A 
HETATM   22  C   UNK N   1      30.853  16.773   3.262  0.00  0.00     0.030 A 
BRANCH  19  23
HETATM   23  O   UNK N   1      34.069  17.700   5.678  0.00  0.00    -0.361 OA
HETATM   24  H   UNK N   1      34.267  17.186   6.436  0.00  0.00     0.217 HD
ENDBRANCH  19  23
ENDBRANCH   1  17
TORSDOF 5
ENDMDL
MODEL 4
REMARK VINA RESULT:      -6.3     15.240     17.479
REMARK  5 active torsions:
REMARK  status: ('A' for Active; 'I' for Inactive)
REMARK    1  A    between atoms: O_1  and  C_19 
REMARK    2  A    between atoms: N_2  and  C_6 
REMARK    3  A    between atoms: N_2  and  C_10 
REMARK    4  A    between atoms: N_2  and  C_11 
REMARK    5  A    between atoms: C_6  and  C_7 
ROOT
HETATM    1  N   UNK N   1      25.940  25.615  -5.827  0.00  0.00    -0.340 N 
ENDROOT
BRANCH   1   2
HETATM    2  C   UNK N   1      25.112  26.718  -5.338  0.00  0.00     0.205 C 
BRANCH   2   3
HETATM    3  C   UNK N   1      25.885  27.898  -4.810  0.00  0.00     0.091 A 
HETATM    4  N   UNK N   1      25.659  28.453  -3.554  0.00  0.00    -0.377 N 
HETATM    5  C   UNK N   1      26.473  29.631  -3.416  0.00  0.00     0.140 A 
HETATM    6  H   UNK N   1      25.043  28.099  -2.873  0.00  0.00     0.160 HD
HETATM    7  C   UNK N   1      27.218  29.701  -4.773  0.00  0.00     0.140 A 
HETATM    8  N   UNK N   1      26.714  28.562  -5.505  0.00  0.00    -0.377 N 
ATOM      9  HN  UNK N   1      26.990  28.322  -6.458  1.00  0.00     0.160 HD
ENDBRANCH   2   3
ENDBRANCH   1   2
BRANCH   1  10
HETATM   10  C   UNK N   1      26.913  25.012  -4.936  0.00  0.00     0.035 A 
HETATM   11  C   UNK N   1      26.541  24.415  -3.715  0.00  0.00     0.030 A 
HETATM   12  C   UNK N   1      27.488  23.819  -2.880  0.00  0.00     0.009 A 
HETATM   13  C   UNK N   1      28.833  23.809  -3.248  0.00  0.00    -0.062 A 
HETATM   14  C   UNK N   1      29.227  24.393  -4.451  0.00  0.00     0.009 A 
HETATM   15  C   UNK N   1      29.842  23.174  -2.363  0.00  0.00     0.048 C 
HETATM   16  C   UNK N   1      28.275  24.982  -5.288  0.00  0.00     0.030 A 
ENDBRANCH   1  10
BRANCH   1  17
HETATM   17  C   UNK N   1      25.844  25.294  -7.237  0.00  0.00     0.037 A 
HETATM   18  C   UNK N   1      25.628  23.961  -7.645  0.00  0.00     0.066 A 
HETATM   19  C   UNK N   1      25.494  23.633  -8.998  0.00  0.00     0.067 A 
HETATM   20  C   UNK N   1      25.569  24.631  -9.971  0.00  0.00     0.036 A 
HETATM   21  C   UNK N   1      25.784  25.956  -9.591  0.00  0.00     0.005 A 
HETATM   22  C   UNK N   1      25.919  26.281  -8.240  0.00  0.00     0.030 A 
BRANCH  19  23
HETATM   23  O   UNK N   1      25.288  22.359  -9.364  0.00  0.00    -0.361 OA
HETATM   24  H   UNK N   1      24.739  22.149 -10.093  0.00  0.00     0.217 HD
ENDBRANCH  19  23
ENDBRANCH   1  17
TORSDOF 5
ENDMDL
MODEL 5
REMARK VINA RESULT:      -6.3      1.343      1.783
REMARK  5 active torsions:
REMARK  status: ('A' for Active; 'I' for Inactive)
REMARK    1  A    between atoms: O_1  and  C_19 
REMARK    2  A    between atoms: N_2  and  C_6 
REMARK    3  A    between atoms: N_2  and  C_10 
REMARK    4  A    between atoms: N_2  and  C_11 
REMARK    5  A    between atoms: C_6  and  C_7 
ROOT
HETATM    1  N   UNK N   1      32.585  17.067   6.921  0.00  0.00    -0.340 N 
ENDROOT
BRANCH   1   2
HETATM    2  C   UNK N   1      33.731  17.713   7.564  0.00  0.00     0.205 C 
BRANCH   2   3
HETATM    3  C   UNK N   1      34.394  16.892   8.638  0.00  0.00     0.091 A 
HETATM    4  N   UNK N   1      34.561  17.343   9.943  0.00  0.00    -0.377 N 
HETATM    5  C   UNK N   1      35.335  16.373  10.672  0.00  0.00     0.140 A 
HETATM    6  H   UNK N   1      34.209  18.186  10.309  0.00  0.00     0.160 HD
HETATM    7  C   UNK N   1      35.609  15.277   9.611  0.00  0.00     0.140 A 
HETATM    8  N   UNK N   1      34.967  15.780   8.419  0.00  0.00    -0.377 N 
ATOM      9  HN  UNK N   1      34.973  15.303   7.517  1.00  0.00     0.160 HD
ENDBRANCH   2   3
ENDBRANCH   1   2
BRANCH   1  10
HETATM   10  C   UNK N   1      32.799  16.275   5.725  0.00  0.00     0.035 A 
HETATM   11  C   UNK N   1      33.075  16.867   4.476  0.00  0.00     0.030 A 
HETATM   12  C   UNK N   1      33.302  16.089   3.339  0.00  0.00     0.009 A 
HETATM   13  C   UNK N   1      33.254  14.698   3.425  0.00  0.00    -0.062 A 
HETATM   14  C   UNK N   1      32.982  14.088   4.649  0.00  0.00     0.009 A 
HETATM   15  C   UNK N   1      33.495  13.869   2.217  0.00  0.00     0.048 C 
HETATM   16  C   UNK N   1      32.764  14.870   5.787  0.00  0.00     0.030 A 
ENDBRANCH   1  10
BRANCH   1  17
HETATM   17  C   UNK N   1      31.270  17.393   7.435  0.00  0.00     0.037 A 
HETATM   18  C   UNK N   1      31.134  17.965   8.718  0.00  0.00     0.066 A 
HETATM   19  C   UNK N   1      29.879  18.324   9.219  0.00  0.00     0.067 A 
HETATM   20  C   UNK N   1      28.734  18.122   8.448  0.00  0.00     0.036 A 
HETATM   21  C   UNK N   1      28.843  17.557   7.178  0.00  0.00     0.005 A 
HETATM   22  C   UNK N   1      30.097  17.198   6.679  0.00  0.00     0.030 A 
BRANCH  19  23
HETATM   23  O   UNK N   1      29.774  18.866  10.442  0.00  0.00    -0.361 OA
HETATM   24  H   UNK N   1      30.128  18.434  11.193  0.00  0.00     0.217 HD
ENDBRANCH  19  23
ENDBRANCH   1  17
TORSDOF 5
ENDMDL
MODEL 6
REMARK VINA RESULT:      -6.3      2.053      5.097
REMARK  5 active torsions:
REMARK  status: ('A' for Active; 'I' for Inactive)
REMARK    1  A    between atoms: O_1  and  C_19 
REMARK    2  A    between atoms: N_2  and  C_6 
REMARK    3  A    between atoms: N_2  and  C_10 
REMARK    4  A    between atoms: N_2  and  C_11 
REMARK    5  A    between atoms: C_6  and  C_7 
ROOT
HETATM    1  N   UNK N   1      33.128  17.327   6.769  0.00  0.00    -0.340 N 
ENDROOT
BRANCH   1   2
HETATM    2  C   UNK N   1      34.348  17.591   7.533  0.00  0.00     0.205 C 
BRANCH   2   3
HETATM    3  C   UNK N   1      34.536  16.709   8.739  0.00  0.00     0.091 A 
HETATM    4  N   UNK N   1      34.778  17.210  10.015  0.00  0.00    -0.377 N 
HETATM    5  C   UNK N   1      35.031  16.107  10.904  0.00  0.00     0.140 A 
HETATM    6  H   UNK N   1      34.776  18.161  10.268  0.00  0.00     0.160 HD
HETATM    7  C   UNK N   1      34.908  14.874   9.974  0.00  0.00     0.140 A 
HETATM    8  N   UNK N   1      34.617  15.444   8.679  0.00  0.00    -0.377 N 
ATOM      9  HN  UNK N   1      34.493  14.899   7.825  1.00  0.00     0.160 HD
ENDBRANCH   2   3
ENDBRANCH   1   2
BRANCH   1  10
HETATM   10  C   UNK N   1      31.840  17.475   7.419  0.00  0.00     0.035 A 
HETATM   11  C   UNK N   1      31.650  18.339   8.516  0.00  0.00     0.030 A 
HETATM   12  C   UNK N   1      30.398  18.487   9.115  0.00  0.00     0.009 A 
HETATM   13  C   UNK N   1      29.305  17.770   8.632  0.00  0.00    -0.062 A 
HETATM   14  C   UNK N   1      29.466  16.907   7.548  0.00  0.00     0.009 A 
HETATM   15  C   UNK N   1      27.972  17.927   9.267  0.00  0.00     0.048 C 
HETATM   16  C   UNK N   1      30.719  16.768   6.945  0.00  0.00     0.030 A 
ENDBRANCH   1  10
BRANCH   1  17
HETATM   17  C   UNK N   1      33.290  16.775   5.439  0.00  0.00     0.037 A 
HETATM   18  C   UNK N   1      33.922  15.526   5.264  0.00  0.00     0.066 A 
HETATM   19  C   UNK N   1      34.055  14.955   3.994  0.00  0.00     0.067 A 
HETATM   20  C   UNK N   1      33.556  15.619   2.873  0.00  0.00     0.036 A 
HETATM   21  C   UNK N   1      32.928  16.856   3.021  0.00  0.00     0.005 A 
HETATM   22  C   UNK N   1      32.798  17.425   4.289  0.00  0.00     0.030 A 
BRANCH  19  23
HETATM   23  O   UNK N   1      34.659  13.766   3.852  0.00  0.00    -0.361 OA
HETATM   24  H   UNK N   1      34.911  13.260   4.599  0.00  0.00     0.217 HD
ENDBRANCH  19  23
ENDBRANCH   1  17
TORSDOF 5
ENDMDL
MODEL 7
REMARK VINA RESULT:      -6.2      2.612      5.709
REMARK  5 active torsions:
REMARK  status: ('A' for Active; 'I' for Inactive)
REMARK    1  A    between atoms: O_1  and  C_19 
REMARK    2  A    between atoms: N_2  and  C_6 
REMARK    3  A    between atoms: N_2  and  C_10 
REMARK    4  A    between atoms: N_2  and  C_11 
REMARK    5  A    between atoms: C_6  and  C_7 
ROOT
HETATM    1  N   UNK N   1      31.186  16.323   6.934  0.00  0.00    -0.340 N 
ENDROOT
BRANCH   1   2
HETATM    2  C   UNK N   1      31.180  15.156   6.051  0.00  0.00     0.205 C 
BRANCH   2   3
HETATM    3  C   UNK N   1      32.281  15.139   5.024  0.00  0.00     0.091 A 
HETATM    4  N   UNK N   1      32.293  15.975   3.911  0.00  0.00    -0.377 N 
HETATM    5  C   UNK N   1      33.410  15.619   3.077  0.00  0.00     0.140 A 
HETATM    6  H   UNK N   1      31.645  16.692   3.725  0.00  0.00     0.160 HD
HETATM    7  C   UNK N   1      34.062  14.446   3.852  0.00  0.00     0.140 A 
HETATM    8  N   UNK N   1      33.219  14.285   5.013  0.00  0.00    -0.377 N 
ATOM      9  HN  UNK N   1      33.360  13.575   5.733  1.00  0.00     0.160 HD
ENDBRANCH   2   3
ENDBRANCH   1   2
BRANCH   1  10
HETATM   10  C   UNK N   1      30.105  17.286   6.842  0.00  0.00     0.035 A 
HETATM   11  C   UNK N   1      29.572  17.923   7.980  0.00  0.00     0.030 A 
HETATM   12  C   UNK N   1      28.547  18.865   7.871  0.00  0.00     0.009 A 
HETATM   13  C   UNK N   1      28.029  19.189   6.618  0.00  0.00    -0.062 A 
HETATM   14  C   UNK N   1      28.539  18.572   5.476  0.00  0.00     0.009 A 
HETATM   15  C   UNK N   1      26.940  20.192   6.499  0.00  0.00     0.048 C 
HETATM   16  C   UNK N   1      29.571  17.636   5.588  0.00  0.00     0.030 A 
ENDBRANCH   1  10
BRANCH   1  17
HETATM   17  C   UNK N   1      32.368  16.529   7.747  0.00  0.00     0.037 A 
HETATM   18  C   UNK N   1      33.124  17.712   7.608  0.00  0.00     0.066 A 
HETATM   19  C   UNK N   1      34.246  17.950   8.409  0.00  0.00     0.067 A 
HETATM   20  C   UNK N   1      34.634  17.012   9.366  0.00  0.00     0.036 A 
HETATM   21  C   UNK N   1      33.904  15.834   9.520  0.00  0.00     0.005 A 
HETATM   22  C   UNK N   1      32.785  15.598   8.719  0.00  0.00     0.030 A 
BRANCH  19  23
HETATM   23  O   UNK N   1      34.950  19.083   8.260  0.00  0.00    -0.361 OA
HETATM   24  H   UNK N   1      34.534  19.876   7.982  0.00  0.00     0.217 HD
ENDBRANCH  19  23
ENDBRANCH   1  17
TORSDOF 5
ENDMDL
MODEL 8
REMARK VINA RESULT:      -6.2      4.137      6.712
REMARK  5 active torsions:
REMARK  status: ('A' for Active; 'I' for Inactive)
REMARK    1  A    between atoms: O_1  and  C_19 
REMARK    2  A    between atoms: N_2  and  C_6 
REMARK    3  A    between atoms: N_2  and  C_10 
REMARK    4  A    between atoms: N_2  and  C_11 
REMARK    5  A    between atoms: C_6  and  C_7 
ROOT
HETATM    1  N   UNK N   1      28.842  17.631   4.878  0.00  0.00    -0.340 N 
ENDROOT
BRANCH   1   2
HETATM    2  C   UNK N   1      29.833  17.071   3.958  0.00  0.00     0.205 C 
BRANCH   2   3
HETATM    3  C   UNK N   1      29.534  15.673   3.487  0.00  0.00     0.091 A 
HETATM    4  N   UNK N   1      28.788  15.400   2.345  0.00  0.00    -0.377 N 
HETATM    5  C   UNK N   1      28.587  13.978   2.252  0.00  0.00     0.140 A 
HETATM    6  H   UNK N   1      28.452  16.068   1.706  0.00  0.00     0.160 HD
HETATM    7  C   UNK N   1      29.321  13.440   3.507  0.00  0.00     0.140 A 
HETATM    8  N   UNK N   1      29.826  14.631   4.151  0.00  0.00    -0.377 N 
ATOM      9  HN  UNK N   1      30.349  14.633   5.027  1.00  0.00     0.160 HD
ENDBRANCH   2   3
ENDBRANCH   1   2
BRANCH   1  10
HETATM   10  C   UNK N   1      27.700  18.344   4.339  0.00  0.00     0.035 A 
HETATM   11  C   UNK N   1      26.501  17.686   3.997  0.00  0.00     0.030 A 
HETATM   12  C   UNK N   1      25.402  18.390   3.501  0.00  0.00     0.009 A 
HETATM   13  C   UNK N   1      25.479  19.771   3.332  0.00  0.00    -0.062 A 
HETATM   14  C   UNK N   1      26.654  20.447   3.661  0.00  0.00     0.009 A 
HETATM   15  C   UNK N   1      24.311  20.523   2.805  0.00  0.00     0.048 C 
HETATM   16  C   UNK N   1      27.749  19.739   4.166  0.00  0.00     0.030 A 
ENDBRANCH   1  10
BRANCH   1  17
HETATM   17  C   UNK N   1      29.150  17.576   6.293  0.00  0.00     0.037 A 
HETATM   18  C   UNK N   1      28.156  17.881   7.245  0.00  0.00     0.066 A 
HETATM   19  C   UNK N   1      28.419  17.796   8.616  0.00  0.00     0.067 A 
HETATM   20  C   UNK N   1      29.680  17.401   9.063  0.00  0.00     0.036 A 
HETATM   21  C   UNK N   1      30.680  17.096   8.140  0.00  0.00     0.005 A 
HETATM   22  C   UNK N   1      30.416  17.183   6.772  0.00  0.00     0.030 A 
BRANCH  19  23
HETATM   23  O   UNK N   1      27.458  18.091   9.505  0.00  0.00    -0.361 OA
HETATM   24  H   UNK N   1      27.020  18.919   9.485  0.00  0.00     0.217 HD
ENDBRANCH  19  23
ENDBRANCH   1  17
TORSDOF 5
ENDMDL
MODEL 9
REMARK VINA RESULT:      -6.2     14.079     16.433
REMARK  5 active torsions:
REMARK  status: ('A' for Active; 'I' for Inactive)
REMARK    1  A    between atoms: O_1  and  C_19 
REMARK    2  A    between atoms: N_2  and  C_6 
REMARK    3  A    between atoms: N_2  and  C_10 
REMARK    4  A    between atoms: N_2  and  C_11 
REMARK    5  A    between atoms: C_6  and  C_7 
ROOT
HETATM    1  N   UNK N   1      27.059  24.772  -4.851  0.00  0.00    -0.340 N 
ENDROOT
BRANCH   1   2
HETATM    2  C   UNK N   1      25.770  24.105  -5.039  0.00  0.00     0.205 C 
BRANCH   2   3
HETATM    3  C   UNK N   1      25.555  23.527  -6.413  0.00  0.00     0.091 A 
HETATM    4  N   UNK N   1      25.576  24.297  -7.572  0.00  0.00    -0.377 N 
HETATM    5  C   UNK N   1      25.216  23.462  -8.687  0.00  0.00     0.140 A 
HETATM    6  H   UNK N   1      25.799  25.254  -7.621  0.00  0.00     0.160 HD
HETATM    7  C   UNK N   1      24.975  22.081  -8.026  0.00  0.00     0.140 A 
HETATM    8  N   UNK N   1      25.215  22.322  -6.623  0.00  0.00    -0.377 N 
ATOM      9  HN  UNK N   1      25.123  21.614  -5.894  1.00  0.00     0.160 HD
ENDBRANCH   2   3
ENDBRANCH   1   2
BRANCH   1  10
HETATM   10  C   UNK N   1      28.189  24.005  -4.363  0.00  0.00     0.035 A 
HETATM   11  C   UNK N   1      28.412  23.795  -2.988  0.00  0.00     0.030 A 
HETATM   12  C   UNK N   1      29.492  23.034  -2.536  0.00  0.00     0.009 A 
HETATM   13  C   UNK N   1      30.377  22.467  -3.452  0.00  0.00    -0.062 A 
HETATM   14  C   UNK N   1      30.178  22.661  -4.819  0.00  0.00     0.009 A 
HETATM   15  C   UNK N   1      31.525  21.656  -2.974  0.00  0.00     0.048 C 
HETATM   16  C   UNK N   1      29.092  23.416  -5.267  0.00  0.00     0.030 A 
ENDBRANCH   1  10
BRANCH   1  17
HETATM   17  C   UNK N   1      27.086  26.212  -5.016  0.00  0.00     0.037 A 
HETATM   18  C   UNK N   1      26.446  27.043  -4.073  0.00  0.00     0.066 A 
HETATM   19  C   UNK N   1      26.491  28.436  -4.190  0.00  0.00     0.067 A 
HETATM   20  C   UNK N   1      27.180  29.027  -5.250  0.00  0.00     0.036 A 
HETATM   21  C   UNK N   1      27.819  28.225  -6.195  0.00  0.00     0.005 A 
HETATM   22  C   UNK N   1      27.771  26.835  -6.077  0.00  0.00     0.030 A 
BRANCH  19  23
HETATM   23  O   UNK N   1      25.876  29.207  -3.281  0.00  0.00    -0.361 OA
HETATM   24  H   UNK N   1      24.990  29.040  -3.027  0.00  0.00     0.217 HD
ENDBRANCH  19  23
ENDBRANCH   1  17
TORSDOF 5
ENDMDL
