REMARK  2 active torsions:
REMARK  status: ('A' for Active; 'I' for Inactive)
REMARK    1  A    between atoms: O_4  and  C_24 
REMARK    2  A    between atoms: O_5  and  C_25 
ROOT
HETATM    1  O   UNK N   1       4.585  -0.380  -1.576  0.00  0.00    -0.291 OA
HETATM    2  O   UNK N   1       4.584   2.818  -0.185  0.00  0.00    -0.309 OA
HETATM    3  O   UNK N   1       4.319  -2.259  -2.808  0.00  0.00    -0.259 OA
HETATM    4  C   UNK N   1       4.928  -0.017  -0.269  0.00  0.00     0.159 A 
HETATM    5  C   UNK N   1       5.309  -1.374   0.333  0.00  0.00     0.003 A 
HETATM    6  C   UNK N   1       3.682   0.637   0.289  0.00  0.00     0.020 A 
HETATM    7  C   UNK N   1       6.096   0.955  -0.314  0.00  0.00     0.020 A 
HETATM    8  C   UNK N   1       5.134  -2.354  -0.601  0.00  0.00     0.049 A 
HETATM    9  C   UNK N   1       3.543   2.040   0.198  0.00  0.00     0.088 A 
HETATM   10  C   UNK N   1       5.845   2.343  -0.306  0.00  0.00     0.088 A 
HETATM   11  C   UNK N   1       4.649  -1.711  -1.773  0.00  0.00     0.295 A 
HETATM   12  C   UNK N   1       5.813  -1.683   1.600  0.00  0.00     0.012 A 
HETATM   13  C   UNK N   1       2.582  -0.137   0.690  0.00  0.00     0.016 A 
HETATM   14  C   UNK N   1       7.424   0.499  -0.382  0.00  0.00     0.016 A 
HETATM   15  C   UNK N   1       5.428  -3.694  -0.357  0.00  0.00     0.018 A 
HETATM   16  C   UNK N   1       2.321   2.642   0.508  0.00  0.00     0.074 A 
HETATM   17  C   UNK N   1       6.909   3.247  -0.380  0.00  0.00     0.074 A 
HETATM   18  C   UNK N   1       6.135  -3.027   1.880  0.00  0.00     0.001 A 
HETATM   19  C   UNK N   1       1.371   0.477   1.021  0.00  0.00     0.037 A 
HETATM   20  C   UNK N   1       8.482   1.410  -0.429  0.00  0.00     0.037 A 
HETATM   21  C   UNK N   1       5.941  -4.028   0.905  0.00  0.00     0.001 A 
HETATM   22  C   UNK N   1       1.236   1.864   0.912  0.00  0.00     0.068 A 
HETATM   23  C   UNK N   1       8.224   2.783  -0.435  0.00  0.00     0.068 A 
ENDROOT
BRANCH  22  24
HETATM   24  O   UNK N   1       0.060   2.448   1.188  0.00  0.00    -0.361 OA
HETATM   25  H   UNK N   1       0.002   3.363   1.380  0.00  0.00     0.217 HD
ENDBRANCH  22  24
BRANCH  23  26
HETATM   26  O   UNK N   1       9.242   3.658  -0.485  0.00  0.00    -0.361 OA
HETATM   27  H   UNK N   1      10.125   3.348  -0.520  0.00  0.00     0.217 HD
ENDBRANCH  23  26
TORSDOF 2
