MODEL 1
REMARK VINA RESULT:      -9.2      0.000      0.000
REMARK  2 active torsions:
REMARK  status: ('A' for Active; 'I' for Inactive)
REMARK    1  A    between atoms: O_4  and  C_24 
REMARK    2  A    between atoms: O_5  and  C_25 
ROOT
HETATM    1  O   UNK N   1      33.501  18.302   7.555  0.00  0.00    -0.291 OA
HETATM    2  O   UNK N   1      30.709  17.392   5.673  0.00  0.00    -0.309 OA
HETATM    3  O   UNK N   1      35.386  19.195   8.429  0.00  0.00    -0.259 OA
HETATM    4  C   UNK N   1      32.736  17.135   7.670  0.00  0.00     0.159 A 
HETATM    5  C   UNK N   1      33.442  16.423   8.828  0.00  0.00     0.003 A 
HETATM    6  C   UNK N   1      32.840  16.472   6.313  0.00  0.00     0.020 A 
HETATM    7  C   UNK N   1      31.301  17.513   7.998  0.00  0.00     0.020 A 
HETATM    8  C   UNK N   1      34.509  17.167   9.241  0.00  0.00     0.049 A 
HETATM    9  C   UNK N   1      31.846  16.733   5.343  0.00  0.00     0.088 A 
HETATM   10  C   UNK N   1      30.364  17.657   6.954  0.00  0.00     0.088 A 
HETATM   11  C   UNK N   1      34.543  18.318   8.407  0.00  0.00     0.295 A 
HETATM   12  C   UNK N   1      33.116  15.229   9.478  0.00  0.00     0.012 A 
HETATM   13  C   UNK N   1      34.004  15.786   5.935  0.00  0.00     0.016 A 
HETATM   14  C   UNK N   1      30.890  17.740   9.323  0.00  0.00     0.016 A 
HETATM   15  C   UNK N   1      35.329  16.791  10.303  0.00  0.00     0.018 A 
HETATM   16  C   UNK N   1      32.029  16.308   4.025  0.00  0.00     0.074 A 
HETATM   17  C   UNK N   1      29.049  18.036   7.240  0.00  0.00     0.074 A 
HETATM   18  C   UNK N   1      33.915  14.822  10.567  0.00  0.00     0.001 A 
HETATM   19  C   UNK N   1      34.167  15.344   4.619  0.00  0.00     0.037 A 
HETATM   20  C   UNK N   1      29.568  18.093   9.602  0.00  0.00     0.037 A 
HETATM   21  C   UNK N   1      35.018  15.600  10.975  0.00  0.00     0.001 A 
HETATM   22  C   UNK N   1      33.188  15.622   3.661  0.00  0.00     0.068 A 
HETATM   23  C   UNK N   1      28.650  18.247   8.561  0.00  0.00     0.068 A 
ENDROOT
BRANCH  22  24
HETATM   24  O   UNK N   1      33.365  15.235   2.388  0.00  0.00    -0.361 OA
HETATM   25  H   UNK N   1      33.066  14.401   2.085  0.00  0.00     0.217 HD
ENDBRANCH  22  24
BRANCH  23  26
HETATM   26  O   UNK N   1      27.379  18.590   8.830  0.00  0.00    -0.361 OA
HETATM   27  H   UNK N   1      26.679  18.009   8.608  0.00  0.00     0.217 HD
ENDBRANCH  23  26
TORSDOF 2
ENDMDL
MODEL 2
REMARK VINA RESULT:      -8.0     13.933     16.866
REMARK  2 active torsions:
REMARK  status: ('A' for Active; 'I' for Inactive)
REMARK    1  A    between atoms: O_4  and  C_24 
REMARK    2  A    between atoms: O_5  and  C_25 
ROOT
HETATM    1  O   UNK N   1      25.916  23.090  -5.787  0.00  0.00    -0.291 OA
HETATM    2  O   UNK N   1      27.774  24.773  -3.363  0.00  0.00    -0.309 OA
HETATM    3  O   UNK N   1      24.615  21.702  -7.012  0.00  0.00    -0.259 OA
HETATM    4  C   UNK N   1      26.910  24.054  -5.989  0.00  0.00     0.159 A 
HETATM    5  C   UNK N   1      26.922  24.162  -7.518  0.00  0.00     0.003 A 
HETATM    6  C   UNK N   1      28.151  23.468  -5.350  0.00  0.00     0.020 A 
HETATM    7  C   UNK N   1      26.491  25.348  -5.311  0.00  0.00     0.020 A 
HETATM    8  C   UNK N   1      26.018  23.285  -8.045  0.00  0.00     0.049 A 
HETATM    9  C   UNK N   1      28.452  23.794  -4.009  0.00  0.00     0.088 A 
HETATM   10  C   UNK N   1      26.929  25.617  -3.997  0.00  0.00     0.088 A 
HETATM   11  C   UNK N   1      25.429  22.604  -6.945  0.00  0.00     0.295 A 
HETATM   12  C   UNK N   1      27.653  25.014  -8.351  0.00  0.00     0.012 A 
HETATM   13  C   UNK N   1      28.875  22.448  -5.988  0.00  0.00     0.016 A 
HETATM   14  C   UNK N   1      25.660  26.277  -5.960  0.00  0.00     0.016 A 
HETATM   15  C   UNK N   1      25.779  23.175  -9.414  0.00  0.00     0.018 A 
HETATM   16  C   UNK N   1      29.463  23.105  -3.333  0.00  0.00     0.074 A 
HETATM   17  C   UNK N   1      26.524  26.789  -3.351  0.00  0.00     0.074 A 
HETATM   18  C   UNK N   1      27.429  24.941  -9.741  0.00  0.00     0.001 A 
HETATM   19  C   UNK N   1      29.900  21.782  -5.311  0.00  0.00     0.037 A 
HETATM   20  C   UNK N   1      25.282  27.458  -5.316  0.00  0.00     0.037 A 
HETATM   21  C   UNK N   1      26.497  24.024 -10.269  0.00  0.00     0.001 A 
HETATM   22  C   UNK N   1      30.181  22.099  -3.979  0.00  0.00     0.068 A 
HETATM   23  C   UNK N   1      25.708  27.710  -4.009  0.00  0.00     0.068 A 
ENDROOT
BRANCH  22  24
HETATM   24  O   UNK N   1      31.136  21.428  -3.316  0.00  0.00    -0.361 OA
HETATM   25  H   UNK N   1      31.462  21.730  -2.491  0.00  0.00     0.217 HD
ENDBRANCH  22  24
BRANCH  23  26
HETATM   26  O   UNK N   1      25.341  28.843  -3.389  0.00  0.00    -0.361 OA
HETATM   27  H   UNK N   1      25.326  28.882  -2.454  0.00  0.00     0.217 HD
ENDBRANCH  23  26
TORSDOF 2
ENDMDL
MODEL 3
REMARK VINA RESULT:      -7.9      2.843      6.259
REMARK  2 active torsions:
REMARK  status: ('A' for Active; 'I' for Inactive)
REMARK    1  A    between atoms: O_4  and  C_24 
REMARK    2  A    between atoms: O_5  and  C_25 
ROOT
HETATM    1  O   UNK N   1      28.224  16.066   5.192  0.00  0.00    -0.291 OA
HETATM    2  O   UNK N   1      31.329  16.791   6.605  0.00  0.00    -0.309 OA
HETATM    3  O   UNK N   1      26.358  15.153   4.295  0.00  0.00    -0.259 OA
HETATM    4  C   UNK N   1      28.870  17.306   5.244  0.00  0.00     0.159 A 
HETATM    5  C   UNK N   1      27.846  18.211   4.550  0.00  0.00     0.003 A 
HETATM    6  C   UNK N   1      30.177  17.090   4.512  0.00  0.00     0.020 A 
HETATM    7  C   UNK N   1      29.100  17.685   6.698  0.00  0.00     0.020 A 
HETATM    8  C   UNK N   1      26.776  17.466   4.148  0.00  0.00     0.049 A 
HETATM    9  C   UNK N   1      31.328  16.736   5.251  0.00  0.00     0.088 A 
HETATM   10  C   UNK N   1      30.329  17.365   7.313  0.00  0.00     0.088 A 
HETATM   11  C   UNK N   1      27.052  16.124   4.531  0.00  0.00     0.295 A 
HETATM   12  C   UNK N   1      27.865  19.594   4.345  0.00  0.00     0.012 A 
HETATM   13  C   UNK N   1      30.214  17.021   3.111  0.00  0.00     0.016 A 
HETATM   14  C   UNK N   1      28.106  18.334   7.450  0.00  0.00     0.016 A 
HETATM   15  C   UNK N   1      25.665  18.017   3.513  0.00  0.00     0.018 A 
HETATM   16  C   UNK N   1      32.486  16.325   4.586  0.00  0.00     0.074 A 
HETATM   17  C   UNK N   1      30.541  17.679   8.659  0.00  0.00     0.074 A 
HETATM   18  C   UNK N   1      26.753  20.191   3.717  0.00  0.00     0.001 A 
HETATM   19  C   UNK N   1      31.385  16.632   2.454  0.00  0.00     0.037 A 
HETATM   20  C   UNK N   1      28.337  18.668   8.787  0.00  0.00     0.037 A 
HETATM   21  C   UNK N   1      25.658  19.404   3.301  0.00  0.00     0.001 A 
HETATM   22  C   UNK N   1      32.514  16.267   3.193  0.00  0.00     0.068 A 
HETATM   23  C   UNK N   1      29.551  18.335   9.392  0.00  0.00     0.068 A 
ENDROOT
BRANCH  22  24
HETATM   24  O   UNK N   1      33.623  15.852   2.562  0.00  0.00    -0.361 OA
HETATM   25  H   UNK N   1      33.586  15.215   1.876  0.00  0.00     0.217 HD
ENDBRANCH  22  24
BRANCH  23  26
HETATM   26  O   UNK N   1      29.770  18.652  10.679  0.00  0.00    -0.361 OA
HETATM   27  H   UNK N   1      30.513  19.171  10.914  0.00  0.00     0.217 HD
ENDBRANCH  23  26
TORSDOF 2
ENDMDL
MODEL 4
REMARK VINA RESULT:      -7.8     13.564     16.208
REMARK  2 active torsions:
REMARK  status: ('A' for Active; 'I' for Inactive)
REMARK    1  A    between atoms: O_4  and  C_24 
REMARK    2  A    between atoms: O_5  and  C_25 
ROOT
HETATM    1  O   UNK N   1      27.124  24.108  -3.493  0.00  0.00    -0.291 OA
HETATM    2  O   UNK N   1      25.459  25.811  -6.041  0.00  0.00    -0.309 OA
HETATM    3  O   UNK N   1      27.812  23.083  -1.597  0.00  0.00    -0.259 OA
HETATM    4  C   UNK N   1      27.679  24.675  -4.645  0.00  0.00     0.159 A 
HETATM    5  C   UNK N   1      29.160  24.322  -4.474  0.00  0.00     0.003 A 
HETATM    6  C   UNK N   1      27.327  26.145  -4.559  0.00  0.00     0.020 A 
HETATM    7  C   UNK N   1      27.056  24.024  -5.869  0.00  0.00     0.020 A 
HETATM    8  C   UNK N   1      29.338  23.653  -3.298  0.00  0.00     0.049 A 
HETATM    9  C   UNK N   1      26.153  26.609  -5.193  0.00  0.00     0.088 A 
HETATM   10  C   UNK N   1      25.937  24.625  -6.483  0.00  0.00     0.088 A 
HETATM   11  C   UNK N   1      28.056  23.563  -2.689  0.00  0.00     0.295 A 
HETATM   12  C   UNK N   1      30.240  24.547  -5.333  0.00  0.00     0.012 A 
HETATM   13  C   UNK N   1      28.020  27.000  -3.687  0.00  0.00     0.016 A 
HETATM   14  C   UNK N   1      27.560  22.821  -6.393  0.00  0.00     0.016 A 
HETATM   15  C   UNK N   1      30.577  23.172  -2.880  0.00  0.00     0.018 A 
HETATM   16  C   UNK N   1      25.695  27.907  -4.952  0.00  0.00     0.074 A 
HETATM   17  C   UNK N   1      25.336  24.019  -7.590  0.00  0.00     0.074 A 
HETATM   18  C   UNK N   1      31.508  24.063  -4.950  0.00  0.00     0.001 A 
HETATM   19  C   UNK N   1      27.567  28.305  -3.472  0.00  0.00     0.037 A 
HETATM   20  C   UNK N   1      26.969  22.236  -7.515  0.00  0.00     0.037 A 
HETATM   21  C   UNK N   1      31.675  23.380  -3.727  0.00  0.00     0.001 A 
HETATM   22  C   UNK N   1      26.395  28.751  -4.089  0.00  0.00     0.068 A 
HETATM   23  C   UNK N   1      25.853  22.831  -8.108  0.00  0.00     0.068 A 
ENDROOT
BRANCH  22  24
HETATM   24  O   UNK N   1      25.937  29.988  -3.847  0.00  0.00    -0.361 OA
HETATM   25  H   UNK N   1      25.124  30.287  -4.203  0.00  0.00     0.217 HD
ENDBRANCH  22  24
BRANCH  23  26
HETATM   26  O   UNK N   1      25.281  22.265  -9.184  0.00  0.00    -0.361 OA
HETATM   27  H   UNK N   1      25.658  22.387 -10.033  0.00  0.00     0.217 HD
ENDBRANCH  23  26
TORSDOF 2
ENDMDL
MODEL 5
REMARK VINA RESULT:      -7.7      9.679     12.328
REMARK  2 active torsions:
REMARK  status: ('A' for Active; 'I' for Inactive)
REMARK    1  A    between atoms: O_4  and  C_24 
REMARK    2  A    between atoms: O_5  and  C_25 
ROOT
HETATM    1  O   UNK N   1      34.191  11.858  15.982  0.00  0.00    -0.291 OA
HETATM    2  O   UNK N   1      35.489  13.692  18.649  0.00  0.00    -0.309 OA
HETATM    3  O   UNK N   1      32.936  10.785  14.435  0.00  0.00    -0.259 OA
HETATM    4  C   UNK N   1      35.497  11.830  16.482  0.00  0.00     0.159 A 
HETATM    5  C   UNK N   1      36.162  10.821  15.540  0.00  0.00     0.003 A 
HETATM    6  C   UNK N   1      35.348  11.401  17.926  0.00  0.00     0.020 A 
HETATM    7  C   UNK N   1      36.100  13.222  16.374  0.00  0.00     0.020 A 
HETATM    8  C   UNK N   1      35.240  10.350  14.650  0.00  0.00     0.049 A 
HETATM    9  C   UNK N   1      35.247  12.389  18.930  0.00  0.00     0.088 A 
HETATM   10  C   UNK N   1      36.025  14.099  17.475  0.00  0.00     0.088 A 
HETATM   11  C   UNK N   1      34.010  10.988  14.970  0.00  0.00     0.295 A 
HETATM   12  C   UNK N   1      37.494  10.404  15.468  0.00  0.00     0.012 A 
HETATM   13  C   UNK N   1      35.091  10.060  18.254  0.00  0.00     0.016 A 
HETATM   14  C   UNK N   1      36.717  13.660  15.189  0.00  0.00     0.016 A 
HETATM   15  C   UNK N   1      35.554   9.438  13.645  0.00  0.00     0.018 A 
HETATM   16  C   UNK N   1      34.897  12.028  20.234  0.00  0.00     0.074 A 
HETATM   17  C   UNK N   1      36.547  15.392  17.377  0.00  0.00     0.074 A 
HETATM   18  C   UNK N   1      37.854   9.491  14.455  0.00  0.00     0.001 A 
HETATM   19  C   UNK N   1      34.765   9.706  19.566  0.00  0.00     0.037 A 
HETATM   20  C   UNK N   1      37.259  14.945  15.109  0.00  0.00     0.037 A 
HETATM   21  C   UNK N   1      36.886   9.009  13.549  0.00  0.00     0.001 A 
HETATM   22  C   UNK N   1      34.650  10.692  20.551  0.00  0.00     0.068 A 
HETATM   23  C   UNK N   1      37.168  15.813  16.200  0.00  0.00     0.068 A 
ENDROOT
BRANCH  22  24
HETATM   24  O   UNK N   1      34.294  10.355  21.800  0.00  0.00    -0.361 OA
HETATM   25  H   UNK N   1      33.611   9.736  21.963  0.00  0.00     0.217 HD
ENDBRANCH  22  24
BRANCH  23  26
HETATM   26  O   UNK N   1      37.685  17.050  16.120  0.00  0.00    -0.361 OA
HETATM   27  H   UNK N   1      37.120  17.788  16.008  0.00  0.00     0.217 HD
ENDBRANCH  23  26
TORSDOF 2
ENDMDL
MODEL 6
REMARK VINA RESULT:      -7.7     13.176     15.929
REMARK  2 active torsions:
REMARK  status: ('A' for Active; 'I' for Inactive)
REMARK    1  A    between atoms: O_4  and  C_24 
REMARK    2  A    between atoms: O_5  and  C_25 
ROOT
HETATM    1  O   UNK N   1      29.516  25.451  -5.927  0.00  0.00    -0.291 OA
HETATM    2  O   UNK N   1      28.888  22.026  -6.126  0.00  0.00    -0.309 OA
HETATM    3  O   UNK N   1      30.336  27.559  -5.983  0.00  0.00    -0.259 OA
HETATM    4  C   UNK N   1      28.524  24.724  -5.260  0.00  0.00     0.159 A 
HETATM    5  C   UNK N   1      27.815  25.831  -4.472  0.00  0.00     0.003 A 
HETATM    6  C   UNK N   1      29.281  23.700  -4.441  0.00  0.00     0.020 A 
HETATM    7  C   UNK N   1      27.620  24.061  -6.286  0.00  0.00     0.020 A 
HETATM    8  C   UNK N   1      28.434  27.026  -4.703  0.00  0.00     0.049 A 
HETATM    9  C   UNK N   1      29.508  22.417  -4.987  0.00  0.00     0.088 A 
HETATM   10  C   UNK N   1      27.885  22.736  -6.692  0.00  0.00     0.088 A 
HETATM   11  C   UNK N   1      29.513  26.755  -5.588  0.00  0.00     0.295 A 
HETATM   12  C   UNK N   1      26.681  25.765  -3.656  0.00  0.00     0.012 A 
HETATM   13  C   UNK N   1      29.940  24.069  -3.259  0.00  0.00     0.016 A 
HETATM   14  C   UNK N   1      26.532  24.747  -6.854  0.00  0.00     0.016 A 
HETATM   15  C   UNK N   1      27.995  28.226  -4.148  0.00  0.00     0.018 A 
HETATM   16  C   UNK N   1      30.380  21.531  -4.348  0.00  0.00     0.074 A 
HETATM   17  C   UNK N   1      27.080  22.126  -7.659  0.00  0.00     0.074 A 
HETATM   18  C   UNK N   1      26.199  26.962  -3.086  0.00  0.00     0.001 A 
HETATM   19  C   UNK N   1      30.792  23.168  -2.615  0.00  0.00     0.037 A 
HETATM   20  C   UNK N   1      25.718  24.120  -7.800  0.00  0.00     0.037 A 
HETATM   21  C   UNK N   1      26.856  28.187  -3.330  0.00  0.00     0.001 A 
HETATM   22  C   UNK N   1      31.025  21.906  -3.170  0.00  0.00     0.068 A 
HETATM   23  C   UNK N   1      25.996  22.813  -8.208  0.00  0.00     0.068 A 
ENDROOT
BRANCH  22  24
HETATM   24  O   UNK N   1      31.877  21.057  -2.574  0.00  0.00    -0.361 OA
HETATM   25  H   UNK N   1      31.901  20.963  -1.643  0.00  0.00     0.217 HD
ENDBRANCH  22  24
BRANCH  23  26
HETATM   26  O   UNK N   1      25.215  22.213  -9.121  0.00  0.00    -0.361 OA
HETATM   27  H   UNK N   1      24.492  21.686  -8.846  0.00  0.00     0.217 HD
ENDBRANCH  23  26
TORSDOF 2
ENDMDL
MODEL 7
REMARK VINA RESULT:      -7.5     12.368     15.846
REMARK  2 active torsions:
REMARK  status: ('A' for Active; 'I' for Inactive)
REMARK    1  A    between atoms: O_4  and  C_24 
REMARK    2  A    between atoms: O_5  and  C_25 
ROOT
HETATM    1  O   UNK N   1      30.465  23.044  -7.357  0.00  0.00    -0.291 OA
HETATM    2  O   UNK N   1      29.270  23.351  -4.095  0.00  0.00    -0.309 OA
HETATM    3  O   UNK N   1      31.242  23.313  -9.464  0.00  0.00    -0.259 OA
HETATM    4  C   UNK N   1      29.826  22.067  -6.586  0.00  0.00     0.159 A 
HETATM    5  C   UNK N   1      29.829  20.873  -7.546  0.00  0.00     0.003 A 
HETATM    6  C   UNK N   1      28.472  22.659  -6.258  0.00  0.00     0.020 A 
HETATM    7  C   UNK N   1      30.643  21.813  -5.329  0.00  0.00     0.020 A 
HETATM    8  C   UNK N   1      30.400  21.240  -8.731  0.00  0.00     0.049 A 
HETATM    9  C   UNK N   1      28.308  23.370  -5.048  0.00  0.00     0.088 A 
HETATM   10  C   UNK N   1      30.331  22.513  -4.145  0.00  0.00     0.088 A 
HETATM   11  C   UNK N   1      30.757  22.610  -8.598  0.00  0.00     0.295 A 
HETATM   12  C   UNK N   1      29.395  19.559  -7.345  0.00  0.00     0.012 A 
HETATM   13  C   UNK N   1      27.453  22.701  -7.222  0.00  0.00     0.016 A 
HETATM   14  C   UNK N   1      31.718  20.907  -5.327  0.00  0.00     0.016 A 
HETATM   15  C   UNK N   1      30.574  20.356  -9.794  0.00  0.00     0.018 A 
HETATM   16  C   UNK N   1      27.140  24.102  -4.822  0.00  0.00     0.074 A 
HETATM   17  C   UNK N   1      31.096  22.313  -2.992  0.00  0.00     0.074 A 
HETATM   18  C   UNK N   1      29.566  18.632  -8.394  0.00  0.00     0.001 A 
HETATM   19  C   UNK N   1      26.279  23.417  -6.976  0.00  0.00     0.037 A 
HETATM   20  C   UNK N   1      32.460  20.694  -4.163  0.00  0.00     0.037 A 
HETATM   21  C   UNK N   1      30.151  19.031  -9.614  0.00  0.00     0.001 A 
HETATM   22  C   UNK N   1      26.131  24.132  -5.784  0.00  0.00     0.068 A 
HETATM   23  C   UNK N   1      32.153  21.402  -2.998  0.00  0.00     0.068 A 
ENDROOT
BRANCH  22  24
HETATM   24  O   UNK N   1      25.021  24.855  -5.568  0.00  0.00    -0.361 OA
HETATM   25  H   UNK N   1      24.563  24.815  -4.752  0.00  0.00     0.217 HD
ENDBRANCH  22  24
BRANCH  23  26
HETATM   26  O   UNK N   1      32.870  21.199  -1.880  0.00  0.00    -0.361 OA
HETATM   27  H   UNK N   1      33.806  21.211  -1.915  0.00  0.00     0.217 HD
ENDBRANCH  23  26
TORSDOF 2
ENDMDL
MODEL 8
REMARK VINA RESULT:      -7.5      2.038      2.230
REMARK  2 active torsions:
REMARK  status: ('A' for Active; 'I' for Inactive)
REMARK    1  A    between atoms: O_4  and  C_24 
REMARK    2  A    between atoms: O_5  and  C_25 
ROOT
HETATM    1  O   UNK N   1      32.404  16.869   6.181  0.00  0.00    -0.291 OA
HETATM    2  O   UNK N   1      29.036  16.068   5.764  0.00  0.00    -0.309 OA
HETATM    3  O   UNK N   1      34.572  17.489   5.995  0.00  0.00    -0.259 OA
HETATM    4  C   UNK N   1      31.594  16.113   7.035  0.00  0.00     0.159 A 
HETATM    5  C   UNK N   1      32.573  15.779   8.166  0.00  0.00     0.003 A 
HETATM    6  C   UNK N   1      31.124  14.948   6.191  0.00  0.00     0.020 A 
HETATM    7  C   UNK N   1      30.428  16.971   7.501  0.00  0.00     0.020 A 
HETATM    8  C   UNK N   1      33.800  16.303   7.877  0.00  0.00     0.049 A 
HETATM    9  C   UNK N   1      29.890  15.047   5.510  0.00  0.00     0.088 A 
HETATM   10  C   UNK N   1      29.206  16.921   6.800  0.00  0.00     0.088 A 
HETATM   11  C   UNK N   1      33.676  16.949   6.617  0.00  0.00     0.295 A 
HETATM   12  C   UNK N   1      32.357  15.100   9.369  0.00  0.00     0.012 A 
HETATM   13  C   UNK N   1      31.983  13.877   5.901  0.00  0.00     0.016 A 
HETATM   14  C   UNK N   1      30.549  17.828   8.609  0.00  0.00     0.016 A 
HETATM   15  C   UNK N   1      34.893  16.190   8.735  0.00  0.00     0.018 A 
HETATM   16  C   UNK N   1      29.536  14.084   4.562  0.00  0.00     0.074 A 
HETATM   17  C   UNK N   1      28.137  17.729   7.199  0.00  0.00     0.074 A 
HETATM   18  C   UNK N   1      33.435  14.977  10.269  0.00  0.00     0.001 A 
HETATM   19  C   UNK N   1      31.609  12.905   4.969  0.00  0.00     0.037 A 
HETATM   20  C   UNK N   1      29.467  18.612   9.016  0.00  0.00     0.037 A 
HETATM   21  C   UNK N   1      34.698  15.519   9.951  0.00  0.00     0.001 A 
HETATM   22  C   UNK N   1      30.395  13.019   4.287  0.00  0.00     0.068 A 
HETATM   23  C   UNK N   1      28.264  18.568   8.307  0.00  0.00     0.068 A 
ENDROOT
BRANCH  22  24
HETATM   24  O   UNK N   1      30.057  12.110   3.360  0.00  0.00    -0.361 OA
HETATM   25  H   UNK N   1      30.554  11.325   3.242  0.00  0.00     0.217 HD
ENDBRANCH  22  24
BRANCH  23  26
HETATM   26  O   UNK N   1      27.226  19.326   8.697  0.00  0.00    -0.361 OA
HETATM   27  H   UNK N   1      26.649  19.020   9.368  0.00  0.00     0.217 HD
ENDBRANCH  23  26
TORSDOF 2
ENDMDL
MODEL 9
REMARK VINA RESULT:      -7.4     13.690     16.954
REMARK  2 active torsions:
REMARK  status: ('A' for Active; 'I' for Inactive)
REMARK    1  A    between atoms: O_4  and  C_24 
REMARK    2  A    between atoms: O_5  and  C_25 
ROOT
HETATM    1  O   UNK N   1      28.557  25.013  -7.068  0.00  0.00    -0.291 OA
HETATM    2  O   UNK N   1      28.551  25.076  -3.581  0.00  0.00    -0.309 OA
HETATM    3  O   UNK N   1      28.773  25.385  -9.289  0.00  0.00    -0.259 OA
HETATM    4  C   UNK N   1      27.782  24.234  -6.201  0.00  0.00     0.159 A 
HETATM    5  C   UNK N   1      26.992  23.371  -7.191  0.00  0.00     0.003 A 
HETATM    6  C   UNK N   1      26.979  25.236  -5.397  0.00  0.00     0.020 A 
HETATM    7  C   UNK N   1      28.703  23.415  -5.311  0.00  0.00     0.020 A 
HETATM    8  C   UNK N   1      27.325  23.720  -8.468  0.00  0.00     0.049 A 
HETATM    9  C   UNK N   1      27.482  25.680  -4.154  0.00  0.00     0.088 A 
HETATM   10  C   UNK N   1      29.068  23.914  -4.043  0.00  0.00     0.088 A 
HETATM   11  C   UNK N   1      28.278  24.770  -8.363  0.00  0.00     0.295 A 
HETATM   12  C   UNK N   1      26.088  22.332  -6.952  0.00  0.00     0.012 A 
HETATM   13  C   UNK N   1      25.870  25.885  -5.961  0.00  0.00     0.016 A 
HETATM   14  C   UNK N   1      29.215  22.176  -5.734  0.00  0.00     0.016 A 
HETATM   15  C   UNK N   1      26.793  23.087  -9.589  0.00  0.00     0.018 A 
HETATM   16  C   UNK N   1      26.874  26.753  -3.498  0.00  0.00     0.074 A 
HETATM   17  C   UNK N   1      29.941  23.186  -3.229  0.00  0.00     0.074 A 
HETATM   18  C   UNK N   1      25.538  21.658  -8.062  0.00  0.00     0.001 A 
HETATM   19  C   UNK N   1      25.254  26.942  -5.285  0.00  0.00     0.037 A 
HETATM   20  C   UNK N   1      30.066  21.443  -4.902  0.00  0.00     0.037 A 
HETATM   21  C   UNK N   1      25.888  22.037  -9.375  0.00  0.00     0.001 A 
HETATM   22  C   UNK N   1      25.768  27.387  -4.064  0.00  0.00     0.068 A 
HETATM   23  C   UNK N   1      30.433  21.951  -3.654  0.00  0.00     0.068 A 
ENDROOT
BRANCH  22  24
HETATM   24  O   UNK N   1      25.202  28.430  -3.438  0.00  0.00    -0.361 OA
HETATM   25  H   UNK N   1      24.275  28.480  -3.309  0.00  0.00     0.217 HD
ENDBRANCH  22  24
BRANCH  23  26
HETATM   26  O   UNK N   1      31.255  21.247  -2.857  0.00  0.00    -0.361 OA
HETATM   27  H   UNK N   1      31.997  21.663  -2.466  0.00  0.00     0.217 HD
ENDBRANCH  23  26
TORSDOF 2
ENDMDL
