MODEL 1
REMARK VINA RESULT:      -8.4      0.000      0.000
REMARK  9 active torsions:
REMARK  status: ('A' for Active; 'I' for Inactive)
REMARK    1  A    between atoms: C_12  and  O_1 
REMARK    2  A    between atoms: C_18  and  O_1 
REMARK    3  A    between atoms: C_13  and  O_3 
REMARK    4  A    between atoms: C_21  and  O_4 
REMARK    5  A    between atoms: O_5  and  C_23 
REMARK    6  A    between atoms: O_6  and  C_25 
REMARK    7  A    between atoms: O_10  and  C_34 
REMARK    8  A    between atoms: C_20  and  N_11 
REMARK    9  A    between atoms: C_13  and  C_24 
ROOT
HETATM    1  O   UNK N   1      24.053  13.273   8.004  0.00  0.00    -0.286 OA
HETATM    2  O   UNK N   1      19.241  15.413   8.848  0.00  0.00    -0.286 OA
HETATM    3  C   UNK N   1      23.899  17.404   4.748  0.00  0.00     0.164 C 
HETATM    4  C   UNK N   1      21.785  18.354   3.676  0.00  0.00     0.124 C 
HETATM    5  C   UNK N   1      23.078  17.525   3.468  0.00  0.00     0.083 C 
HETATM    6  C   UNK N   1      21.398  18.494   5.173  0.00  0.00     0.088 C 
HETATM    7  C   UNK N   1      23.033  16.717   5.775  0.00  0.00     0.014 A 
HETATM    8  C   UNK N   1      21.765  17.270   5.976  0.00  0.00    -0.009 A 
HETATM    9  C   UNK N   1      23.424  15.572   6.490  0.00  0.00     0.090 A 
HETATM   10  C   UNK N   1      20.880  16.702   6.899  0.00  0.00     0.088 A 
HETATM   11  C   UNK N   1      22.551  14.995   7.438  0.00  0.00     0.066 A 
HETATM   12  C   UNK N   1      21.269  15.564   7.649  0.00  0.00     0.066 A 
HETATM   13  C   UNK N   1      22.977  13.808   8.235  0.00  0.00     0.200 A 
HETATM   14  C   UNK N   1      20.366  14.963   8.675  0.00  0.00     0.197 A 
HETATM   15  C   UNK N   1      22.119  13.286   9.330  0.00  0.00     0.062 A 
HETATM   16  C   UNK N   1      20.840  13.850   9.531  0.00  0.00     0.032 A 
HETATM   17  C   UNK N   1      22.567  12.249  10.188  0.00  0.00     0.083 A 
HETATM   18  C   UNK N   1      20.024  13.372  10.563  0.00  0.00     0.017 A 
HETATM   19  C   UNK N   1      21.729  11.796  11.220  0.00  0.00     0.038 A 
HETATM   20  C   UNK N   1      20.465  12.351  11.402  0.00  0.00     0.004 A 
ENDROOT
BRANCH   3  21
HETATM   21  O   UNK N   1      25.091  16.731   4.479  0.00  0.00    -0.351 OA
BRANCH  21  22
HETATM   22  C   UNK N   1      25.982  17.691   3.986  0.00  0.00     0.263 C 
HETATM   23  O   UNK N   1      27.025  17.014   3.281  0.00  0.00    -0.354 OA
HETATM   24  C   UNK N   1      28.320  17.310   3.757  0.00  0.00     0.151 C 
HETATM   25  C   UNK N   1      28.475  17.041   5.265  0.00  0.00     0.169 C 
HETATM   26  C   UNK N   1      29.327  16.484   2.981  0.00  0.00     0.042 C 
HETATM   27  C   UNK N   1      27.280  17.614   6.050  0.00  0.00     0.110 C 
HETATM   28  C   UNK N   1      26.444  18.539   5.182  0.00  0.00     0.088 C 
BRANCH  25  29
HETATM   29  O   UNK N   1      29.683  17.592   5.701  0.00  0.00    -0.391 OA
HETATM   30  H   UNK N   1      30.501  17.072   5.669  0.00  0.00     0.210 HD
ENDBRANCH  25  29
BRANCH  27  31
HETATM   31  N   UNK N   1      27.668  18.252   7.297  0.00  0.00    -0.423 N 
HETATM   32  H   UNK N   1      28.410  17.858   7.875  0.00  0.00     0.150 HD
HETATM   33  H   UNK N   1      27.193  19.104   7.597  0.00  0.00     0.150 HD
ENDBRANCH  27  31
ENDBRANCH  21  22
ENDBRANCH   3  21
BRANCH   4  34
HETATM   34  O   UNK N   1      20.753  17.697   3.003  0.00  0.00    -0.382 OA
HETATM   35  H   UNK N   1      20.383  16.901   2.591  0.00  0.00     0.211 HD
ENDBRANCH   4  34
BRANCH   4  36
HETATM   36  C   UNK N   1      21.950  19.737   3.082  0.00  0.00     0.157 C 
HETATM   37  O   UNK N   1      22.985  20.368   3.242  0.00  0.00    -0.295 OA
HETATM   38  C   UNK N   1      20.850  20.348   2.280  0.00  0.00     0.094 C 
ENDBRANCH   4  36
BRANCH   9  39
HETATM   39  O   UNK N   1      24.643  15.036   6.285  0.00  0.00    -0.359 OA
HETATM   40  H   UNK N   1      25.006  15.002   5.422  0.00  0.00     0.217 HD
ENDBRANCH   9  39
BRANCH  10  41
HETATM   41  O   UNK N   1      19.667  17.263   7.076  0.00  0.00    -0.359 OA
HETATM   42  H   UNK N   1      19.525  18.161   6.853  0.00  0.00     0.217 HD
ENDBRANCH  10  41
BRANCH  17  43
HETATM   43  O   UNK N   1      23.806  11.719  10.023  0.00  0.00    -0.355 OA
HETATM   44  C   UNK N   1      24.840  11.902  10.913  0.00  0.00     0.210 C 
ENDBRANCH  17  43
TORSDOF 9
ENDMDL
MODEL 2
REMARK VINA RESULT:      -8.3     14.440     16.439
REMARK  9 active torsions:
REMARK  status: ('A' for Active; 'I' for Inactive)
REMARK    1  A    between atoms: C_12  and  O_1 
REMARK    2  A    between atoms: C_18  and  O_1 
REMARK    3  A    between atoms: C_13  and  O_3 
REMARK    4  A    between atoms: C_21  and  O_4 
REMARK    5  A    between atoms: O_5  and  C_23 
REMARK    6  A    between atoms: O_6  and  C_25 
REMARK    7  A    between atoms: O_10  and  C_34 
REMARK    8  A    between atoms: C_20  and  N_11 
REMARK    9  A    between atoms: C_13  and  C_24 
ROOT
HETATM    1  O   UNK N   1      31.145  20.740  -7.490  0.00  0.00    -0.286 OA
HETATM    2  O   UNK N   1      32.176  21.771  -2.359  0.00  0.00    -0.286 OA
HETATM    3  C   UNK N   1      27.810  24.622  -6.268  0.00  0.00     0.164 C 
HETATM    4  C   UNK N   1      26.822  25.038  -3.951  0.00  0.00     0.124 C 
HETATM    5  C   UNK N   1      26.570  24.515  -5.387  0.00  0.00     0.083 C 
HETATM    6  C   UNK N   1      28.333  25.137  -3.606  0.00  0.00     0.088 C 
HETATM    7  C   UNK N   1      28.893  23.792  -5.625  0.00  0.00     0.014 A 
HETATM    8  C   UNK N   1      29.144  24.053  -4.274  0.00  0.00    -0.009 A 
HETATM    9  C   UNK N   1      29.613  22.788  -6.294  0.00  0.00     0.090 A 
HETATM   10  C   UNK N   1      30.121  23.331  -3.580  0.00  0.00     0.088 A 
HETATM   11  C   UNK N   1      30.616  22.061  -5.615  0.00  0.00     0.066 A 
HETATM   12  C   UNK N   1      30.876  22.335  -4.248  0.00  0.00     0.066 A 
HETATM   13  C   UNK N   1      31.417  21.026  -6.331  0.00  0.00     0.200 A 
HETATM   14  C   UNK N   1      31.958  21.580  -3.548  0.00  0.00     0.197 A 
HETATM   15  C   UNK N   1      32.563  20.361  -5.661  0.00  0.00     0.062 A 
HETATM   16  C   UNK N   1      32.814  20.630  -4.298  0.00  0.00     0.032 A 
HETATM   17  C   UNK N   1      33.422  19.480  -6.368  0.00  0.00     0.083 A 
HETATM   18  C   UNK N   1      33.895  20.015  -3.655  0.00  0.00     0.017 A 
HETATM   19  C   UNK N   1      34.503  18.884  -5.698  0.00  0.00     0.038 A 
HETATM   20  C   UNK N   1      34.734  19.147  -4.350  0.00  0.00     0.004 A 
ENDROOT
BRANCH   3  21
HETATM   21  O   UNK N   1      27.498  24.226  -7.568  0.00  0.00    -0.351 OA
BRANCH  21  22
HETATM   22  C   UNK N   1      26.172  23.780  -7.538  0.00  0.00     0.263 C 
HETATM   23  O   UNK N   1      26.177  22.374  -7.284  0.00  0.00    -0.354 OA
HETATM   24  C   UNK N   1      25.502  21.615  -8.264  0.00  0.00     0.151 C 
HETATM   25  C   UNK N   1      26.035  21.872  -9.685  0.00  0.00     0.169 C 
HETATM   26  C   UNK N   1      25.636  20.145  -7.922  0.00  0.00     0.042 C 
HETATM   27  C   UNK N   1      26.203  23.380  -9.944  0.00  0.00     0.110 C 
HETATM   28  C   UNK N   1      25.520  24.203  -8.865  0.00  0.00     0.088 C 
BRANCH  25  29
HETATM   29  O   UNK N   1      25.162  21.290 -10.608  0.00  0.00    -0.391 OA
HETATM   30  H   UNK N   1      25.480  21.016 -11.482  0.00  0.00     0.210 HD
ENDBRANCH  25  29
BRANCH  27  31
HETATM   31  N   UNK N   1      25.778  23.783 -11.276  0.00  0.00    -0.423 N 
HETATM   32  H   UNK N   1      25.574  23.085 -11.990  0.00  0.00     0.150 HD
HETATM   33  H   UNK N   1      25.684  24.774 -11.497  0.00  0.00     0.150 HD
ENDBRANCH  27  31
ENDBRANCH  21  22
ENDBRANCH   3  21
BRANCH   4  34
HETATM   34  O   UNK N   1      26.215  24.145  -3.066  0.00  0.00    -0.382 OA
HETATM   35  H   UNK N   1      25.545  23.473  -2.868  0.00  0.00     0.211 HD
ENDBRANCH   4  34
BRANCH   4  36
HETATM   36  C   UNK N   1      26.190  26.403  -3.774  0.00  0.00     0.157 C 
HETATM   37  O   UNK N   1      26.095  26.910  -2.665  0.00  0.00    -0.295 OA
HETATM   38  C   UNK N   1      25.684  27.157  -4.958  0.00  0.00     0.094 C 
ENDBRANCH   4  36
BRANCH   9  39
HETATM   39  O   UNK N   1      29.361  22.534  -7.593  0.00  0.00    -0.359 OA
HETATM   40  H   UNK N   1      29.900  21.934  -8.070  0.00  0.00     0.217 HD
ENDBRANCH   9  39
BRANCH  10  41
HETATM   41  O   UNK N   1      30.345  23.611  -2.281  0.00  0.00    -0.359 OA
HETATM   42  H   UNK N   1      30.641  22.940  -1.698  0.00  0.00     0.217 HD
ENDBRANCH  10  41
BRANCH  17  43
HETATM   43  O   UNK N   1      33.208  19.236  -7.686  0.00  0.00    -0.355 OA
HETATM   44  C   UNK N   1      33.801  18.204  -8.378  0.00  0.00     0.210 C 
ENDBRANCH  17  43
TORSDOF 9
ENDMDL
MODEL 3
REMARK VINA RESULT:      -8.2      8.435     13.564
REMARK  9 active torsions:
REMARK  status: ('A' for Active; 'I' for Inactive)
REMARK    1  A    between atoms: C_12  and  O_1 
REMARK    2  A    between atoms: C_18  and  O_1 
REMARK    3  A    between atoms: C_13  and  O_3 
REMARK    4  A    between atoms: C_21  and  O_4 
REMARK    5  A    between atoms: O_5  and  C_23 
REMARK    6  A    between atoms: O_6  and  C_25 
REMARK    7  A    between atoms: O_10  and  C_34 
REMARK    8  A    between atoms: C_20  and  N_11 
REMARK    9  A    between atoms: C_13  and  C_24 
ROOT
HETATM    1  O   UNK N   1      31.083  15.813   9.486  0.00  0.00    -0.286 OA
HETATM    2  O   UNK N   1      33.537  16.169   4.763  0.00  0.00    -0.286 OA
HETATM    3  C   UNK N   1      35.919  13.958  10.412  0.00  0.00     0.164 C 
HETATM    4  C   UNK N   1      37.395  12.774   8.696  0.00  0.00     0.124 C 
HETATM    5  C   UNK N   1      36.488  12.623   9.944  0.00  0.00     0.083 C 
HETATM    6  C   UNK N   1      37.178  14.124   7.960  0.00  0.00     0.088 C 
HETATM    7  C   UNK N   1      35.103  14.523   9.276  0.00  0.00     0.014 A 
HETATM    8  C   UNK N   1      35.745  14.594   8.036  0.00  0.00    -0.009 A 
HETATM    9  C   UNK N   1      33.767  14.939   9.402  0.00  0.00     0.090 A 
HETATM   10  C   UNK N   1      35.073  15.092   6.915  0.00  0.00     0.088 A 
HETATM   11  C   UNK N   1      33.078  15.461   8.285  0.00  0.00     0.066 A 
HETATM   12  C   UNK N   1      33.734  15.543   7.031  0.00  0.00     0.066 A 
HETATM   13  C   UNK N   1      31.674  15.948   8.422  0.00  0.00     0.200 A 
HETATM   14  C   UNK N   1      33.005  16.123   5.864  0.00  0.00     0.197 A 
HETATM   15  C   UNK N   1      30.996  16.626   7.288  0.00  0.00     0.062 A 
HETATM   16  C   UNK N   1      31.650  16.698   6.039  0.00  0.00     0.032 A 
HETATM   17  C   UNK N   1      29.717  17.220   7.441  0.00  0.00     0.083 A 
HETATM   18  C   UNK N   1      31.025  17.340   4.962  0.00  0.00     0.017 A 
HETATM   19  C   UNK N   1      29.119  17.864   6.345  0.00  0.00     0.038 A 
HETATM   20  C   UNK N   1      29.767  17.918   5.114  0.00  0.00     0.004 A 
ENDROOT
BRANCH   3  21
HETATM   21  O   UNK N   1      35.192  13.772  11.587  0.00  0.00    -0.351 OA
BRANCH  21  22
HETATM   22  C   UNK N   1      35.718  12.630  12.201  0.00  0.00     0.263 C 
HETATM   23  O   UNK N   1      34.645  11.919  12.822  0.00  0.00    -0.354 OA
HETATM   24  C   UNK N   1      34.834  11.694  14.202  0.00  0.00     0.151 C 
HETATM   25  C   UNK N   1      35.097  12.994  14.986  0.00  0.00     0.169 C 
HETATM   26  C   UNK N   1      33.606  11.000  14.757  0.00  0.00     0.042 C 
HETATM   27  C   UNK N   1      36.134  13.871  14.260  0.00  0.00     0.110 C 
HETATM   28  C   UNK N   1      36.831  13.098  13.153  0.00  0.00     0.088 C 
BRANCH  25  29
HETATM   29  O   UNK N   1      35.521  12.665  16.276  0.00  0.00    -0.391 OA
HETATM   30  H   UNK N   1      36.343  13.035  16.633  0.00  0.00     0.210 HD
ENDBRANCH  25  29
BRANCH  27  31
HETATM   31  N   UNK N   1      37.088  14.495  15.162  0.00  0.00    -0.423 N 
HETATM   32  H   UNK N   1      37.639  15.299  14.861  0.00  0.00     0.150 HD
HETATM   33  H   UNK N   1      37.207  14.126  16.105  0.00  0.00     0.150 HD
ENDBRANCH  27  31
ENDBRANCH  21  22
ENDBRANCH   3  21
BRANCH   4  34
HETATM   34  O   UNK N   1      37.086  11.730   7.823  0.00  0.00    -0.382 OA
HETATM   35  H   UNK N   1      37.317  11.149   7.083  0.00  0.00     0.211 HD
ENDBRANCH   4  34
BRANCH   4  36
HETATM   36  C   UNK N   1      38.852  12.663   9.092  0.00  0.00     0.157 C 
HETATM   37  O   UNK N   1      39.221  12.977  10.215  0.00  0.00    -0.295 OA
HETATM   38  C   UNK N   1      39.861  12.156   8.117  0.00  0.00     0.094 C 
ENDBRANCH   4  36
BRANCH   9  39
HETATM   39  O   UNK N   1      33.149  14.859  10.597  0.00  0.00    -0.359 OA
HETATM   40  H   UNK N   1      32.230  14.685  10.642  0.00  0.00     0.217 HD
ENDBRANCH   9  39
BRANCH  10  41
HETATM   41  O   UNK N   1      35.722  15.155   5.735  0.00  0.00    -0.359 OA
HETATM   42  H   UNK N   1      36.184  14.408   5.409  0.00  0.00     0.217 HD
ENDBRANCH  10  41
BRANCH  17  43
HETATM   43  O   UNK N   1      29.091  17.183   8.644  0.00  0.00    -0.355 OA
HETATM   44  C   UNK N   1      28.234  18.164   9.091  0.00  0.00     0.210 C 
ENDBRANCH  17  43
TORSDOF 9
ENDMDL
MODEL 4
REMARK VINA RESULT:      -7.7      8.568     13.558
REMARK  9 active torsions:
REMARK  status: ('A' for Active; 'I' for Inactive)
REMARK    1  A    between atoms: C_12  and  O_1 
REMARK    2  A    between atoms: C_18  and  O_1 
REMARK    3  A    between atoms: C_13  and  O_3 
REMARK    4  A    between atoms: C_21  and  O_4 
REMARK    5  A    between atoms: O_5  and  C_23 
REMARK    6  A    between atoms: O_6  and  C_25 
REMARK    7  A    between atoms: O_10  and  C_34 
REMARK    8  A    between atoms: C_20  and  N_11 
REMARK    9  A    between atoms: C_13  and  C_24 
ROOT
HETATM    1  O   UNK N   1      33.948  16.635   5.236  0.00  0.00    -0.286 OA
HETATM    2  O   UNK N   1      30.661  16.373   9.429  0.00  0.00    -0.286 OA
HETATM    3  C   UNK N   1      36.681  13.946   8.841  0.00  0.00     0.164 C 
HETATM    4  C   UNK N   1      36.446  14.217  11.369  0.00  0.00     0.124 C 
HETATM    5  C   UNK N   1      37.307  14.505  10.113  0.00  0.00     0.083 C 
HETATM    6  C   UNK N   1      34.984  13.833  11.016  0.00  0.00     0.088 C 
HETATM    7  C   UNK N   1      35.333  14.603   8.675  0.00  0.00     0.014 A 
HETATM    8  C   UNK N   1      34.485  14.550   9.785  0.00  0.00    -0.009 A 
HETATM    9  C   UNK N   1      34.922  15.266   7.506  0.00  0.00     0.090 A 
HETATM   10  C   UNK N   1      33.216  15.139   9.739  0.00  0.00     0.088 A 
HETATM   11  C   UNK N   1      33.639  15.851   7.435  0.00  0.00     0.066 A 
HETATM   12  C   UNK N   1      32.776  15.786   8.558  0.00  0.00     0.066 A 
HETATM   13  C   UNK N   1      33.179  16.515   6.181  0.00  0.00     0.200 A 
HETATM   14  C   UNK N   1      31.410  16.384   8.462  0.00  0.00     0.197 A 
HETATM   15  C   UNK N   1      31.782  17.006   6.055  0.00  0.00     0.062 A 
HETATM   16  C   UNK N   1      30.929  16.947   7.179  0.00  0.00     0.032 A 
HETATM   17  C   UNK N   1      31.285  17.512   4.827  0.00  0.00     0.083 A 
HETATM   18  C   UNK N   1      29.608  17.400   7.072  0.00  0.00     0.017 A 
HETATM   19  C   UNK N   1      29.954  17.951   4.749  0.00  0.00     0.038 A 
HETATM   20  C   UNK N   1      29.123  17.900   5.866  0.00  0.00     0.004 A 
ENDROOT
BRANCH   3  21
HETATM   21  O   UNK N   1      37.542  14.152   7.763  0.00  0.00    -0.351 OA
BRANCH  21  22
HETATM   22  C   UNK N   1      37.954  12.884   7.339  0.00  0.00     0.263 C 
HETATM   23  O   UNK N   1      38.964  12.417   8.236  0.00  0.00    -0.354 OA
HETATM   24  C   UNK N   1      40.177  12.075   7.601  0.00  0.00     0.151 C 
HETATM   25  C   UNK N   1      40.749  13.226   6.754  0.00  0.00     0.169 C 
HETATM   26  C   UNK N   1      41.183  11.664   8.658  0.00  0.00     0.042 C 
HETATM   27  C   UNK N   1      39.651  13.869   5.889  0.00  0.00     0.110 C 
HETATM   28  C   UNK N   1      38.393  13.016   5.871  0.00  0.00     0.088 C 
BRANCH  25  29
HETATM   29  O   UNK N   1      41.794  12.733   5.968  0.00  0.00    -0.391 OA
HETATM   30  H   UNK N   1      42.717  12.867   6.235  0.00  0.00     0.210 HD
ENDBRANCH  25  29
BRANCH  27  31
HETATM   31  N   UNK N   1      40.098  14.195   4.544  0.00  0.00    -0.423 N 
HETATM   32  H   UNK N   1      39.831  15.076   4.106  0.00  0.00     0.150 HD
HETATM   33  H   UNK N   1      40.684  13.534   4.034  0.00  0.00     0.150 HD
ENDBRANCH  27  31
ENDBRANCH  21  22
ENDBRANCH   3  21
BRANCH   4  34
HETATM   34  O   UNK N   1      36.433  15.377  12.144  0.00  0.00    -0.382 OA
HETATM   35  H   UNK N   1      35.987  15.980  12.758  0.00  0.00     0.211 HD
ENDBRANCH   4  34
BRANCH   4  36
HETATM   36  C   UNK N   1      37.063  13.097  12.180  0.00  0.00     0.157 C 
HETATM   37  O   UNK N   1      37.905  12.359  11.689  0.00  0.00    -0.295 OA
HETATM   38  C   UNK N   1      36.658  12.885  13.601  0.00  0.00     0.094 C 
ENDBRANCH   4  36
BRANCH   9  39
HETATM   39  O   UNK N   1      35.748  15.324   6.442  0.00  0.00    -0.359 OA
HETATM   40  H   UNK N   1      36.534  15.832   6.481  0.00  0.00     0.217 HD
ENDBRANCH   9  39
BRANCH  10  41
HETATM   41  O   UNK N   1      32.418  15.064  10.823  0.00  0.00    -0.359 OA
HETATM   42  H   UNK N   1      32.321  15.803  11.389  0.00  0.00     0.217 HD
ENDBRANCH  10  41
BRANCH  17  43
HETATM   43  O   UNK N   1      32.088  17.547   3.733  0.00  0.00    -0.355 OA
HETATM   44  C   UNK N   1      31.879  16.782   2.607  0.00  0.00     0.210 C 
ENDBRANCH  17  43
TORSDOF 9
ENDMDL
MODEL 5
REMARK VINA RESULT:      -7.5     10.461     13.894
REMARK  9 active torsions:
REMARK  status: ('A' for Active; 'I' for Inactive)
REMARK    1  A    between atoms: C_12  and  O_1 
REMARK    2  A    between atoms: C_18  and  O_1 
REMARK    3  A    between atoms: C_13  and  O_3 
REMARK    4  A    between atoms: C_21  and  O_4 
REMARK    5  A    between atoms: O_5  and  C_23 
REMARK    6  A    between atoms: O_6  and  C_25 
REMARK    7  A    between atoms: O_10  and  C_34 
REMARK    8  A    between atoms: C_20  and  N_11 
REMARK    9  A    between atoms: C_13  and  C_24 
ROOT
HETATM    1  O   UNK N   1      33.975  12.939   5.560  0.00  0.00    -0.286 OA
HETATM    2  O   UNK N   1      33.917  17.827   7.693  0.00  0.00    -0.286 OA
HETATM    3  C   UNK N   1      34.730  12.103  10.700  0.00  0.00     0.164 C 
HETATM    4  C   UNK N   1      35.874  13.728  12.302  0.00  0.00     0.124 C 
HETATM    5  C   UNK N   1      35.993  12.410  11.497  0.00  0.00     0.083 C 
HETATM    6  C   UNK N   1      34.722  14.637  11.796  0.00  0.00     0.088 C 
HETATM    7  C   UNK N   1      34.513  13.247   9.741  0.00  0.00     0.014 A 
HETATM    8  C   UNK N   1      34.520  14.527  10.303  0.00  0.00    -0.009 A 
HETATM    9  C   UNK N   1      34.337  13.087   8.356  0.00  0.00     0.090 A 
HETATM   10  C   UNK N   1      34.338  15.658   9.500  0.00  0.00     0.088 A 
HETATM   11  C   UNK N   1      34.135  14.216   7.532  0.00  0.00     0.066 A 
HETATM   12  C   UNK N   1      34.131  15.512   8.105  0.00  0.00     0.066 A 
HETATM   13  C   UNK N   1      33.902  14.050   6.067  0.00  0.00     0.200 A 
HETATM   14  C   UNK N   1      33.888  16.696   7.228  0.00  0.00     0.197 A 
HETATM   15  C   UNK N   1      33.548  15.220   5.222  0.00  0.00     0.062 A 
HETATM   16  C   UNK N   1      33.554  16.510   5.796  0.00  0.00     0.032 A 
HETATM   17  C   UNK N   1      33.186  15.064   3.859  0.00  0.00     0.083 A 
HETATM   18  C   UNK N   1      33.218  17.621   5.012  0.00  0.00     0.017 A 
HETATM   19  C   UNK N   1      32.845  16.195   3.101  0.00  0.00     0.038 A 
HETATM   20  C   UNK N   1      32.866  17.465   3.673  0.00  0.00     0.004 A 
ENDROOT
BRANCH   3  21
HETATM   21  O   UNK N   1      34.860  10.863  10.073  0.00  0.00    -0.351 OA
BRANCH  21  22
HETATM   22  C   UNK N   1      34.218   9.934  10.899  0.00  0.00     0.263 C 
HETATM   23  O   UNK N   1      34.957   8.712  10.861  0.00  0.00    -0.354 OA
HETATM   24  C   UNK N   1      34.192   7.595  10.465  0.00  0.00     0.151 C 
HETATM   25  C   UNK N   1      33.493   7.803   9.109  0.00  0.00     0.169 C 
HETATM   26  C   UNK N   1      35.098   6.381  10.396  0.00  0.00     0.042 C 
HETATM   27  C   UNK N   1      32.818   9.185   9.047  0.00  0.00     0.110 C 
HETATM   28  C   UNK N   1      32.760   9.832  10.420  0.00  0.00     0.088 C 
BRANCH  25  29
HETATM   29  O   UNK N   1      32.567   6.774   8.915  0.00  0.00    -0.391 OA
HETATM   30  H   UNK N   1      32.027   6.453   9.653  0.00  0.00     0.210 HD
ENDBRANCH  25  29
BRANCH  27  31
HETATM   31  N   UNK N   1      31.510   9.156   8.411  0.00  0.00    -0.423 N 
HETATM   32  H   UNK N   1      30.890   8.357   8.535  0.00  0.00     0.150 HD
HETATM   33  H   UNK N   1      31.211   9.944   7.837  0.00  0.00     0.150 HD
ENDBRANCH  27  31
ENDBRANCH  21  22
ENDBRANCH   3  21
BRANCH   4  34
HETATM   34  O   UNK N   1      37.082  14.414  12.166  0.00  0.00    -0.382 OA
HETATM   35  H   UNK N   1      38.010  14.553  12.411  0.00  0.00     0.211 HD
ENDBRANCH   4  34
BRANCH   4  36
HETATM   36  C   UNK N   1      35.649  13.426  13.769  0.00  0.00     0.157 C 
HETATM   37  O   UNK N   1      34.548  13.083  14.176  0.00  0.00    -0.295 OA
HETATM   38  C   UNK N   1      36.777  13.532  14.741  0.00  0.00     0.094 C 
ENDBRANCH   4  36
BRANCH   9  39
HETATM   39  O   UNK N   1      34.342  11.852   7.817  0.00  0.00    -0.359 OA
HETATM   40  H   UNK N   1      34.797  11.688   7.016  0.00  0.00     0.217 HD
ENDBRANCH   9  39
BRANCH  10  41
HETATM   41  O   UNK N   1      34.343  16.878  10.073  0.00  0.00    -0.359 OA
HETATM   42  H   UNK N   1      34.191  16.968  10.993  0.00  0.00     0.217 HD
ENDBRANCH  10  41
BRANCH  17  43
HETATM   43  O   UNK N   1      33.149  13.826   3.305  0.00  0.00    -0.355 OA
HETATM   44  C   UNK N   1      33.642  13.534   2.053  0.00  0.00     0.210 C 
ENDBRANCH  17  43
TORSDOF 9
ENDMDL
MODEL 6
REMARK VINA RESULT:      -7.2      9.648     12.282
REMARK  9 active torsions:
REMARK  status: ('A' for Active; 'I' for Inactive)
REMARK    1  A    between atoms: C_12  and  O_1 
REMARK    2  A    between atoms: C_18  and  O_1 
REMARK    3  A    between atoms: C_13  and  O_3 
REMARK    4  A    between atoms: C_21  and  O_4 
REMARK    5  A    between atoms: O_5  and  C_23 
REMARK    6  A    between atoms: O_6  and  C_25 
REMARK    7  A    between atoms: O_10  and  C_34 
REMARK    8  A    between atoms: C_20  and  N_11 
REMARK    9  A    between atoms: C_13  and  C_24 
ROOT
HETATM    1  O   UNK N   1      34.208  10.514  11.414  0.00  0.00    -0.286 OA
HETATM    2  O   UNK N   1      36.318  15.000  13.382  0.00  0.00    -0.286 OA
HETATM    3  C   UNK N   1      33.482  14.056   7.591  0.00  0.00     0.164 C 
HETATM    4  C   UNK N   1      33.169  16.564   7.950  0.00  0.00     0.124 C 
HETATM    5  C   UNK N   1      32.492  15.215   7.600  0.00  0.00     0.083 C 
HETATM    6  C   UNK N   1      34.555  16.381   8.624  0.00  0.00     0.088 C 
HETATM    7  C   UNK N   1      34.078  13.963   8.974  0.00  0.00     0.014 A 
HETATM    8  C   UNK N   1      34.610  15.147   9.492  0.00  0.00    -0.009 A 
HETATM    9  C   UNK N   1      34.096  12.787   9.743  0.00  0.00     0.090 A 
HETATM   10  C   UNK N   1      35.179  15.171  10.771  0.00  0.00     0.088 A 
HETATM   11  C   UNK N   1      34.681  12.788  11.028  0.00  0.00     0.066 A 
HETATM   12  C   UNK N   1      35.230  13.987  11.548  0.00  0.00     0.066 A 
HETATM   13  C   UNK N   1      34.745  11.532  11.831  0.00  0.00     0.200 A 
HETATM   14  C   UNK N   1      35.871  13.970  12.897  0.00  0.00     0.197 A 
HETATM   15  C   UNK N   1      35.483  11.497  13.120  0.00  0.00     0.062 A 
HETATM   16  C   UNK N   1      36.021  12.695  13.638  0.00  0.00     0.032 A 
HETATM   17  C   UNK N   1      35.674  10.282  13.828  0.00  0.00     0.083 A 
HETATM   18  C   UNK N   1      36.724  12.675  14.849  0.00  0.00     0.017 A 
HETATM   19  C   UNK N   1      36.391  10.293  15.036  0.00  0.00     0.038 A 
HETATM   20  C   UNK N   1      36.907  11.482  15.544  0.00  0.00     0.004 A 
ENDROOT
BRANCH   3  21
HETATM   21  O   UNK N   1      32.836  12.890   7.180  0.00  0.00    -0.351 OA
BRANCH  21  22
HETATM   22  C   UNK N   1      33.474  12.480   6.003  0.00  0.00     0.263 C 
HETATM   23  O   UNK N   1      33.918  13.645   5.304  0.00  0.00    -0.354 OA
HETATM   24  C   UNK N   1      33.429  13.738   3.983  0.00  0.00     0.151 C 
HETATM   25  C   UNK N   1      31.893  13.663   3.912  0.00  0.00     0.169 C 
HETATM   26  C   UNK N   1      33.909  15.041   3.375  0.00  0.00     0.042 C 
HETATM   27  C   UNK N   1      31.358  12.516   4.789  0.00  0.00     0.110 C 
HETATM   28  C   UNK N   1      32.481  11.594   5.234  0.00  0.00     0.088 C 
BRANCH  25  29
HETATM   29  O   UNK N   1      31.509  13.506   2.578  0.00  0.00    -0.391 OA
HETATM   30  H   UNK N   1      32.130  13.143   1.927  0.00  0.00     0.210 HD
ENDBRANCH  25  29
BRANCH  27  31
HETATM   31  N   UNK N   1      30.271  11.778   4.166  0.00  0.00    -0.423 N 
HETATM   32  H   UNK N   1      29.525  11.375   4.732  0.00  0.00     0.150 HD
HETATM   33  H   UNK N   1      30.255  11.662   3.153  0.00  0.00     0.150 HD
ENDBRANCH  27  31
ENDBRANCH  21  22
ENDBRANCH   3  21
BRANCH   4  34
HETATM   34  O   UNK N   1      32.325  17.241   8.833  0.00  0.00    -0.382 OA
HETATM   35  H   UNK N   1      31.847  17.294   9.675  0.00  0.00     0.211 HD
ENDBRANCH   4  34
BRANCH   4  36
HETATM   36  C   UNK N   1      33.340  17.403   6.701  0.00  0.00     0.157 C 
HETATM   37  O   UNK N   1      34.328  18.108   6.551  0.00  0.00    -0.295 OA
HETATM   38  C   UNK N   1      32.305  17.371   5.625  0.00  0.00     0.094 C 
ENDBRANCH   4  36
BRANCH   9  39
HETATM   39  O   UNK N   1      33.573  11.650   9.243  0.00  0.00    -0.359 OA
HETATM   40  H   UNK N   1      33.700  10.836   9.687  0.00  0.00     0.217 HD
ENDBRANCH   9  39
BRANCH  10  41
HETATM   41  O   UNK N   1      35.690  16.327  11.240  0.00  0.00    -0.359 OA
HETATM   42  H   UNK N   1      35.169  16.890  11.777  0.00  0.00     0.217 HD
ENDBRANCH  10  41
BRANCH  17  43
HETATM   43  O   UNK N   1      35.187   9.120  13.325  0.00  0.00    -0.355 OA
HETATM   44  C   UNK N   1      35.900   7.942  13.294  0.00  0.00     0.210 C 
ENDBRANCH  17  43
TORSDOF 9
ENDMDL
MODEL 7
REMARK VINA RESULT:      -7.2     11.062     15.271
REMARK  9 active torsions:
REMARK  status: ('A' for Active; 'I' for Inactive)
REMARK    1  A    between atoms: C_12  and  O_1 
REMARK    2  A    between atoms: C_18  and  O_1 
REMARK    3  A    between atoms: C_13  and  O_3 
REMARK    4  A    between atoms: C_21  and  O_4 
REMARK    5  A    between atoms: O_5  and  C_23 
REMARK    6  A    between atoms: O_6  and  C_25 
REMARK    7  A    between atoms: O_10  and  C_34 
REMARK    8  A    between atoms: C_20  and  N_11 
REMARK    9  A    between atoms: C_13  and  C_24 
ROOT
HETATM    1  O   UNK N   1      35.536  13.757  14.702  0.00  0.00    -0.286 OA
HETATM    2  O   UNK N   1      37.989   9.027  14.457  0.00  0.00    -0.286 OA
HETATM    3  C   UNK N   1      36.731  13.196   9.608  0.00  0.00     0.164 C 
HETATM    4  C   UNK N   1      38.729  11.890   8.701  0.00  0.00     0.124 C 
HETATM    5  C   UNK N   1      38.119  13.286   8.983  0.00  0.00     0.083 C 
HETATM    6  C   UNK N   1      38.020  10.757   9.491  0.00  0.00     0.088 C 
HETATM    7  C   UNK N   1      36.872  12.448  10.911  0.00  0.00     0.014 A 
HETATM    8  C   UNK N   1      37.535  11.219  10.844  0.00  0.00    -0.009 A 
HETATM    9  C   UNK N   1      36.407  12.930  12.146  0.00  0.00     0.090 A 
HETATM   10  C   UNK N   1      37.728  10.451  11.997  0.00  0.00     0.088 A 
HETATM   11  C   UNK N   1      36.577  12.162  13.318  0.00  0.00     0.066 A 
HETATM   12  C   UNK N   1      37.239  10.910  13.246  0.00  0.00     0.066 A 
HETATM   13  C   UNK N   1      36.044  12.646  14.625  0.00  0.00     0.200 A 
HETATM   14  C   UNK N   1      37.388  10.093  14.487  0.00  0.00     0.197 A 
HETATM   15  C   UNK N   1      36.096  11.779  15.830  0.00  0.00     0.062 A 
HETATM   16  C   UNK N   1      36.764  10.537  15.755  0.00  0.00     0.032 A 
HETATM   17  C   UNK N   1      35.471  12.164  17.044  0.00  0.00     0.083 A 
HETATM   18  C   UNK N   1      36.815   9.707  16.882  0.00  0.00     0.017 A 
HETATM   19  C   UNK N   1      35.532  11.306  18.154  0.00  0.00     0.038 A 
HETATM   20  C   UNK N   1      36.204  10.089  18.074  0.00  0.00     0.004 A 
ENDROOT
BRANCH   3  21
HETATM   21  O   UNK N   1      36.196  14.476   9.751  0.00  0.00    -0.351 OA
BRANCH  21  22
HETATM   22  C   UNK N   1      35.644  14.813   8.511  0.00  0.00     0.263 C 
HETATM   23  O   UNK N   1      35.270  16.192   8.545  0.00  0.00    -0.354 OA
HETATM   24  C   UNK N   1      33.912  16.423   8.243  0.00  0.00     0.151 C 
HETATM   25  C   UNK N   1      32.957  15.620   9.146  0.00  0.00     0.169 C 
HETATM   26  C   UNK N   1      33.625  17.905   8.381  0.00  0.00     0.042 C 
HETATM   27  C   UNK N   1      33.420  14.157   9.269  0.00  0.00     0.110 C 
HETATM   28  C   UNK N   1      34.492  13.830   8.243  0.00  0.00     0.088 C 
BRANCH  25  29
HETATM   29  O   UNK N   1      31.664  15.704   8.625  0.00  0.00    -0.391 OA
HETATM   30  H   UNK N   1      31.525  15.848   7.676  0.00  0.00     0.210 HD
ENDBRANCH  25  29
BRANCH  27  31
HETATM   31  N   UNK N   1      32.323  13.204   9.222  0.00  0.00    -0.423 N 
HETATM   32  H   UNK N   1      31.365  13.520   9.074  0.00  0.00     0.150 HD
HETATM   33  H   UNK N   1      32.514  12.209   9.338  0.00  0.00     0.150 HD
ENDBRANCH  27  31
ENDBRANCH  21  22
ENDBRANCH   3  21
BRANCH   4  34
HETATM   34  O   UNK N   1      40.071  11.934   9.083  0.00  0.00    -0.382 OA
HETATM   35  H   UNK N   1      40.989  12.199   8.921  0.00  0.00     0.211 HD
ENDBRANCH   4  34
BRANCH   4  36
HETATM   36  C   UNK N   1      38.654  11.575   7.222  0.00  0.00     0.157 C 
HETATM   37  O   UNK N   1      37.720  10.930   6.766  0.00  0.00    -0.295 OA
HETATM   38  C   UNK N   1      39.717  12.060   6.294  0.00  0.00     0.094 C 
ENDBRANCH   4  36
BRANCH   9  39
HETATM   39  O   UNK N   1      35.778  14.121  12.208  0.00  0.00    -0.359 OA
HETATM   40  H   UNK N   1      35.787  14.699  11.471  0.00  0.00     0.217 HD
ENDBRANCH   9  39
BRANCH  10  41
HETATM   41  O   UNK N   1      38.364   9.267  11.899  0.00  0.00    -0.359 OA
HETATM   42  H   UNK N   1      38.379   8.677  12.626  0.00  0.00     0.217 HD
ENDBRANCH  10  41
BRANCH  17  43
HETATM   43  O   UNK N   1      34.801  13.342  17.119  0.00  0.00    -0.355 OA
HETATM   44  C   UNK N   1      35.040  14.296  18.083  0.00  0.00     0.210 C 
ENDBRANCH  17  43
TORSDOF 9
ENDMDL
MODEL 8
REMARK VINA RESULT:      -7.1      5.954      9.253
REMARK  9 active torsions:
REMARK  status: ('A' for Active; 'I' for Inactive)
REMARK    1  A    between atoms: C_12  and  O_1 
REMARK    2  A    between atoms: C_18  and  O_1 
REMARK    3  A    between atoms: C_13  and  O_3 
REMARK    4  A    between atoms: C_21  and  O_4 
REMARK    5  A    between atoms: O_5  and  C_23 
REMARK    6  A    between atoms: O_6  and  C_25 
REMARK    7  A    between atoms: O_10  and  C_34 
REMARK    8  A    between atoms: C_20  and  N_11 
REMARK    9  A    between atoms: C_13  and  C_24 
ROOT
HETATM    1  O   UNK N   1      33.078  16.872   6.911  0.00  0.00    -0.286 OA
HETATM    2  O   UNK N   1      32.723  11.606   6.136  0.00  0.00    -0.286 OA
HETATM    3  C   UNK N   1      28.631  16.279   4.161  0.00  0.00     0.164 C 
HETATM    4  C   UNK N   1      28.179  14.411   2.480  0.00  0.00     0.124 C 
HETATM    5  C   UNK N   1      28.514  15.910   2.686  0.00  0.00     0.083 C 
HETATM    6  C   UNK N   1      28.464  13.555   3.744  0.00  0.00     0.088 C 
HETATM    7  C   UNK N   1      29.739  15.441   4.749  0.00  0.00     0.014 A 
HETATM    8  C   UNK N   1      29.652  14.064   4.524  0.00  0.00    -0.009 A 
HETATM    9  C   UNK N   1      30.828  15.970   5.463  0.00  0.00     0.090 A 
HETATM   10  C   UNK N   1      30.634  13.199   5.018  0.00  0.00     0.088 A 
HETATM   11  C   UNK N   1      31.820  15.111   5.984  0.00  0.00     0.066 A 
HETATM   12  C   UNK N   1      31.724  13.713   5.764  0.00  0.00     0.066 A 
HETATM   13  C   UNK N   1      32.955  15.661   6.782  0.00  0.00     0.200 A 
HETATM   14  C   UNK N   1      32.764  12.812   6.344  0.00  0.00     0.197 A 
HETATM   15  C   UNK N   1      33.920  14.750   7.449  0.00  0.00     0.062 A 
HETATM   16  C   UNK N   1      33.825  13.360   7.220  0.00  0.00     0.032 A 
HETATM   17  C   UNK N   1      34.919  15.247   8.325  0.00  0.00     0.083 A 
HETATM   18  C   UNK N   1      34.725  12.489   7.848  0.00  0.00     0.017 A 
HETATM   19  C   UNK N   1      35.802  14.348   8.946  0.00  0.00     0.038 A 
HETATM   20  C   UNK N   1      35.708  12.980   8.705  0.00  0.00     0.004 A 
ENDROOT
BRANCH   3  21
HETATM   21  O   UNK N   1      28.840  17.652   4.286  0.00  0.00    -0.351 OA
BRANCH  21  22
HETATM   22  C   UNK N   1      27.589  18.219   4.553  0.00  0.00     0.263 C 
HETATM   23  O   UNK N   1      27.767  19.619   4.776  0.00  0.00    -0.354 OA
HETATM   24  C   UNK N   1      27.273  20.066   6.019  0.00  0.00     0.151 C 
HETATM   25  C   UNK N   1      27.865  19.288   7.209  0.00  0.00     0.169 C 
HETATM   26  C   UNK N   1      27.583  21.543   6.166  0.00  0.00     0.042 C 
HETATM   27  C   UNK N   1      27.842  17.773   6.938  0.00  0.00     0.110 C 
HETATM   28  C   UNK N   1      26.979  17.441   5.731  0.00  0.00     0.088 C 
BRANCH  25  29
HETATM   29  O   UNK N   1      27.146  19.611   8.362  0.00  0.00    -0.391 OA
HETATM   30  H   UNK N   1      26.887  20.528   8.540  0.00  0.00     0.210 HD
ENDBRANCH  25  29
BRANCH  27  31
HETATM   31  N   UNK N   1      27.461  16.988   8.102  0.00  0.00    -0.423 N 
HETATM   32  H   UNK N   1      27.849  17.200   9.021  0.00  0.00     0.150 HD
HETATM   33  H   UNK N   1      26.799  16.220   7.997  0.00  0.00     0.150 HD
ENDBRANCH  27  31
ENDBRANCH  21  22
ENDBRANCH   3  21
BRANCH   4  34
HETATM   34  O   UNK N   1      28.972  13.944   1.431  0.00  0.00    -0.382 OA
HETATM   35  H   UNK N   1      29.789  13.972   0.909  0.00  0.00     0.211 HD
ENDBRANCH   4  34
BRANCH   4  36
HETATM   36  C   UNK N   1      26.722  14.249   2.099  0.00  0.00     0.157 C 
HETATM   37  O   UNK N   1      26.231  13.138   1.959  0.00  0.00    -0.295 OA
HETATM   38  C   UNK N   1      25.859  15.450   1.898  0.00  0.00     0.094 C 
ENDBRANCH   4  36
BRANCH   9  39
HETATM   39  O   UNK N   1      30.914  17.299   5.668  0.00  0.00    -0.359 OA
HETATM   40  H   UNK N   1      31.750  17.709   5.768  0.00  0.00     0.217 HD
ENDBRANCH   9  39
BRANCH  10  41
HETATM   41  O   UNK N   1      30.517  11.875   4.791  0.00  0.00    -0.359 OA
HETATM   42  H   UNK N   1      31.068  11.454   4.161  0.00  0.00     0.217 HD
ENDBRANCH  10  41
BRANCH  17  43
HETATM   43  O   UNK N   1      35.002  16.578   8.574  0.00  0.00    -0.355 OA
HETATM   44  C   UNK N   1      34.950  17.123   9.838  0.00  0.00     0.210 C 
ENDBRANCH  17  43
TORSDOF 9
ENDMDL
MODEL 9
REMARK VINA RESULT:      -7.1      3.949      8.323
REMARK  9 active torsions:
REMARK  status: ('A' for Active; 'I' for Inactive)
REMARK    1  A    between atoms: C_12  and  O_1 
REMARK    2  A    between atoms: C_18  and  O_1 
REMARK    3  A    between atoms: C_13  and  O_3 
REMARK    4  A    between atoms: C_21  and  O_4 
REMARK    5  A    between atoms: O_5  and  C_23 
REMARK    6  A    between atoms: O_6  and  C_25 
REMARK    7  A    between atoms: O_10  and  C_34 
REMARK    8  A    between atoms: C_20  and  N_11 
REMARK    9  A    between atoms: C_13  and  C_24 
ROOT
HETATM    1  O   UNK N   1      25.664  12.749   1.984  0.00  0.00    -0.286 OA
HETATM    2  O   UNK N   1      30.583  14.708   2.633  0.00  0.00    -0.286 OA
HETATM    3  C   UNK N   1      24.871  17.670   3.672  0.00  0.00     0.164 C 
HETATM    4  C   UNK N   1      26.448  18.973   5.200  0.00  0.00     0.124 C 
HETATM    5  C   UNK N   1      25.110  18.199   5.082  0.00  0.00     0.083 C 
HETATM    6  C   UNK N   1      27.420  18.671   4.027  0.00  0.00     0.088 C 
HETATM    7  C   UNK N   1      26.010  16.738   3.341  0.00  0.00     0.014 A 
HETATM    8  C   UNK N   1      27.297  17.250   3.534  0.00  0.00    -0.009 A 
HETATM    9  C   UNK N   1      25.838  15.418   2.891  0.00  0.00     0.090 A 
HETATM   10  C   UNK N   1      28.423  16.464   3.267  0.00  0.00     0.088 A 
HETATM   11  C   UNK N   1      26.962  14.615   2.600  0.00  0.00     0.066 A 
HETATM   12  C   UNK N   1      28.267  15.140   2.785  0.00  0.00     0.066 A 
HETATM   13  C   UNK N   1      26.787  13.228   2.077  0.00  0.00     0.200 A 
HETATM   14  C   UNK N   1      29.448  14.291   2.446  0.00  0.00     0.197 A 
HETATM   15  C   UNK N   1      27.962  12.433   1.637  0.00  0.00     0.062 A 
HETATM   16  C   UNK N   1      29.259  12.957   1.831  0.00  0.00     0.032 A 
HETATM   17  C   UNK N   1      27.805  11.171   1.008  0.00  0.00     0.083 A 
HETATM   18  C   UNK N   1      30.375  12.220   1.415  0.00  0.00     0.017 A 
HETATM   19  C   UNK N   1      28.943  10.460   0.594  0.00  0.00     0.038 A 
HETATM   20  C   UNK N   1      30.219  10.979   0.801  0.00  0.00     0.004 A 
ENDROOT
BRANCH   3  21
HETATM   21  O   UNK N   1      23.616  17.067   3.604  0.00  0.00    -0.351 OA
BRANCH  21  22
HETATM   22  C   UNK N   1      22.767  17.829   4.414  0.00  0.00     0.263 C 
HETATM   23  O   UNK N   1      21.995  16.937   5.220  0.00  0.00    -0.354 OA
HETATM   24  C   UNK N   1      20.601  17.108   5.085  0.00  0.00     0.151 C 
HETATM   25  C   UNK N   1      20.128  17.002   3.624  0.00  0.00     0.169 C 
HETATM   26  C   UNK N   1      19.896  16.065   5.930  0.00  0.00     0.042 C 
HETATM   27  C   UNK N   1      21.039  17.822   2.692  0.00  0.00     0.110 C 
HETATM   28  C   UNK N   1      21.951  18.743   3.485  0.00  0.00     0.088 C 
BRANCH  25  29
HETATM   29  O   UNK N   1      18.801  17.430   3.546  0.00  0.00    -0.391 OA
HETATM   30  H   UNK N   1      18.491  17.936   2.778  0.00  0.00     0.210 HD
ENDBRANCH  25  29
BRANCH  27  31
HETATM   31  N   UNK N   1      20.306  18.546   1.666  0.00  0.00    -0.423 N 
HETATM   32  H   UNK N   1      19.677  18.055   1.032  0.00  0.00     0.150 HD
HETATM   33  H   UNK N   1      20.422  19.556   1.580  0.00  0.00     0.150 HD
ENDBRANCH  27  31
ENDBRANCH  21  22
ENDBRANCH   3  21
BRANCH   4  34
HETATM   34  O   UNK N   1      27.052  18.586   6.397  0.00  0.00    -0.382 OA
HETATM   35  H   UNK N   1      27.799  18.609   7.015  0.00  0.00     0.211 HD
ENDBRANCH   4  34
BRANCH   4  36
HETATM   36  C   UNK N   1      26.186  20.464   5.247  0.00  0.00     0.157 C 
HETATM   37  O   UNK N   1      25.405  20.987   4.465  0.00  0.00    -0.295 OA
HETATM   38  C   UNK N   1      26.874  21.318   6.259  0.00  0.00     0.094 C 
ENDBRANCH   4  36
BRANCH   9  39
HETATM   39  O   UNK N   1      24.596  14.925   2.717  0.00  0.00    -0.359 OA
HETATM   40  H   UNK N   1      24.387  14.431   1.949  0.00  0.00     0.217 HD
ENDBRANCH   9  39
BRANCH  10  41
HETATM   41  O   UNK N   1      29.650  16.989   3.455  0.00  0.00    -0.359 OA
HETATM   42  H   UNK N   1      30.021  17.564   2.816  0.00  0.00     0.217 HD
ENDBRANCH  10  41
BRANCH  17  43
HETATM   43  O   UNK N   1      26.563  10.671   0.790  0.00  0.00    -0.355 OA
HETATM   44  C   UNK N   1      26.204   9.370   1.064  0.00  0.00     0.210 C 
ENDBRANCH  17  43
TORSDOF 9
ENDMDL
