MODEL 1
REMARK VINA RESULT:      -6.6      0.000      0.000
REMARK  7 active torsions:
REMARK  status: ('A' for Active; 'I' for Inactive)
REMARK    1  A    between atoms: S_2  and  N_9 
REMARK    2  A    between atoms: S_2  and  C_11 
REMARK    3  A    between atoms: O_6  and  C_18 
REMARK    4  A    between atoms: N_8  and  C_10 
REMARK    5  A    between atoms: N_8  and  C_14 
REMARK    6  A    between atoms: C_12  and  C_18 
REMARK    7  A    between atoms: C_14  and  C_17 
ROOT
HETATM    1 Cl   UNK N   1      32.994  17.169   4.995  0.00  0.00    -0.083 Cl
HETATM    2  C   UNK N   1      29.498  17.222   7.008  0.00  0.00     0.047 A 
HETATM    3  C   UNK N   1      32.229  17.356   7.653  0.00  0.00     0.102 A 
HETATM    4  C   UNK N   1      29.899  17.364   8.355  0.00  0.00     0.065 A 
HETATM    5  C   UNK N   1      31.262  17.423   8.656  0.00  0.00     0.047 A 
HETATM    6  C   UNK N   1      30.469  17.191   5.994  0.00  0.00     0.055 A 
HETATM    7  C   UNK N   1      31.830  17.259   6.307  0.00  0.00     0.059 A 
ENDROOT
BRANCH   2   8
HETATM    8  N   UNK N   1      28.125  17.082   6.695  0.00  0.00    -0.383 N 
HETATM    9  H   UNK N   1      27.504  16.886   7.433  0.00  0.00     0.160 HD
BRANCH   8  10
HETATM   10  C   UNK N   1      27.577  17.210   5.372  0.00  0.00     0.184 C 
BRANCH  10  11
HETATM   11  C   UNK N   1      27.230  18.643   5.151  0.00  0.00     0.070 A 
HETATM   12  O   UNK N   1      26.961  19.491   6.115  0.00  0.00    -0.325 OA
HETATM   13  C   UNK N   1      26.683  20.661   5.597  0.00  0.00     0.142 A 
HETATM   14  C   UNK N   1      26.773  20.572   4.218  0.00  0.00     0.027 A 
HETATM   15  C   UNK N   1      27.126  19.266   3.931  0.00  0.00     0.036 A 
ENDBRANCH  10  11
ENDBRANCH   8  10
ENDBRANCH   2   8
BRANCH   4  16
HETATM   16  C   UNK N   1      28.923  17.437   9.477  0.00  0.00     0.178 C 
HETATM   17  O   UNK N   1      29.114  16.840  10.521  0.00  0.00    -0.646 OA
BRANCH  16  18
HETATM   18  O   UNK N   1      27.796  18.164   9.334  0.00  0.00    -0.773 OA
HETATM   19  H   UNK N   1      27.671  18.696   8.571  0.00  0.00     0.167 HD
ENDBRANCH  16  18
ENDBRANCH   4  16
BRANCH   3  20
HETATM   20  S   UNK N   1      33.953  17.294   8.155  0.00  0.00     0.258 S 
HETATM   21  O   UNK N   1      34.722  18.485   7.565  0.00  0.00    -0.201 OA
HETATM   22  O   UNK N   1      34.711  16.109   7.537  0.00  0.00    -0.201 OA
BRANCH  20  23
HETATM   23  N   UNK N   1      34.394  17.284   9.863  0.00  0.00    -0.324 N 
HETATM   24  H   UNK N   1      34.637  16.472  10.431  0.00  0.00     0.169 HD
HETATM   25  H   UNK N   1      34.409  18.188  10.334  0.00  0.00     0.169 HD
ENDBRANCH  20  23
ENDBRANCH   3  20
TORSDOF 7
ENDMDL
MODEL 2
REMARK VINA RESULT:      -6.4      3.152      6.532
REMARK  7 active torsions:
REMARK  status: ('A' for Active; 'I' for Inactive)
REMARK    1  A    between atoms: S_2  and  N_9 
REMARK    2  A    between atoms: S_2  and  C_11 
REMARK    3  A    between atoms: O_6  and  C_18 
REMARK    4  A    between atoms: N_8  and  C_10 
REMARK    5  A    between atoms: N_8  and  C_14 
REMARK    6  A    between atoms: C_12  and  C_18 
REMARK    7  A    between atoms: C_14  and  C_17 
ROOT
HETATM    1 Cl   UNK N   1      28.293  16.766   6.160  0.00  0.00    -0.083 Cl
HETATM    2  C   UNK N   1      32.309  17.112   6.339  0.00  0.00     0.047 A 
HETATM    3  C   UNK N   1      30.137  17.606   8.052  0.00  0.00     0.102 A 
HETATM    4  C   UNK N   1      32.536  17.596   7.647  0.00  0.00     0.065 A 
HETATM    5  C   UNK N   1      31.443  17.841   8.481  0.00  0.00     0.047 A 
HETATM    6  C   UNK N   1      30.997  16.841   5.918  0.00  0.00     0.055 A 
HETATM    7  C   UNK N   1      29.911  17.083   6.765  0.00  0.00     0.059 A 
ENDROOT
BRANCH   2   8
HETATM    8  N   UNK N   1      33.400  16.933   5.457  0.00  0.00    -0.383 N 
HETATM    9  H   UNK N   1      33.898  17.734   5.174  0.00  0.00     0.160 HD
BRANCH   8  10
HETATM   10  C   UNK N   1      33.831  15.660   4.947  0.00  0.00     0.184 C 
BRANCH  10  11
HETATM   11  C   UNK N   1      34.466  14.905   6.064  0.00  0.00     0.070 A 
HETATM   12  O   UNK N   1      33.799  14.203   6.948  0.00  0.00    -0.325 OA
HETATM   13  C   UNK N   1      34.639  13.673   7.803  0.00  0.00     0.142 A 
HETATM   14  C   UNK N   1      35.925  14.053   7.459  0.00  0.00     0.027 A 
HETATM   15  C   UNK N   1      35.812  14.850   6.335  0.00  0.00     0.036 A 
ENDBRANCH  10  11
ENDBRANCH   8  10
ENDBRANCH   2   8
BRANCH   4  16
HETATM   16  C   UNK N   1      33.902  17.873   8.170  0.00  0.00     0.178 C 
HETATM   17  O   UNK N   1      34.751  18.400   7.472  0.00  0.00    -0.646 OA
BRANCH  16  18
HETATM   18  O   UNK N   1      34.217  17.523   9.434  0.00  0.00    -0.773 OA
HETATM   19  H   UNK N   1      34.622  18.143  10.009  0.00  0.00     0.167 HD
ENDBRANCH  16  18
ENDBRANCH   4  16
BRANCH   3  20
HETATM   20  S   UNK N   1      28.797  18.090   9.146  0.00  0.00     0.258 S 
HETATM   21  O   UNK N   1      29.355  18.786  10.396  0.00  0.00    -0.201 OA
HETATM   22  O   UNK N   1      28.071  16.888   9.768  0.00  0.00    -0.201 OA
BRANCH  20  23
HETATM   23  N   UNK N   1      27.513  19.160   8.579  0.00  0.00    -0.324 N 
HETATM   24  H   UNK N   1      27.480  19.666   7.695  0.00  0.00     0.169 HD
HETATM   25  H   UNK N   1      26.718  19.287   9.205  0.00  0.00     0.169 HD
ENDBRANCH  20  23
ENDBRANCH   3  20
TORSDOF 7
ENDMDL
MODEL 3
REMARK VINA RESULT:      -6.2      3.359      6.256
REMARK  7 active torsions:
REMARK  status: ('A' for Active; 'I' for Inactive)
REMARK    1  A    between atoms: S_2  and  N_9 
REMARK    2  A    between atoms: S_2  and  C_11 
REMARK    3  A    between atoms: O_6  and  C_18 
REMARK    4  A    between atoms: N_8  and  C_10 
REMARK    5  A    between atoms: N_8  and  C_14 
REMARK    6  A    between atoms: C_12  and  C_18 
REMARK    7  A    between atoms: C_14  and  C_17 
ROOT
HETATM    1 Cl   UNK N   1      28.194  16.729   6.416  0.00  0.00    -0.083 Cl
HETATM    2  C   UNK N   1      32.188  17.141   6.023  0.00  0.00     0.047 A 
HETATM    3  C   UNK N   1      30.285  17.516   8.057  0.00  0.00     0.102 A 
HETATM    4  C   UNK N   1      32.599  17.569   7.306  0.00  0.00     0.065 A 
HETATM    5  C   UNK N   1      31.638  17.756   8.301  0.00  0.00     0.047 A 
HETATM    6  C   UNK N   1      30.832  16.865   5.786  0.00  0.00     0.055 A 
HETATM    7  C   UNK N   1      29.879  17.048   6.792  0.00  0.00     0.059 A 
ENDROOT
BRANCH   2   8
HETATM    8  N   UNK N   1      33.140  17.023   4.984  0.00  0.00    -0.383 N 
HETATM    9  H   UNK N   1      34.085  17.192   5.204  0.00  0.00     0.160 HD
BRANCH   8  10
HETATM   10  C   UNK N   1      32.821  16.670   3.627  0.00  0.00     0.184 C 
BRANCH  10  11
HETATM   11  C   UNK N   1      33.638  15.481   3.253  0.00  0.00     0.070 A 
HETATM   12  O   UNK N   1      33.908  15.134   2.017  0.00  0.00    -0.325 OA
HETATM   13  C   UNK N   1      34.632  14.042   2.022  0.00  0.00     0.142 A 
HETATM   14  C   UNK N   1      34.844  13.653   3.334  0.00  0.00     0.027 A 
HETATM   15  C   UNK N   1      34.200  14.584   4.129  0.00  0.00     0.036 A 
ENDBRANCH  10  11
ENDBRANCH   8  10
ENDBRANCH   2   8
BRANCH   4  16
HETATM   16  C   UNK N   1      34.024  17.847   7.636  0.00  0.00     0.178 C 
HETATM   17  O   UNK N   1      34.899  17.034   7.396  0.00  0.00    -0.646 OA
BRANCH  16  18
HETATM   18  O   UNK N   1      34.357  19.014   8.226  0.00  0.00    -0.773 OA
HETATM   19  H   UNK N   1      34.878  19.643   7.766  0.00  0.00     0.167 HD
ENDBRANCH  16  18
ENDBRANCH   4  16
BRANCH   3  20
HETATM   20  S   UNK N   1      29.114  17.925   9.356  0.00  0.00     0.258 S 
HETATM   21  O   UNK N   1      29.755  18.891  10.364  0.00  0.00    -0.201 OA
HETATM   22  O   UNK N   1      28.781  16.726  10.256  0.00  0.00    -0.201 OA
BRANCH  20  23
HETATM   23  N   UNK N   1      27.557  18.658   8.967  0.00  0.00    -0.324 N 
HETATM   24  H   UNK N   1      26.969  18.460   8.158  0.00  0.00     0.169 HD
HETATM   25  H   UNK N   1      27.207  19.355   9.624  0.00  0.00     0.169 HD
ENDBRANCH  20  23
ENDBRANCH   3  20
TORSDOF 7
ENDMDL
MODEL 4
REMARK VINA RESULT:      -6.1      2.211      2.642
REMARK  7 active torsions:
REMARK  status: ('A' for Active; 'I' for Inactive)
REMARK    1  A    between atoms: S_2  and  N_9 
REMARK    2  A    between atoms: S_2  and  C_11 
REMARK    3  A    between atoms: O_6  and  C_18 
REMARK    4  A    between atoms: N_8  and  C_10 
REMARK    5  A    between atoms: N_8  and  C_14 
REMARK    6  A    between atoms: C_12  and  C_18 
REMARK    7  A    between atoms: C_14  and  C_17 
ROOT
HETATM    1 Cl   UNK N   1      30.628  16.510   3.617  0.00  0.00    -0.083 Cl
HETATM    2  C   UNK N   1      28.512  18.315   6.539  0.00  0.00     0.047 A 
HETATM    3  C   UNK N   1      30.695  16.553   6.388  0.00  0.00     0.102 A 
HETATM    4  C   UNK N   1      29.147  17.875   7.722  0.00  0.00     0.065 A 
HETATM    5  C   UNK N   1      30.226  16.994   7.626  0.00  0.00     0.047 A 
HETATM    6  C   UNK N   1      29.004  17.901   5.291  0.00  0.00     0.055 A 
HETATM    7  C   UNK N   1      30.091  17.025   5.207  0.00  0.00     0.059 A 
ENDROOT
BRANCH   2   8
HETATM    8  N   UNK N   1      27.369  19.145   6.623  0.00  0.00    -0.383 N 
HETATM    9  H   UNK N   1      26.619  18.838   7.182  0.00  0.00     0.160 HD
BRANCH   8  10
HETATM   10  C   UNK N   1      27.230  20.407   5.948  0.00  0.00     0.184 C 
BRANCH  10  11
HETATM   11  C   UNK N   1      26.281  20.223   4.813  0.00  0.00     0.070 A 
HETATM   12  O   UNK N   1      25.076  19.721   4.937  0.00  0.00    -0.325 OA
HETATM   13  C   UNK N   1      24.501  19.680   3.761  0.00  0.00     0.142 A 
HETATM   14  C   UNK N   1      25.380  20.180   2.816  0.00  0.00     0.027 A 
HETATM   15  C   UNK N   1      26.532  20.531   3.498  0.00  0.00     0.036 A 
ENDBRANCH  10  11
ENDBRANCH   8  10
ENDBRANCH   2   8
BRANCH   4  16
HETATM   16  C   UNK N   1      28.698  18.301   9.076  0.00  0.00     0.178 C 
HETATM   17  O   UNK N   1      29.495  18.686   9.913  0.00  0.00    -0.646 OA
BRANCH  16  18
HETATM   18  O   UNK N   1      27.388  18.249   9.392  0.00  0.00    -0.773 OA
HETATM   19  H   UNK N   1      26.997  18.935   9.898  0.00  0.00     0.167 HD
ENDBRANCH  16  18
ENDBRANCH   4  16
BRANCH   3  20
HETATM   20  S   UNK N   1      31.992  15.310   6.378  0.00  0.00     0.258 S 
HETATM   21  O   UNK N   1      31.390  13.915   6.157  0.00  0.00    -0.201 OA
HETATM   22  O   UNK N   1      32.662  15.137   7.750  0.00  0.00    -0.201 OA
BRANCH  20  23
HETATM   23  N   UNK N   1      33.323  15.406   5.224  0.00  0.00    -0.324 N 
HETATM   24  H   UNK N   1      33.254  15.435   4.207  0.00  0.00     0.169 HD
HETATM   25  H   UNK N   1      34.263  15.436   5.617  0.00  0.00     0.169 HD
ENDBRANCH  20  23
ENDBRANCH   3  20
TORSDOF 7
ENDMDL
MODEL 5
REMARK VINA RESULT:      -6.1      8.692      9.334
REMARK  7 active torsions:
REMARK  status: ('A' for Active; 'I' for Inactive)
REMARK    1  A    between atoms: S_2  and  N_9 
REMARK    2  A    between atoms: S_2  and  C_11 
REMARK    3  A    between atoms: O_6  and  C_18 
REMARK    4  A    between atoms: N_8  and  C_10 
REMARK    5  A    between atoms: N_8  and  C_14 
REMARK    6  A    between atoms: C_12  and  C_18 
REMARK    7  A    between atoms: C_14  and  C_17 
ROOT
HETATM    1 Cl   UNK N   1      24.543  13.249   7.207  0.00  0.00    -0.083 Cl
HETATM    2  C   UNK N   1      21.550  15.954   7.130  0.00  0.00     0.047 A 
HETATM    3  C   UNK N   1      22.450  13.952   8.885  0.00  0.00     0.102 A 
HETATM    4  C   UNK N   1      20.883  15.737   8.357  0.00  0.00     0.065 A 
HETATM    5  C   UNK N   1      21.342  14.734   9.212  0.00  0.00     0.047 A 
HETATM    6  C   UNK N   1      22.686  15.193   6.814  0.00  0.00     0.055 A 
HETATM    7  C   UNK N   1      23.142  14.196   7.683  0.00  0.00     0.059 A 
ENDROOT
BRANCH   2   8
HETATM    8  N   UNK N   1      21.049  16.913   6.218  0.00  0.00    -0.383 N 
HETATM    9  H   UNK N   1      20.200  16.714   5.762  0.00  0.00     0.160 HD
BRANCH   8  10
HETATM   10  C   UNK N   1      21.698  18.160   5.915  0.00  0.00     0.184 C 
BRANCH  10  11
HETATM   11  C   UNK N   1      21.139  18.672   4.631  0.00  0.00     0.070 A 
HETATM   12  O   UNK N   1      20.861  19.933   4.402  0.00  0.00    -0.325 OA
HETATM   13  C   UNK N   1      20.375  20.057   3.192  0.00  0.00     0.142 A 
HETATM   14  C   UNK N   1      20.330  18.806   2.599  0.00  0.00     0.027 A 
HETATM   15  C   UNK N   1      20.824  17.912   3.531  0.00  0.00     0.036 A 
ENDBRANCH  10  11
ENDBRANCH   8  10
ENDBRANCH   2   8
BRANCH   4  16
HETATM   16  C   UNK N   1      19.692  16.530   8.769  0.00  0.00     0.178 C 
HETATM   17  O   UNK N   1      18.619  15.994   8.982  0.00  0.00    -0.646 OA
BRANCH  16  18
HETATM   18  O   UNK N   1      19.794  17.869   8.899  0.00  0.00    -0.773 OA
HETATM   19  H   UNK N   1      19.496  18.292   9.681  0.00  0.00     0.167 HD
ENDBRANCH  16  18
ENDBRANCH   4  16
BRANCH   3  20
HETATM   20  S   UNK N   1      22.872  12.595   9.982  0.00  0.00     0.258 S 
HETATM   21  O   UNK N   1      22.897  11.271   9.204  0.00  0.00    -0.201 OA
HETATM   22  O   UNK N   1      21.781  12.311  11.025  0.00  0.00    -0.201 OA
BRANCH  20  23
HETATM   23  N   UNK N   1      24.385  12.605  10.889  0.00  0.00    -0.324 N 
HETATM   24  H   UNK N   1      25.075  11.856  10.942  0.00  0.00     0.169 HD
HETATM   25  H   UNK N   1      24.593  13.453  11.416  0.00  0.00     0.169 HD
ENDBRANCH  20  23
ENDBRANCH   3  20
TORSDOF 7
ENDMDL
MODEL 6
REMARK VINA RESULT:      -6.1     12.053     14.659
REMARK  7 active torsions:
REMARK  status: ('A' for Active; 'I' for Inactive)
REMARK    1  A    between atoms: S_2  and  N_9 
REMARK    2  A    between atoms: S_2  and  C_11 
REMARK    3  A    between atoms: O_6  and  C_18 
REMARK    4  A    between atoms: N_8  and  C_10 
REMARK    5  A    between atoms: N_8  and  C_14 
REMARK    6  A    between atoms: C_12  and  C_18 
REMARK    7  A    between atoms: C_14  and  C_17 
ROOT
HETATM    1 Cl   UNK N   1      35.091   9.833  14.127  0.00  0.00    -0.083 Cl
HETATM    2  C   UNK N   1      34.955  10.421  18.117  0.00  0.00     0.047 A 
HETATM    3  C   UNK N   1      35.507  11.973  15.840  0.00  0.00     0.102 A 
HETATM    4  C   UNK N   1      35.267  11.792  18.255  0.00  0.00     0.065 A 
HETATM    5  C   UNK N   1      35.544  12.545  17.112  0.00  0.00     0.047 A 
HETATM    6  C   UNK N   1      34.883   9.851  16.835  0.00  0.00     0.055 A 
HETATM    7  C   UNK N   1      35.154  10.617  15.698  0.00  0.00     0.059 A 
ENDROOT
BRANCH   2   8
HETATM    8  N   UNK N   1      34.749   9.628  19.270  0.00  0.00    -0.383 N 
HETATM    9  H   UNK N   1      35.496   9.537  19.905  0.00  0.00     0.160 HD
BRANCH   8  10
HETATM   10  C   UNK N   1      33.521   8.946  19.577  0.00  0.00     0.184 C 
BRANCH  10  11
HETATM   11  C   UNK N   1      33.115   9.323  20.961  0.00  0.00     0.070 A 
HETATM   12  O   UNK N   1      33.333  10.501  21.495  0.00  0.00    -0.325 OA
HETATM   13  C   UNK N   1      32.872  10.512  22.721  0.00  0.00     0.142 A 
HETATM   14  C   UNK N   1      32.326   9.272  23.004  0.00  0.00     0.027 A 
HETATM   15  C   UNK N   1      32.485   8.503  21.865  0.00  0.00     0.036 A 
ENDBRANCH  10  11
ENDBRANCH   8  10
ENDBRANCH   2   8
BRANCH   4  16
HETATM   16  C   UNK N   1      35.327  12.468  19.580  0.00  0.00     0.178 C 
HETATM   17  O   UNK N   1      34.865  13.583  19.743  0.00  0.00    -0.646 OA
BRANCH  16  18
HETATM   18  O   UNK N   1      35.918  11.844  20.621  0.00  0.00    -0.773 OA
HETATM   19  H   UNK N   1      36.247  12.342  21.344  0.00  0.00     0.167 HD
ENDBRANCH  16  18
ENDBRANCH   4  16
BRANCH   3  20
HETATM   20  S   UNK N   1      36.021  12.988  14.450  0.00  0.00     0.258 S 
HETATM   21  O   UNK N   1      36.518  14.354  14.945  0.00  0.00    -0.201 OA
HETATM   22  O   UNK N   1      34.847  13.402  13.549  0.00  0.00    -0.201 OA
BRANCH  20  23
HETATM   23  N   UNK N   1      37.278  12.432  13.344  0.00  0.00    -0.324 N 
HETATM   24  H   UNK N   1      37.280  11.570  12.801  0.00  0.00     0.169 HD
HETATM   25  H   UNK N   1      38.090  13.040  13.237  0.00  0.00     0.169 HD
ENDBRANCH  20  23
ENDBRANCH   3  20
TORSDOF 7
ENDMDL
MODEL 7
REMARK VINA RESULT:      -5.9     13.586     15.661
REMARK  7 active torsions:
REMARK  status: ('A' for Active; 'I' for Inactive)
REMARK    1  A    between atoms: S_2  and  N_9 
REMARK    2  A    between atoms: S_2  and  C_11 
REMARK    3  A    between atoms: O_6  and  C_18 
REMARK    4  A    between atoms: N_8  and  C_10 
REMARK    5  A    between atoms: N_8  and  C_14 
REMARK    6  A    between atoms: C_12  and  C_18 
REMARK    7  A    between atoms: C_14  and  C_17 
ROOT
HETATM    1 Cl   UNK N   1      27.848  23.364  -9.177  0.00  0.00    -0.083 Cl
HETATM    2  C   UNK N   1      28.145  24.994  -5.498  0.00  0.00     0.047 A 
HETATM    3  C   UNK N   1      26.441  23.174  -6.796  0.00  0.00     0.102 A 
HETATM    4  C   UNK N   1      27.075  24.400  -4.791  0.00  0.00     0.065 A 
HETATM    5  C   UNK N   1      26.236  23.503  -5.456  0.00  0.00     0.047 A 
HETATM    6  C   UNK N   1      28.374  24.637  -6.837  0.00  0.00     0.055 A 
HETATM    7  C   UNK N   1      27.532  23.732  -7.489  0.00  0.00     0.059 A 
ENDROOT
BRANCH   2   8
HETATM    8  N   UNK N   1      28.955  25.962  -4.862  0.00  0.00    -0.383 N 
HETATM    9  H   UNK N   1      29.451  25.689  -4.056  0.00  0.00     0.160 HD
BRANCH   8  10
HETATM   10  C   UNK N   1      29.105  27.319  -5.314  0.00  0.00     0.184 C 
BRANCH  10  11
HETATM   11  C   UNK N   1      28.094  28.157  -4.608  0.00  0.00     0.070 A 
HETATM   12  O   UNK N   1      28.218  28.570  -3.370  0.00  0.00    -0.325 OA
HETATM   13  C   UNK N   1      27.161  29.271  -3.039  0.00  0.00     0.142 A 
HETATM   14  C   UNK N   1      26.298  29.315  -4.122  0.00  0.00     0.027 A 
HETATM   15  C   UNK N   1      26.903  28.593  -5.135  0.00  0.00     0.036 A 
ENDBRANCH  10  11
ENDBRANCH   8  10
ENDBRANCH   2   8
BRANCH   4  16
HETATM   16  C   UNK N   1      26.795  24.706  -3.362  0.00  0.00     0.178 C 
HETATM   17  O   UNK N   1      26.325  25.779  -3.026  0.00  0.00    -0.646 OA
BRANCH  16  18
HETATM   18  O   UNK N   1      27.078  23.788  -2.414  0.00  0.00    -0.773 OA
HETATM   19  H   UNK N   1      26.778  22.905  -2.508  0.00  0.00     0.167 HD
ENDBRANCH  16  18
ENDBRANCH   4  16
BRANCH   3  20
HETATM   20  S   UNK N   1      25.223  22.126  -7.597  0.00  0.00     0.258 S 
HETATM   21  O   UNK N   1      24.382  22.947  -8.585  0.00  0.00    -0.201 OA
HETATM   22  O   UNK N   1      24.142  21.620  -6.629  0.00  0.00    -0.201 OA
BRANCH  20  23
HETATM   23  N   UNK N   1      25.722  20.704  -8.515  0.00  0.00    -0.324 N 
HETATM   24  H   UNK N   1      26.621  20.550  -8.969  0.00  0.00     0.169 HD
HETATM   25  H   UNK N   1      25.035  19.954  -8.600  0.00  0.00     0.169 HD
ENDBRANCH  20  23
ENDBRANCH   3  20
TORSDOF 7
ENDMDL
MODEL 8
REMARK VINA RESULT:      -5.8      3.896      5.535
REMARK  7 active torsions:
REMARK  status: ('A' for Active; 'I' for Inactive)
REMARK    1  A    between atoms: S_2  and  N_9 
REMARK    2  A    between atoms: S_2  and  C_11 
REMARK    3  A    between atoms: O_6  and  C_18 
REMARK    4  A    between atoms: N_8  and  C_10 
REMARK    5  A    between atoms: N_8  and  C_14 
REMARK    6  A    between atoms: C_12  and  C_18 
REMARK    7  A    between atoms: C_14  and  C_17 
ROOT
HETATM    1 Cl   UNK N   1      36.280  12.527   8.881  0.00  0.00    -0.083 Cl
HETATM    2  C   UNK N   1      34.788  15.918   7.283  0.00  0.00     0.047 A 
HETATM    3  C   UNK N   1      35.576  15.034   9.832  0.00  0.00     0.102 A 
HETATM    4  C   UNK N   1      34.712  16.794   8.389  0.00  0.00     0.065 A 
HETATM    5  C   UNK N   1      35.102  16.333   9.648  0.00  0.00     0.047 A 
HETATM    6  C   UNK N   1      35.298  14.622   7.458  0.00  0.00     0.055 A 
HETATM    7  C   UNK N   1      35.694  14.175   8.722  0.00  0.00     0.059 A 
ENDROOT
BRANCH   2   8
HETATM    8  N   UNK N   1      34.324  16.344   6.016  0.00  0.00    -0.383 N 
HETATM    9  H   UNK N   1      34.721  17.159   5.632  0.00  0.00     0.160 HD
BRANCH   8  10
HETATM   10  C   UNK N   1      33.312  15.666   5.253  0.00  0.00     0.184 C 
BRANCH  10  11
HETATM   11  C   UNK N   1      31.985  16.222   5.645  0.00  0.00     0.070 A 
HETATM   12  O   UNK N   1      31.299  15.820   6.687  0.00  0.00    -0.325 OA
HETATM   13  C   UNK N   1      30.176  16.491   6.751  0.00  0.00     0.142 A 
HETATM   14  C   UNK N   1      30.125  17.379   5.690  0.00  0.00     0.027 A 
HETATM   15  C   UNK N   1      31.295  17.203   4.975  0.00  0.00     0.036 A 
ENDBRANCH  10  11
ENDBRANCH   8  10
ENDBRANCH   2   8
BRANCH   4  16
HETATM   16  C   UNK N   1      34.213  18.191   8.269  0.00  0.00     0.178 C 
HETATM   17  O   UNK N   1      33.037  18.426   8.053  0.00  0.00    -0.646 OA
BRANCH  16  18
HETATM   18  O   UNK N   1      35.077  19.220   8.386  0.00  0.00    -0.773 OA
HETATM   19  H   UNK N   1      34.902  19.918   8.988  0.00  0.00     0.167 HD
ENDBRANCH  16  18
ENDBRANCH   4  16
BRANCH   3  20
HETATM   20  S   UNK N   1      35.913  14.494  11.511  0.00  0.00     0.258 S 
HETATM   21  O   UNK N   1      34.738  13.666  12.049  0.00  0.00    -0.201 OA
HETATM   22  O   UNK N   1      35.948  15.656  12.515  0.00  0.00    -0.201 OA
BRANCH  20  23
HETATM   23  N   UNK N   1      37.342  13.526  11.876  0.00  0.00    -0.324 N 
HETATM   24  H   UNK N   1      37.606  12.636  11.454  0.00  0.00     0.169 HD
HETATM   25  H   UNK N   1      37.973  13.897  12.587  0.00  0.00     0.169 HD
ENDBRANCH  20  23
ENDBRANCH   3  20
TORSDOF 7
ENDMDL
MODEL 9
REMARK VINA RESULT:      -5.8     12.171     13.754
REMARK  7 active torsions:
REMARK  status: ('A' for Active; 'I' for Inactive)
REMARK    1  A    between atoms: S_2  and  N_9 
REMARK    2  A    between atoms: S_2  and  C_11 
REMARK    3  A    between atoms: O_6  and  C_18 
REMARK    4  A    between atoms: N_8  and  C_10 
REMARK    5  A    between atoms: N_8  and  C_14 
REMARK    6  A    between atoms: C_12  and  C_18 
REMARK    7  A    between atoms: C_14  and  C_17 
ROOT
HETATM    1 Cl   UNK N   1      31.025  20.555  -6.777  0.00  0.00    -0.083 Cl
HETATM    2  C   UNK N   1      27.973  23.028  -5.855  0.00  0.00     0.047 A 
HETATM    3  C   UNK N   1      30.400  22.248  -4.672  0.00  0.00     0.102 A 
HETATM    4  C   UNK N   1      28.365  23.581  -4.615  0.00  0.00     0.065 A 
HETATM    5  C   UNK N   1      29.571  23.176  -4.041  0.00  0.00     0.047 A 
HETATM    6  C   UNK N   1      28.822  22.120  -6.509  0.00  0.00     0.055 A 
HETATM    7  C   UNK N   1      30.031  21.728  -5.928  0.00  0.00     0.059 A 
ENDROOT
BRANCH   2   8
HETATM    8  N   UNK N   1      26.718  23.369  -6.411  0.00  0.00    -0.383 N 
HETATM    9  H   UNK N   1      25.928  22.868  -6.104  0.00  0.00     0.160 HD
BRANCH   8  10
HETATM   10  C   UNK N   1      26.519  24.400  -7.393  0.00  0.00     0.184 C 
BRANCH  10  11
HETATM   11  C   UNK N   1      26.066  25.632  -6.687  0.00  0.00     0.070 A 
HETATM   12  O   UNK N   1      24.992  25.696  -5.937  0.00  0.00    -0.325 OA
HETATM   13  C   UNK N   1      24.861  26.913  -5.471  0.00  0.00     0.142 A 
HETATM   14  C   UNK N   1      25.907  27.687  -5.944  0.00  0.00     0.027 A 
HETATM   15  C   UNK N   1      26.685  26.857  -6.731  0.00  0.00     0.036 A 
ENDBRANCH  10  11
ENDBRANCH   8  10
ENDBRANCH   2   8
BRANCH   4  16
HETATM   16  C   UNK N   1      27.530  24.574  -3.884  0.00  0.00     0.178 C 
HETATM   17  O   UNK N   1      27.931  25.705  -3.676  0.00  0.00    -0.646 OA
BRANCH  16  18
HETATM   18  O   UNK N   1      26.313  24.214  -3.428  0.00  0.00    -0.773 OA
HETATM   19  H   UNK N   1      26.231  23.543  -2.778  0.00  0.00     0.167 HD
ENDBRANCH  16  18
ENDBRANCH   4  16
BRANCH   3  20
HETATM   20  S   UNK N   1      31.856  21.685  -3.784  0.00  0.00     0.258 S 
HETATM   21  O   UNK N   1      31.752  22.062  -2.299  0.00  0.00    -0.201 OA
HETATM   22  O   UNK N   1      33.132  22.433  -4.197  0.00  0.00    -0.201 OA
BRANCH  20  23
HETATM   23  N   UNK N   1      32.303  19.978  -3.777  0.00  0.00    -0.324 N 
HETATM   24  H   UNK N   1      31.727  19.193  -3.476  0.00  0.00     0.169 HD
HETATM   25  H   UNK N   1      33.240  19.753  -4.111  0.00  0.00     0.169 HD
ENDBRANCH  20  23
ENDBRANCH   3  20
TORSDOF 7
ENDMDL
