REMARK  7 active torsions:
REMARK  status: ('A' for Active; 'I' for Inactive)
REMARK    1  A    between atoms: S_2  and  N_9 
REMARK    2  A    between atoms: S_2  and  C_11 
REMARK    3  A    between atoms: O_6  and  C_18 
REMARK    4  A    between atoms: N_8  and  C_10 
REMARK    5  A    between atoms: N_8  and  C_14 
REMARK    6  A    between atoms: C_12  and  C_18 
REMARK    7  A    between atoms: C_14  and  C_17 
ROOT
HETATM    1 Cl   UNK N   1       0.668   2.963   0.097  0.00  0.00    -0.083 Cl
HETATM    2  C   UNK N   1       3.028  -0.252  -0.514  0.00  0.00     0.047 A 
HETATM    3  C   UNK N   1       3.397   2.494  -0.046  0.00  0.00     0.102 A 
HETATM    4  C   UNK N   1       4.334   0.281  -0.428  0.00  0.00     0.065 A 
HETATM    5  C   UNK N   1       4.496   1.649  -0.201  0.00  0.00     0.047 A 
HETATM    6  C   UNK N   1       1.921   0.590  -0.323  0.00  0.00     0.055 A 
HETATM    7  C   UNK N   1       2.096   1.957  -0.088  0.00  0.00     0.059 A 
ENDROOT
BRANCH   2   8
HETATM    8  N   UNK N   1       2.847  -1.621  -0.821  0.00  0.00    -0.383 N 
HETATM    9  H   UNK N   1       3.640  -2.141  -1.086  0.00  0.00     0.160 HD
BRANCH   8  10
HETATM   10  C   UNK N   1       1.583  -2.304  -0.770  0.00  0.00     0.184 C 
BRANCH  10  11
HETATM   11  C   UNK N   1       1.789  -3.609  -0.079  0.00  0.00     0.070 A 
HETATM   12  O   UNK N   1       2.936  -4.003   0.419  0.00  0.00    -0.325 OA
HETATM   13  C   UNK N   1       2.793  -5.194   0.946  0.00  0.00     0.142 A 
HETATM   14  C   UNK N   1       1.480  -5.601   0.780  0.00  0.00     0.027 A 
HETATM   15  C   UNK N   1       0.832  -4.575   0.116  0.00  0.00     0.036 A 
ENDBRANCH  10  11
ENDBRANCH   8  10
ENDBRANCH   2   8
BRANCH   4  16
HETATM   16  C   UNK N   1       5.552  -0.560  -0.587  0.00  0.00     0.178 C 
HETATM   17  O   UNK N   1       5.470  -1.754  -0.815  0.00  0.00    -0.646 OA
BRANCH  16  18
HETATM   18  O   UNK N   1       6.772   0.002  -0.463  0.00  0.00    -0.773 OA
HETATM   19  H   UNK N   1       7.534  -0.538  -0.376  0.00  0.00     0.167 HD
ENDBRANCH  16  18
ENDBRANCH   4  16
BRANCH   3  20
HETATM   20  S   UNK N   1       3.709   4.257   0.096  0.00  0.00     0.258 S 
HETATM   21  O   UNK N   1       3.899   4.877  -1.296  0.00  0.00    -0.201 OA
HETATM   22  O   UNK N   1       5.061   4.572   0.754  0.00  0.00    -0.201 OA
BRANCH  20  23
HETATM   23  N   UNK N   1       2.548   5.316   0.898  0.00  0.00    -0.324 N 
HETATM   24  H   UNK N   1       2.743   6.203   1.361  0.00  0.00     0.169 HD
HETATM   25  H   UNK N   1       1.576   5.007   0.898  0.00  0.00     0.169 HD
ENDBRANCH  20  23
ENDBRANCH   3  20
TORSDOF 7
