MODEL 1
REMARK VINA RESULT:      -9.6      0.000      0.000
REMARK  4 active torsions:
REMARK  status: ('A' for Active; 'I' for Inactive)
REMARK    1  A    between atoms: C_17  and  N_8 
REMARK       I    between atoms: N_8  and  C_24 
REMARK    2  A    between atoms: C_14  and  C_20 
REMARK    3  A    between atoms: C_20  and  C_25 
REMARK    4  A    between atoms: C_22  and  C_24 
ROOT
HETATM    1  O   UNK N   1      24.494  18.918   4.879  0.00  0.00    -0.296 OA
HETATM    2  O   UNK N   1      23.057  17.387   5.824  0.00  0.00    -0.347 OA
HETATM    3  O   UNK N   1      20.566  16.129   2.455  0.00  0.00    -0.271 OA
HETATM    4  O   UNK N   1      25.750  16.282   3.004  0.00  0.00    -0.268 OA
HETATM    5  N   UNK N   1      21.146  17.965   3.604  0.00  0.00    -0.338 N 
HETATM    6  N   UNK N   1      23.780  17.123   3.678  0.00  0.00    -0.277 N 
HETATM    7  C   UNK N   1      22.119  18.827   4.203  0.00  0.00     0.173 C 
HETATM    8  C   UNK N   1      23.368  18.075   4.644  0.00  0.00     0.276 C 
HETATM    9  C   UNK N   1      22.152  19.936   3.179  0.00  0.00     0.034 C 
HETATM   10  C   UNK N   1      22.866  16.206   3.028  0.00  0.00     0.189 C 
HETATM   11  C   UNK N   1      20.002  18.707   3.185  0.00  0.00     0.127 C 
HETATM   12  C   UNK N   1      20.648  20.052   2.796  0.00  0.00     0.022 C 
HETATM   13  C   UNK N   1      25.644  18.133   4.553  0.00  0.00     0.220 C 
HETATM   14  C   UNK N   1      21.437  16.742   3.053  0.00  0.00     0.243 C 
HETATM   15  C   UNK N   1      25.100  17.100   3.642  0.00  0.00     0.280 C 
HETATM   16  C   UNK N   1      26.685  19.013   3.876  0.00  0.00     0.082 C 
HETATM   17  H   UNK N   1      22.852  16.995   6.687  0.00  0.00     0.215 HD
ENDROOT
BRANCH  13  18
HETATM   18  N   UNK N   1      26.108  17.558   5.800  0.00  0.00    -0.321 N 
HETATM   19  C   UNK N   1      27.287  16.958   6.074  0.00  0.00     0.229 C 
HETATM   20  O   UNK N   1      27.473  16.536   7.208  0.00  0.00    -0.273 OA
HETATM   21  H   UNK N   1      25.474  17.611   6.552  0.00  0.00     0.166 HD
BRANCH  19  22
HETATM   22  C   UNK N   1      28.402  16.884   5.077  0.00  0.00     0.129 C 
HETATM   23  C   UNK N   1      28.445  15.451   4.518  0.00  0.00     0.290 C 
HETATM   24  N   UNK N   1      29.714  15.207   3.839  0.00  0.00     0.094 N 
HETATM   25  C   UNK N   1      30.887  15.306   4.743  0.00  0.00     0.260 C 
HETATM   26  C   UNK N   1      29.642  13.925   3.147  0.00  0.00     0.310 C 
HETATM   27  C   UNK N   1      30.734  16.429   5.786  0.00  0.00    -0.017 C 
HETATM   28  C   UNK N   1      31.356  13.971   5.410  0.00  0.00     0.081 C 
HETATM   29  C   UNK N   1      29.633  17.171   5.875  0.00  0.00    -0.001 C 
HETATM   30  C   UNK N   1      31.794  16.579   6.795  0.00  0.00    -0.015 A 
HETATM   31  C   UNK N   1      32.577  15.474   7.006  0.00  0.00     0.009 A 
HETATM   32  C   UNK N   1      32.003  17.696   7.629  0.00  0.00     0.013 A 
HETATM   33  C   UNK N   1      32.462  14.266   6.403  0.00  0.00    -0.027 A 
HETATM   34  C   UNK N   1      33.559  15.403   7.924  0.00  0.00     0.043 A 
HETATM   35  C   UNK N   1      33.431  13.453   6.984  0.00  0.00     0.096 A 
HETATM   36  N   UNK N   1      34.115  14.174   7.923  0.00  0.00    -0.365 N 
HETATM   37  H   UNK N   1      34.861  13.860   8.484  0.00  0.00     0.165 HD
HETATM   38  C   UNK N   1      33.838  16.491   8.755  0.00  0.00     0.030 A 
HETATM   39  C   UNK N   1      33.040  17.653   8.601  0.00  0.00     0.003 A 
ENDBRANCH  19  22
ENDBRANCH  13  18
BRANCH  10  40
HETATM   40  C   UNK N   1      23.007  14.787   3.575  0.00  0.00     0.073 C 
BRANCH  40  41
HETATM   41  C   UNK N   1      23.414  13.838   2.489  0.00  0.00    -0.056 A 
HETATM   42  C   UNK N   1      23.288  14.225   1.150  0.00  0.00     0.007 A 
HETATM   43  C   UNK N   1      23.659  13.345   0.127  0.00  0.00     0.001 A 
HETATM   44  C   UNK N   1      24.155  12.075   0.440  0.00  0.00     0.000 A 
HETATM   45  C   UNK N   1      24.285  11.687   1.776  0.00  0.00     0.001 A 
HETATM   46  C   UNK N   1      23.918  12.567   2.797  0.00  0.00     0.007 A 
ENDBRANCH  40  41
ENDBRANCH  10  40
TORSDOF 4
ENDMDL
MODEL 2
REMARK VINA RESULT:      -9.4      9.356     13.398
REMARK  4 active torsions:
REMARK  status: ('A' for Active; 'I' for Inactive)
REMARK    1  A    between atoms: C_17  and  N_8 
REMARK       I    between atoms: N_8  and  C_24 
REMARK    2  A    between atoms: C_14  and  C_20 
REMARK    3  A    between atoms: C_20  and  C_25 
REMARK    4  A    between atoms: C_22  and  C_24 
ROOT
HETATM    1  O   UNK N   1      34.245  14.946  10.969  0.00  0.00    -0.296 OA
HETATM    2  O   UNK N   1      33.300  13.873   9.165  0.00  0.00    -0.347 OA
HETATM    3  O   UNK N   1      35.636  15.352   5.774  0.00  0.00    -0.271 OA
HETATM    4  O   UNK N   1      37.136  13.161  10.262  0.00  0.00    -0.268 OA
HETATM    5  N   UNK N   1      34.328  16.085   7.442  0.00  0.00    -0.338 N 
HETATM    6  N   UNK N   1      35.535  14.324   9.201  0.00  0.00    -0.277 N 
HETATM    7  C   UNK N   1      33.935  16.122   8.818  0.00  0.00     0.173 C 
HETATM    8  C   UNK N   1      34.254  14.824   9.548  0.00  0.00     0.276 C 
HETATM    9  C   UNK N   1      34.523  17.452   9.221  0.00  0.00     0.034 C 
HETATM   10  C   UNK N   1      36.011  14.241   7.836  0.00  0.00     0.189 C 
HETATM   11  C   UNK N   1      34.034  17.322   6.797  0.00  0.00     0.127 C 
HETATM   12  C   UNK N   1      34.237  18.316   7.958  0.00  0.00     0.022 C 
HETATM   13  C   UNK N   1      35.205  14.001  11.448  0.00  0.00     0.220 C 
HETATM   14  C   UNK N   1      35.276  15.231   6.935  0.00  0.00     0.243 C 
HETATM   15  C   UNK N   1      36.088  13.794  10.277  0.00  0.00     0.280 C 
HETATM   16  C   UNK N   1      35.950  14.592  12.637  0.00  0.00     0.082 C 
HETATM   17  H   UNK N   1      32.579  13.257   8.960  0.00  0.00     0.215 HD
ENDROOT
BRANCH  13  18
HETATM   18  N   UNK N   1      34.463  12.802  11.779  0.00  0.00    -0.321 N 
HETATM   19  C   UNK N   1      34.880  11.695  12.433  0.00  0.00     0.229 C 
HETATM   20  O   UNK N   1      34.078  10.787  12.606  0.00  0.00    -0.273 OA
HETATM   21  H   UNK N   1      33.522  12.791  11.485  0.00  0.00     0.166 HD
BRANCH  19  22
HETATM   22  C   UNK N   1      36.246  11.587  13.038  0.00  0.00     0.129 C 
HETATM   23  C   UNK N   1      36.667  10.107  12.995  0.00  0.00     0.290 C 
HETATM   24  N   UNK N   1      37.798   9.873  13.888  0.00  0.00     0.094 N 
HETATM   25  C   UNK N   1      37.481  10.144  15.312  0.00  0.00     0.260 C 
HETATM   26  C   UNK N   1      38.302   8.521  13.670  0.00  0.00     0.310 C 
HETATM   27  C   UNK N   1      36.554  11.361  15.488  0.00  0.00    -0.017 C 
HETATM   28  C   UNK N   1      36.981   8.922  16.150  0.00  0.00     0.081 C 
HETATM   29  C   UNK N   1      36.063  12.037  14.452  0.00  0.00    -0.001 C 
HETATM   30  C   UNK N   1      36.098  11.687  16.848  0.00  0.00    -0.015 A 
HETATM   31  C   UNK N   1      36.158  10.664  17.759  0.00  0.00     0.009 A 
HETATM   32  C   UNK N   1      35.512  12.899  17.266  0.00  0.00     0.013 A 
HETATM   33  C   UNK N   1      36.569   9.394  17.530  0.00  0.00    -0.027 A 
HETATM   34  C   UNK N   1      35.736  10.757  19.033  0.00  0.00     0.043 A 
HETATM   35  C   UNK N   1      36.393   8.713  18.731  0.00  0.00     0.096 A 
HETATM   36  N   UNK N   1      35.884   9.573  19.664  0.00  0.00    -0.365 N 
HETATM   37  H   UNK N   1      35.669   9.371  20.603  0.00  0.00     0.165 HD
HETATM   38  C   UNK N   1      35.180  11.944  19.516  0.00  0.00     0.030 A 
HETATM   39  C   UNK N   1      35.066  13.029  18.610  0.00  0.00     0.003 A 
ENDBRANCH  19  22
ENDBRANCH  13  18
BRANCH  10  40
HETATM   40  C   UNK N   1      35.997  12.803   7.319  0.00  0.00     0.073 C 
BRANCH  40  41
HETATM   41  C   UNK N   1      37.388  12.331   7.029  0.00  0.00    -0.056 A 
HETATM   42  C   UNK N   1      38.419  13.267   6.876  0.00  0.00     0.007 A 
HETATM   43  C   UNK N   1      39.721  12.838   6.598  0.00  0.00     0.001 A 
HETATM   44  C   UNK N   1      39.998  11.473   6.471  0.00  0.00     0.000 A 
HETATM   45  C   UNK N   1      38.973  10.536   6.626  0.00  0.00     0.001 A 
HETATM   46  C   UNK N   1      37.673  10.964   6.906  0.00  0.00     0.007 A 
ENDBRANCH  40  41
ENDBRANCH  10  40
TORSDOF 4
ENDMDL
MODEL 3
REMARK VINA RESULT:      -9.3      7.917     14.400
REMARK  4 active torsions:
REMARK  status: ('A' for Active; 'I' for Inactive)
REMARK    1  A    between atoms: C_17  and  N_8 
REMARK       I    between atoms: N_8  and  C_24 
REMARK    2  A    between atoms: C_14  and  C_20 
REMARK    3  A    between atoms: C_20  and  C_25 
REMARK    4  A    between atoms: C_22  and  C_24 
ROOT
HETATM    1  O   UNK N   1      36.321  10.495  10.620  0.00  0.00    -0.296 OA
HETATM    2  O   UNK N   1      34.764  10.056  12.259  0.00  0.00    -0.347 OA
HETATM    3  O   UNK N   1      37.063  10.436  15.962  0.00  0.00    -0.271 OA
HETATM    4  O   UNK N   1      36.505  13.702  11.934  0.00  0.00    -0.268 OA
HETATM    5  N   UNK N   1      37.022   9.268  14.047  0.00  0.00    -0.338 N 
HETATM    6  N   UNK N   1      36.433  11.566  12.624  0.00  0.00    -0.277 N 
HETATM    7  C   UNK N   1      36.928   9.180  12.622  0.00  0.00     0.173 C 
HETATM    8  C   UNK N   1      36.119  10.322  12.021  0.00  0.00     0.276 C 
HETATM    9  C   UNK N   1      38.378   8.938  12.279  0.00  0.00     0.034 C 
HETATM   10  C   UNK N   1      36.540  11.749  14.057  0.00  0.00     0.189 C 
HETATM   11  C   UNK N   1      37.803   8.197  14.571  0.00  0.00     0.127 C 
HETATM   12  C   UNK N   1      38.814   7.982  13.427  0.00  0.00     0.022 C 
HETATM   13  C   UNK N   1      36.151  11.893  10.371  0.00  0.00     0.220 C 
HETATM   14  C   UNK N   1      36.844  10.429  14.759  0.00  0.00     0.243 C 
HETATM   15  C   UNK N   1      36.408  12.506  11.696  0.00  0.00     0.280 C 
HETATM   16  C   UNK N   1      37.154  12.347   9.319  0.00  0.00     0.082 C 
HETATM   17  H   UNK N   1      33.830   9.810  12.350  0.00  0.00     0.215 HD
ENDROOT
BRANCH  13  18
HETATM   18  N   UNK N   1      34.773  12.068   9.958  0.00  0.00    -0.321 N 
HETATM   19  C   UNK N   1      34.201  13.110   9.317  0.00  0.00     0.229 C 
HETATM   20  O   UNK N   1      33.006  13.050   9.064  0.00  0.00    -0.273 OA
HETATM   21  H   UNK N   1      34.168  11.321  10.177  0.00  0.00     0.166 HD
BRANCH  19  22
HETATM   22  C   UNK N   1      34.994  14.280   8.820  0.00  0.00     0.129 C 
HETATM   23  C   UNK N   1      34.215  15.562   9.167  0.00  0.00     0.290 C 
HETATM   24  N   UNK N   1      34.727  16.692   8.398  0.00  0.00     0.094 N 
HETATM   25  C   UNK N   1      34.563  16.523   6.933  0.00  0.00     0.260 C 
HETATM   26  C   UNK N   1      34.116  17.920   8.896  0.00  0.00     0.310 C 
HETATM   27  C   UNK N   1      34.792  15.069   6.479  0.00  0.00    -0.017 C 
HETATM   28  C   UNK N   1      33.251  17.112   6.316  0.00  0.00     0.081 C 
HETATM   29  C   UNK N   1      35.051  14.088   7.339  0.00  0.00    -0.001 C 
HETATM   30  C   UNK N   1      34.579  14.752   5.058  0.00  0.00    -0.015 A 
HETATM   31  C   UNK N   1      33.787  15.629   4.363  0.00  0.00     0.009 A 
HETATM   32  C   UNK N   1      35.013  13.590   4.386  0.00  0.00     0.013 A 
HETATM   33  C   UNK N   1      33.171  16.733   4.851  0.00  0.00    -0.027 A 
HETATM   34  C   UNK N   1      33.436  15.475   3.073  0.00  0.00     0.043 A 
HETATM   35  C   UNK N   1      32.437  17.260   3.793  0.00  0.00     0.096 A 
HETATM   36  N   UNK N   1      32.617  16.476   2.687  0.00  0.00    -0.365 N 
HETATM   37  H   UNK N   1      32.227  16.613   1.793  0.00  0.00     0.165 HD
HETATM   38  C   UNK N   1      33.867  14.364   2.343  0.00  0.00     0.030 A 
HETATM   39  C   UNK N   1      34.665  13.408   3.020  0.00  0.00     0.003 A 
ENDBRANCH  19  22
ENDBRANCH  13  18
BRANCH  10  40
HETATM   40  C   UNK N   1      35.328  12.489  14.623  0.00  0.00     0.073 C 
BRANCH  40  41
HETATM   41  C   UNK N   1      35.747  13.453  15.690  0.00  0.00    -0.056 A 
HETATM   42  C   UNK N   1      36.783  14.360  15.435  0.00  0.00     0.007 A 
HETATM   43  C   UNK N   1      37.187  15.261  16.426  0.00  0.00     0.001 A 
HETATM   44  C   UNK N   1      36.559  15.257  17.676  0.00  0.00     0.000 A 
HETATM   45  C   UNK N   1      35.523  14.356  17.933  0.00  0.00     0.001 A 
HETATM   46  C   UNK N   1      35.117  13.458  16.942  0.00  0.00     0.007 A 
ENDBRANCH  40  41
ENDBRANCH  10  40
TORSDOF 4
ENDMDL
MODEL 4
REMARK VINA RESULT:      -9.1      8.250     13.817
REMARK  4 active torsions:
REMARK  status: ('A' for Active; 'I' for Inactive)
REMARK    1  A    between atoms: C_17  and  N_8 
REMARK       I    between atoms: N_8  and  C_24 
REMARK    2  A    between atoms: C_14  and  C_20 
REMARK    3  A    between atoms: C_20  and  C_25 
REMARK    4  A    between atoms: C_22  and  C_24 
ROOT
HETATM    1  O   UNK N   1      35.831  10.821  11.403  0.00  0.00    -0.296 OA
HETATM    2  O   UNK N   1      35.270  13.025  11.758  0.00  0.00    -0.347 OA
HETATM    3  O   UNK N   1      36.078  14.906   7.891  0.00  0.00    -0.271 OA
HETATM    4  O   UNK N   1      33.212  10.728   9.128  0.00  0.00    -0.268 OA
HETATM    5  N   UNK N   1      37.103  13.745   9.513  0.00  0.00    -0.338 N 
HETATM    6  N   UNK N   1      34.922  12.056   9.723  0.00  0.00    -0.277 N 
HETATM    7  C   UNK N   1      37.181  12.643  10.423  0.00  0.00     0.173 C 
HETATM    8  C   UNK N   1      35.808  12.125  10.828  0.00  0.00     0.276 C 
HETATM    9  C   UNK N   1      38.199  11.786   9.709  0.00  0.00     0.034 C 
HETATM   10  C   UNK N   1      34.772  13.126   8.759  0.00  0.00     0.189 C 
HETATM   11  C   UNK N   1      38.406  14.188   9.140  0.00  0.00     0.127 C 
HETATM   12  C   UNK N   1      39.190  12.860   9.173  0.00  0.00     0.022 C 
HETATM   13  C   UNK N   1      34.584  10.216  11.050  0.00  0.00     0.220 C 
HETATM   14  C   UNK N   1      36.011  14.017   8.726  0.00  0.00     0.243 C 
HETATM   15  C   UNK N   1      34.164  10.982   9.854  0.00  0.00     0.280 C 
HETATM   16  C   UNK N   1      34.803   8.740  10.745  0.00  0.00     0.082 C 
HETATM   17  H   UNK N   1      34.955  13.607  12.467  0.00  0.00     0.215 HD
ENDROOT
BRANCH  13  18
HETATM   18  N   UNK N   1      33.693  10.441  12.171  0.00  0.00    -0.321 N 
HETATM   19  C   UNK N   1      33.978  10.476  13.491  0.00  0.00     0.229 C 
HETATM   20  O   UNK N   1      33.062  10.681  14.277  0.00  0.00    -0.273 OA
HETATM   21  H   UNK N   1      32.748  10.587  11.937  0.00  0.00     0.166 HD
BRANCH  19  22
HETATM   22  C   UNK N   1      35.378  10.376  14.015  0.00  0.00     0.129 C 
HETATM   23  C   UNK N   1      35.612   8.924  14.469  0.00  0.00     0.290 C 
HETATM   24  N   UNK N   1      36.796   8.841  15.319  0.00  0.00     0.094 N 
HETATM   25  C   UNK N   1      36.669   9.625  16.574  0.00  0.00     0.260 C 
HETATM   26  C   UNK N   1      37.108   7.437  15.561  0.00  0.00     0.310 C 
HETATM   27  C   UNK N   1      35.918  10.953  16.364  0.00  0.00    -0.017 C 
HETATM   28  C   UNK N   1      36.118   8.849  17.815  0.00  0.00     0.081 C 
HETATM   29  C   UNK N   1      35.403  11.302  15.188  0.00  0.00    -0.001 C 
HETATM   30  C   UNK N   1      35.653  11.787  17.548  0.00  0.00    -0.015 A 
HETATM   31  C   UNK N   1      35.688  11.137  18.755  0.00  0.00     0.009 A 
HETATM   32  C   UNK N   1      35.264  13.142  17.547  0.00  0.00     0.013 A 
HETATM   33  C   UNK N   1      35.916   9.818  18.964  0.00  0.00    -0.027 A 
HETATM   34  C   UNK N   1      35.419  11.719  19.938  0.00  0.00     0.043 A 
HETATM   35  C   UNK N   1      35.790   9.620  20.336  0.00  0.00     0.096 A 
HETATM   36  N   UNK N   1      35.491  10.813  20.934  0.00  0.00    -0.365 N 
HETATM   37  H   UNK N   1      35.354  10.976  21.896  0.00  0.00     0.165 HD
HETATM   38  C   UNK N   1      35.064  13.069  20.004  0.00  0.00     0.030 A 
HETATM   39  C   UNK N   1      34.984  13.785  18.783  0.00  0.00     0.003 A 
ENDBRANCH  19  22
ENDBRANCH  13  18
BRANCH  10  40
HETATM   40  C   UNK N   1      33.464  13.889   8.962  0.00  0.00     0.073 C 
BRANCH  40  41
HETATM   41  C   UNK N   1      32.789  14.143   7.649  0.00  0.00    -0.056 A 
HETATM   42  C   UNK N   1      31.937  15.246   7.511  0.00  0.00     0.007 A 
HETATM   43  C   UNK N   1      31.296  15.489   6.291  0.00  0.00     0.001 A 
HETATM   44  C   UNK N   1      31.503  14.631   5.206  0.00  0.00     0.000 A 
HETATM   45  C   UNK N   1      32.355  13.531   5.340  0.00  0.00     0.001 A 
HETATM   46  C   UNK N   1      32.998  13.290   6.557  0.00  0.00     0.007 A 
ENDBRANCH  40  41
ENDBRANCH  10  40
TORSDOF 4
ENDMDL
MODEL 5
REMARK VINA RESULT:      -9.1      2.367      9.759
REMARK  4 active torsions:
REMARK  status: ('A' for Active; 'I' for Inactive)
REMARK    1  A    between atoms: C_17  and  N_8 
REMARK       I    between atoms: N_8  and  C_24 
REMARK    2  A    between atoms: C_14  and  C_20 
REMARK    3  A    between atoms: C_20  and  C_25 
REMARK    4  A    between atoms: C_22  and  C_24 
ROOT
HETATM    1  O   UNK N   1      27.284  16.461   6.047  0.00  0.00    -0.296 OA
HETATM    2  O   UNK N   1      28.712  18.095   5.278  0.00  0.00    -0.347 OA
HETATM    3  O   UNK N   1      32.224  17.656   7.851  0.00  0.00    -0.271 OA
HETATM    4  O   UNK N   1      29.647  14.164   4.959  0.00  0.00    -0.268 OA
HETATM    5  N   UNK N   1      30.022  18.067   7.962  0.00  0.00    -0.338 N 
HETATM    6  N   UNK N   1      29.532  16.116   6.062  0.00  0.00    -0.277 N 
HETATM    7  C   UNK N   1      28.662  17.777   7.619  0.00  0.00     0.173 C 
HETATM    8  C   UNK N   1      28.537  17.108   6.257  0.00  0.00     0.276 C 
HETATM    9  C   UNK N   1      28.205  17.119   8.898  0.00  0.00     0.034 C 
HETATM   10  C   UNK N   1      30.932  16.326   6.373  0.00  0.00     0.189 C 
HETATM   11  C   UNK N   1      30.101  18.672   9.251  0.00  0.00     0.127 C 
HETATM   12  C   UNK N   1      28.920  17.990   9.971  0.00  0.00     0.022 C 
HETATM   13  C   UNK N   1      27.556  15.354   5.184  0.00  0.00     0.220 C 
HETATM   14  C   UNK N   1      31.106  17.431   7.411  0.00  0.00     0.243 C 
HETATM   15  C   UNK N   1      29.001  15.108   5.395  0.00  0.00     0.280 C 
HETATM   16  C   UNK N   1      26.699  14.164   5.598  0.00  0.00     0.082 C 
HETATM   17  H   UNK N   1      28.743  18.805   4.618  0.00  0.00     0.215 HD
ENDROOT
BRANCH  13  18
HETATM   18  N   UNK N   1      27.281  15.812   3.837  0.00  0.00    -0.321 N 
HETATM   19  C   UNK N   1      26.204  15.571   3.058  0.00  0.00     0.229 C 
HETATM   20  O   UNK N   1      26.177  16.062   1.938  0.00  0.00    -0.273 OA
HETATM   21  H   UNK N   1      27.978  16.379   3.433  0.00  0.00     0.166 HD
BRANCH  19  22
HETATM   22  C   UNK N   1      25.008  14.817   3.552  0.00  0.00     0.129 C 
HETATM   23  C   UNK N   1      24.612  13.794   2.472  0.00  0.00     0.290 C 
HETATM   24  N   UNK N   1      23.261  13.296   2.712  0.00  0.00     0.094 N 
HETATM   25  C   UNK N   1      22.227  14.358   2.639  0.00  0.00     0.260 C 
HETATM   26  C   UNK N   1      22.996  12.187   1.802  0.00  0.00     0.310 C 
HETATM   27  C   UNK N   1      22.711  15.694   3.234  0.00  0.00    -0.017 C 
HETATM   28  C   UNK N   1      21.554  14.568   1.242  0.00  0.00     0.081 C 
HETATM   29  C   UNK N   1      23.947  15.859   3.700  0.00  0.00    -0.001 C 
HETATM   30  C   UNK N   1      21.807  16.852   3.148  0.00  0.00    -0.015 A 
HETATM   31  C   UNK N   1      20.834  16.779   2.186  0.00  0.00     0.009 A 
HETATM   32  C   UNK N   1      21.918  18.055   3.875  0.00  0.00     0.013 A 
HETATM   33  C   UNK N   1      20.635  15.771   1.303  0.00  0.00    -0.027 A 
HETATM   34  C   UNK N   1      19.952  17.761   1.923  0.00  0.00     0.043 A 
HETATM   35  C   UNK N   1      19.577  16.175   0.493  0.00  0.00     0.096 A 
HETATM   36  N   UNK N   1      19.152  17.411   0.894  0.00  0.00    -0.365 N 
HETATM   37  H   UNK N   1      18.414  17.937   0.510  0.00  0.00     0.165 HD
HETATM   38  C   UNK N   1      19.987  18.962   2.636  0.00  0.00     0.030 A 
HETATM   39  C   UNK N   1      20.993  19.106   3.625  0.00  0.00     0.003 A 
ENDBRANCH  19  22
ENDBRANCH  13  18
BRANCH  10  40
HETATM   40  C   UNK N   1      31.767  16.524   5.108  0.00  0.00     0.073 C 
BRANCH  40  41
HETATM   41  C   UNK N   1      32.955  15.613   5.110  0.00  0.00    -0.056 A 
HETATM   42  C   UNK N   1      34.131  16.010   5.758  0.00  0.00     0.007 A 
HETATM   43  C   UNK N   1      35.250  15.169   5.760  0.00  0.00     0.001 A 
HETATM   44  C   UNK N   1      35.197  13.930   5.115  0.00  0.00     0.000 A 
HETATM   45  C   UNK N   1      34.024  13.528   4.470  0.00  0.00     0.001 A 
HETATM   46  C   UNK N   1      32.906  14.367   4.470  0.00  0.00     0.007 A 
ENDBRANCH  40  41
ENDBRANCH  10  40
TORSDOF 4
ENDMDL
MODEL 6
REMARK VINA RESULT:      -9.0      6.930     13.472
REMARK  4 active torsions:
REMARK  status: ('A' for Active; 'I' for Inactive)
REMARK    1  A    between atoms: C_17  and  N_8 
REMARK       I    between atoms: N_8  and  C_24 
REMARK    2  A    between atoms: C_14  and  C_20 
REMARK    3  A    between atoms: C_20  and  C_25 
REMARK    4  A    between atoms: C_22  and  C_24 
ROOT
HETATM    1  O   UNK N   1      35.511  12.974  10.213  0.00  0.00    -0.296 OA
HETATM    2  O   UNK N   1      34.015  11.385  10.946  0.00  0.00    -0.347 OA
HETATM    3  O   UNK N   1      36.292   9.167  13.953  0.00  0.00    -0.271 OA
HETATM    4  O   UNK N   1      35.394  14.278  13.428  0.00  0.00    -0.268 OA
HETATM    5  N   UNK N   1      36.350   9.721  11.780  0.00  0.00    -0.338 N 
HETATM    6  N   UNK N   1      35.533  12.295  12.384  0.00  0.00    -0.277 N 
HETATM    7  C   UNK N   1      36.255  10.673  10.715  0.00  0.00     0.173 C 
HETATM    8  C   UNK N   1      35.336  11.838  11.056  0.00  0.00     0.276 C 
HETATM    9  C   UNK N   1      37.720  10.854  10.395  0.00  0.00     0.034 C 
HETATM   10  C   UNK N   1      35.631  11.404  13.523  0.00  0.00     0.189 C 
HETATM   11  C   UNK N   1      37.235   8.658  11.433  0.00  0.00     0.127 C 
HETATM   12  C   UNK N   1      38.254   9.400  10.545  0.00  0.00     0.022 C 
HETATM   13  C   UNK N   1      35.206  14.112  11.024  0.00  0.00     0.220 C 
HETATM   14  C   UNK N   1      36.067  10.006  13.093  0.00  0.00     0.243 C 
HETATM   15  C   UNK N   1      35.412  13.609  12.402  0.00  0.00     0.280 C 
HETATM   16  C   UNK N   1      36.153  15.253  10.676  0.00  0.00     0.082 C 
HETATM   17  H   UNK N   1      33.110  11.081  10.775  0.00  0.00     0.215 HD
ENDROOT
BRANCH  13  18
HETATM   18  N   UNK N   1      33.814  14.429  10.771  0.00  0.00    -0.321 N 
HETATM   19  C   UNK N   1      33.235  14.869   9.633  0.00  0.00     0.229 C 
HETATM   20  O   UNK N   1      32.029  15.078   9.640  0.00  0.00    -0.273 OA
HETATM   21  H   UNK N   1      33.207  14.307  11.537  0.00  0.00     0.166 HD
BRANCH  19  22
HETATM   22  C   UNK N   1      33.991  15.010   8.348  0.00  0.00     0.129 C 
HETATM   23  C   UNK N   1      33.438  16.238   7.603  0.00  0.00     0.290 C 
HETATM   24  N   UNK N   1      33.855  16.216   6.205  0.00  0.00     0.094 N 
HETATM   25  C   UNK N   1      33.335  15.043   5.459  0.00  0.00     0.260 C 
HETATM   26  C   UNK N   1      33.494  17.486   5.583  0.00  0.00     0.310 C 
HETATM   27  C   UNK N   1      33.317  13.763   6.314  0.00  0.00    -0.017 C 
HETATM   28  C   UNK N   1      31.975  15.250   4.715  0.00  0.00     0.081 C 
HETATM   29  C   UNK N   1      33.679  13.757   7.595  0.00  0.00    -0.001 C 
HETATM   30  C   UNK N   1      32.745  12.545   5.716  0.00  0.00    -0.015 A 
HETATM   31  C   UNK N   1      31.896  12.742   4.659  0.00  0.00     0.009 A 
HETATM   32  C   UNK N   1      32.900  11.227   6.193  0.00  0.00     0.013 A 
HETATM   33  C   UNK N   1      31.517  13.930   4.128  0.00  0.00    -0.027 A 
HETATM   34  C   UNK N   1      31.238  11.757   4.020  0.00  0.00     0.043 A 
HETATM   35  C   UNK N   1      30.605  13.626   3.122  0.00  0.00     0.096 A 
HETATM   36  N   UNK N   1      30.447  12.270   3.055  0.00  0.00    -0.365 N 
HETATM   37  H   UNK N   1      29.872  11.769   2.432  0.00  0.00     0.165 HD
HETATM   38  C   UNK N   1      31.381  10.427   4.422  0.00  0.00     0.030 A 
HETATM   39  C   UNK N   1      32.225  10.166   5.531  0.00  0.00     0.003 A 
ENDBRANCH  19  22
ENDBRANCH  13  18
BRANCH  10  40
HETATM   40  C   UNK N   1      34.358  11.426  14.367  0.00  0.00     0.073 C 
BRANCH  40  41
HETATM   41  C   UNK N   1      34.682  11.682  15.807  0.00  0.00    -0.056 A 
HETATM   42  C   UNK N   1      34.693  12.996  16.291  0.00  0.00     0.007 A 
HETATM   43  C   UNK N   1      35.001  13.248  17.632  0.00  0.00     0.001 A 
HETATM   44  C   UNK N   1      35.299  12.188  18.495  0.00  0.00     0.000 A 
HETATM   45  C   UNK N   1      35.286  10.875  18.016  0.00  0.00     0.001 A 
HETATM   46  C   UNK N   1      34.976  10.624  16.677  0.00  0.00     0.007 A 
ENDBRANCH  40  41
ENDBRANCH  10  40
TORSDOF 4
ENDMDL
MODEL 7
REMARK VINA RESULT:      -8.9      3.177      4.158
REMARK  4 active torsions:
REMARK  status: ('A' for Active; 'I' for Inactive)
REMARK    1  A    between atoms: C_17  and  N_8 
REMARK       I    between atoms: N_8  and  C_24 
REMARK    2  A    between atoms: C_14  and  C_20 
REMARK    3  A    between atoms: C_20  and  C_25 
REMARK    4  A    between atoms: C_22  and  C_24 
ROOT
HETATM    1  O   UNK N   1      24.921  15.199   4.789  0.00  0.00    -0.296 OA
HETATM    2  O   UNK N   1      24.543  14.407   6.918  0.00  0.00    -0.347 OA
HETATM    3  O   UNK N   1      20.178  14.277   7.185  0.00  0.00    -0.271 OA
HETATM    4  O   UNK N   1      23.448  12.268   3.653  0.00  0.00    -0.268 OA
HETATM    5  N   UNK N   1      21.860  15.714   6.816  0.00  0.00    -0.338 N 
HETATM    6  N   UNK N   1      23.135  13.855   5.211  0.00  0.00    -0.277 N 
HETATM    7  C   UNK N   1      23.075  16.097   6.163  0.00  0.00     0.173 C 
HETATM    8  C   UNK N   1      23.922  14.898   5.761  0.00  0.00     0.276 C 
HETATM    9  C   UNK N   1      22.532  17.087   5.161  0.00  0.00     0.034 C 
HETATM   10  C   UNK N   1      21.897  13.396   5.809  0.00  0.00     0.189 C 
HETATM   11  C   UNK N   1      21.084  16.861   7.157  0.00  0.00     0.127 C 
HETATM   12  C   UNK N   1      21.441  17.814   6.000  0.00  0.00     0.022 C 
HETATM   13  C   UNK N   1      25.088  14.005   4.019  0.00  0.00     0.220 C 
HETATM   14  C   UNK N   1      21.278  14.477   6.691  0.00  0.00     0.243 C 
HETATM   15  C   UNK N   1      23.810  13.286   4.230  0.00  0.00     0.280 C 
HETATM   16  C   UNK N   1      25.312  14.371   2.557  0.00  0.00     0.082 C 
HETATM   17  H   UNK N   1      25.035  14.140   7.709  0.00  0.00     0.215 HD
ENDROOT
BRANCH  13  18
HETATM   18  N   UNK N   1      26.206  13.296   4.607  0.00  0.00    -0.321 N 
HETATM   19  C   UNK N   1      27.505  13.662   4.677  0.00  0.00     0.229 C 
HETATM   20  O   UNK N   1      28.292  12.902   5.224  0.00  0.00    -0.273 OA
HETATM   21  H   UNK N   1      25.988  12.425   5.013  0.00  0.00     0.166 HD
BRANCH  19  22
HETATM   22  C   UNK N   1      27.990  14.998   4.204  0.00  0.00     0.129 C 
HETATM   23  C   UNK N   1      29.423  14.821   3.671  0.00  0.00     0.290 C 
HETATM   24  N   UNK N   1      30.084  16.116   3.547  0.00  0.00     0.094 N 
HETATM   25  C   UNK N   1      30.237  16.819   4.845  0.00  0.00     0.260 C 
HETATM   26  C   UNK N   1      31.353  15.935   2.850  0.00  0.00     0.310 C 
HETATM   27  C   UNK N   1      29.021  16.620   5.769  0.00  0.00    -0.017 C 
HETATM   28  C   UNK N   1      31.579  16.569   5.608  0.00  0.00     0.081 C 
HETATM   29  C   UNK N   1      27.990  15.849   5.433  0.00  0.00    -0.001 C 
HETATM   30  C   UNK N   1      29.083  17.200   7.120  0.00  0.00    -0.015 A 
HETATM   31  C   UNK N   1      30.340  17.469   7.597  0.00  0.00     0.009 A 
HETATM   32  C   UNK N   1      27.997  17.395   7.997  0.00  0.00     0.013 A 
HETATM   33  C   UNK N   1      31.517  17.239   6.966  0.00  0.00    -0.027 A 
HETATM   34  C   UNK N   1      30.598  17.949   8.827  0.00  0.00     0.043 A 
HETATM   35  C   UNK N   1      32.512  17.615   7.864  0.00  0.00     0.096 A 
HETATM   36  N   UNK N   1      31.929  18.066   9.016  0.00  0.00    -0.365 N 
HETATM   37  H   UNK N   1      32.387  18.405   9.819  0.00  0.00     0.165 HD
HETATM   38  C   UNK N   1      29.560  18.198   9.728  0.00  0.00     0.030 A 
HETATM   39  C   UNK N   1      28.239  17.911   9.300  0.00  0.00     0.003 A 
ENDBRANCH  19  22
ENDBRANCH  13  18
BRANCH  10  40
HETATM   40  C   UNK N   1      22.074  12.049   6.509  0.00  0.00     0.073 C 
BRANCH  40  41
HETATM   41  C   UNK N   1      21.234  10.997   5.851  0.00  0.00    -0.056 A 
HETATM   42  C   UNK N   1      21.742   9.701   5.701  0.00  0.00     0.007 A 
HETATM   43  C   UNK N   1      20.970   8.712   5.082  0.00  0.00     0.001 A 
HETATM   44  C   UNK N   1      19.688   9.014   4.612  0.00  0.00     0.000 A 
HETATM   45  C   UNK N   1      19.176  10.305   4.764  0.00  0.00     0.001 A 
HETATM   46  C   UNK N   1      19.947  11.293   5.384  0.00  0.00     0.007 A 
ENDBRANCH  40  41
ENDBRANCH  10  40
TORSDOF 4
ENDMDL
MODEL 8
REMARK VINA RESULT:      -8.8      2.141      9.421
REMARK  4 active torsions:
REMARK  status: ('A' for Active; 'I' for Inactive)
REMARK    1  A    between atoms: C_17  and  N_8 
REMARK       I    between atoms: N_8  and  C_24 
REMARK    2  A    between atoms: C_14  and  C_20 
REMARK    3  A    between atoms: C_20  and  C_25 
REMARK    4  A    between atoms: C_22  and  C_24 
ROOT
HETATM    1  O   UNK N   1      29.249  17.643   6.125  0.00  0.00    -0.296 OA
HETATM    2  O   UNK N   1      30.605  17.903   4.282  0.00  0.00    -0.347 OA
HETATM    3  O   UNK N   1      33.517  14.666   4.708  0.00  0.00    -0.271 OA
HETATM    4  O   UNK N   1      28.302  14.601   4.749  0.00  0.00    -0.268 OA
HETATM    5  N   UNK N   1      32.751  16.475   5.789  0.00  0.00    -0.338 N 
HETATM    6  N   UNK N   1      30.152  15.824   5.101  0.00  0.00    -0.277 N 
HETATM    7  C   UNK N   1      31.689  17.293   6.291  0.00  0.00     0.173 C 
HETATM    8  C   UNK N   1      30.418  17.169   5.461  0.00  0.00     0.276 C 
HETATM    9  C   UNK N   1      31.748  16.929   7.755  0.00  0.00     0.034 C 
HETATM   10  C   UNK N   1      31.163  14.928   4.577  0.00  0.00     0.189 C 
HETATM   11  C   UNK N   1      33.916  16.601   6.603  0.00  0.00     0.127 C 
HETATM   12  C   UNK N   1      33.283  16.830   7.990  0.00  0.00     0.022 C 
HETATM   13  C   UNK N   1      28.169  16.848   5.629  0.00  0.00     0.220 C 
HETATM   14  C   UNK N   1      32.563  15.376   4.989  0.00  0.00     0.243 C 
HETATM   15  C   UNK N   1      28.847  15.624   5.141  0.00  0.00     0.280 C 
HETATM   16  C   UNK N   1      27.192  16.556   6.760  0.00  0.00     0.082 C 
HETATM   17  H   UNK N   1      30.716  18.490   3.518  0.00  0.00     0.215 HD
ENDROOT
BRANCH  13  18
HETATM   18  N   UNK N   1      27.575  17.602   4.543  0.00  0.00    -0.321 N 
HETATM   19  C   UNK N   1      26.327  17.522   4.033  0.00  0.00     0.229 C 
HETATM   20  O   UNK N   1      26.032  18.260   3.103  0.00  0.00    -0.273 OA
HETATM   21  H   UNK N   1      28.166  18.265   4.116  0.00  0.00     0.166 HD
BRANCH  19  22
HETATM   22  C   UNK N   1      25.270  16.643   4.630  0.00  0.00     0.129 C 
HETATM   23  C   UNK N   1      25.190  15.358   3.785  0.00  0.00     0.290 C 
HETATM   24  N   UNK N   1      23.954  14.638   4.071  0.00  0.00     0.094 N 
HETATM   25  C   UNK N   1      22.735  15.409   3.720  0.00  0.00     0.260 C 
HETATM   26  C   UNK N   1      24.003  13.334   3.417  0.00  0.00     0.310 C 
HETATM   27  C   UNK N   1      22.881  16.911   4.025  0.00  0.00    -0.017 C 
HETATM   28  C   UNK N   1      22.162  15.173   2.284  0.00  0.00     0.081 C 
HETATM   29  C   UNK N   1      24.010  17.435   4.497  0.00  0.00    -0.001 C 
HETATM   30  C   UNK N   1      21.771  17.801   3.647  0.00  0.00    -0.015 A 
HETATM   31  C   UNK N   1      20.923  17.320   2.683  0.00  0.00     0.009 A 
HETATM   32  C   UNK N   1      21.568  19.122   4.094  0.00  0.00     0.013 A 
HETATM   33  C   UNK N   1      21.015  16.132   2.037  0.00  0.00    -0.027 A 
HETATM   34  C   UNK N   1      19.887  18.009   2.172  0.00  0.00     0.043 A 
HETATM   35  C   UNK N   1      19.974  16.118   1.112  0.00  0.00     0.096 A 
HETATM   36  N   UNK N   1      19.271  17.287   1.212  0.00  0.00    -0.365 N 
HETATM   37  H   UNK N   1      18.479  17.549   0.690  0.00  0.00     0.165 HD
HETATM   38  C   UNK N   1      19.613  19.309   2.603  0.00  0.00     0.030 A 
HETATM   39  C   UNK N   1      20.475  19.870   3.579  0.00  0.00     0.003 A 
ENDBRANCH  19  22
ENDBRANCH  13  18
BRANCH  10  40
HETATM   40  C   UNK N   1      30.998  14.708   3.074  0.00  0.00     0.073 C 
BRANCH  40  41
HETATM   41  C   UNK N   1      30.565  13.303   2.788  0.00  0.00    -0.056 A 
HETATM   42  C   UNK N   1      31.086  12.250   3.550  0.00  0.00     0.007 A 
HETATM   43  C   UNK N   1      30.694  10.932   3.288  0.00  0.00     0.001 A 
HETATM   44  C   UNK N   1      29.781  10.663   2.264  0.00  0.00     0.000 A 
HETATM   45  C   UNK N   1      29.256  11.711   1.504  0.00  0.00     0.001 A 
HETATM   46  C   UNK N   1      29.646  13.027   1.768  0.00  0.00     0.007 A 
ENDBRANCH  40  41
ENDBRANCH  10  40
TORSDOF 4
ENDMDL
MODEL 9
REMARK VINA RESULT:      -8.5      2.847      4.614
REMARK  4 active torsions:
REMARK  status: ('A' for Active; 'I' for Inactive)
REMARK    1  A    between atoms: C_17  and  N_8 
REMARK       I    between atoms: N_8  and  C_24 
REMARK    2  A    between atoms: C_14  and  C_20 
REMARK    3  A    between atoms: C_20  and  C_25 
REMARK    4  A    between atoms: C_22  and  C_24 
ROOT
HETATM    1  O   UNK N   1      25.407  15.795   2.826  0.00  0.00    -0.296 OA
HETATM    2  O   UNK N   1      23.608  17.109   3.410  0.00  0.00    -0.347 OA
HETATM    3  O   UNK N   1      20.615  14.196   4.713  0.00  0.00    -0.271 OA
HETATM    4  O   UNK N   1      25.574  14.886   6.171  0.00  0.00    -0.268 OA
HETATM    5  N   UNK N   1      21.855  14.740   2.925  0.00  0.00    -0.338 N 
HETATM    6  N   UNK N   1      24.052  15.182   4.547  0.00  0.00    -0.277 N 
HETATM    7  C   UNK N   1      23.099  15.083   2.306  0.00  0.00     0.173 C 
HETATM    8  C   UNK N   1      24.050  15.787   3.264  0.00  0.00     0.276 C 
HETATM    9  C   UNK N   1      23.432  13.767   1.644  0.00  0.00     0.034 C 
HETATM   10  C   UNK N   1      22.841  14.812   5.250  0.00  0.00     0.189 C 
HETATM   11  C   UNK N   1      21.000  14.065   2.005  0.00  0.00     0.127 C 
HETATM   12  C   UNK N   1      22.032  13.305   1.147  0.00  0.00     0.022 C 
HETATM   13  C   UNK N   1      26.202  15.778   4.015  0.00  0.00     0.220 C 
HETATM   14  C   UNK N   1      21.680  14.609   4.280  0.00  0.00     0.243 C 
HETATM   15  C   UNK N   1      25.282  15.210   5.027  0.00  0.00     0.280 C 
HETATM   16  C   UNK N   1      27.429  14.904   3.793  0.00  0.00     0.082 C 
HETATM   17  H   UNK N   1      23.343  18.041   3.425  0.00  0.00     0.215 HD
ENDROOT
BRANCH  13  18
HETATM   18  N   UNK N   1      26.530  17.160   4.303  0.00  0.00    -0.321 N 
HETATM   19  C   UNK N   1      27.144  17.681   5.388  0.00  0.00     0.229 C 
HETATM   20  O   UNK N   1      27.322  18.891   5.428  0.00  0.00    -0.273 OA
HETATM   21  H   UNK N   1      26.268  17.810   3.611  0.00  0.00     0.166 HD
BRANCH  19  22
HETATM   22  C   UNK N   1      27.700  16.826   6.485  0.00  0.00     0.129 C 
HETATM   23  C   UNK N   1      27.805  17.691   7.754  0.00  0.00     0.290 C 
HETATM   24  N   UNK N   1      28.671  17.048   8.737  0.00  0.00     0.094 N 
HETATM   25  C   UNK N   1      30.068  16.882   8.264  0.00  0.00     0.260 C 
HETATM   26  C   UNK N   1      28.585  17.783   9.995  0.00  0.00     0.310 C 
HETATM   27  C   UNK N   1      30.144  16.524   6.768  0.00  0.00    -0.017 C 
HETATM   28  C   UNK N   1      31.058  18.038   8.624  0.00  0.00     0.081 C 
HETATM   29  C   UNK N   1      29.060  16.439   6.001  0.00  0.00    -0.001 C 
HETATM   30  C   UNK N   1      31.477  16.412   6.155  0.00  0.00    -0.015 A 
HETATM   31  C   UNK N   1      32.494  17.051   6.817  0.00  0.00     0.009 A 
HETATM   32  C   UNK N   1      31.780  15.814   4.915  0.00  0.00     0.013 A 
HETATM   33  C   UNK N   1      32.392  17.784   7.952  0.00  0.00    -0.027 A 
HETATM   34  C   UNK N   1      33.766  17.105   6.382  0.00  0.00     0.043 A 
HETATM   35  C   UNK N   1      33.669  18.280   8.203  0.00  0.00     0.096 A 
HETATM   36  N   UNK N   1      34.519  17.843   7.225  0.00  0.00    -0.365 N 
HETATM   37  H   UNK N   1      35.483  18.028   7.151  0.00  0.00     0.165 HD
HETATM   38  C   UNK N   1      34.135  16.499   5.179  0.00  0.00     0.030 A 
HETATM   39  C   UNK N   1      33.118  15.847   4.436  0.00  0.00     0.003 A 
ENDBRANCH  19  22
ENDBRANCH  13  18
BRANCH  10  40
HETATM   40  C   UNK N   1      22.534  15.778   6.393  0.00  0.00     0.073 C 
BRANCH  40  41
HETATM   41  C   UNK N   1      22.053  15.035   7.601  0.00  0.00    -0.056 A 
HETATM   42  C   UNK N   1      22.749  13.902   8.040  0.00  0.00     0.007 A 
HETATM   43  C   UNK N   1      22.305  13.196   9.163  0.00  0.00     0.001 A 
HETATM   44  C   UNK N   1      21.163  13.618   9.851  0.00  0.00     0.000 A 
HETATM   45  C   UNK N   1      20.467  14.750   9.418  0.00  0.00     0.001 A 
HETATM   46  C   UNK N   1      20.913  15.457   8.298  0.00  0.00     0.007 A 
ENDBRANCH  40  41
ENDBRANCH  10  40
TORSDOF 4
ENDMDL
