REMARK  4 active torsions:
REMARK  status: ('A' for Active; 'I' for Inactive)
REMARK    1  A    between atoms: C_17  and  N_8 
REMARK       I    between atoms: N_8  and  C_24 
REMARK    2  A    between atoms: C_14  and  C_20 
REMARK    3  A    between atoms: C_20  and  C_25 
REMARK    4  A    between atoms: C_22  and  C_24 
ROOT
HETATM    1  O   UNK N   1       2.136   0.282   0.067  0.00  0.00    -0.296 OA
HETATM    2  O   UNK N   1       2.298   1.581  -1.827  0.00  0.00    -0.347 OA
HETATM    3  O   UNK N   1       2.411   5.659  -0.246  0.00  0.00    -0.271 OA
HETATM    4  O   UNK N   1       5.289   1.465   0.906  0.00  0.00    -0.268 OA
HETATM    5  N   UNK N   1       1.113   3.830  -0.260  0.00  0.00    -0.338 N 
HETATM    6  N   UNK N   1       3.331   2.217   0.104  0.00  0.00    -0.277 N 
HETATM    7  C   UNK N   1       0.912   2.421  -0.108  0.00  0.00     0.173 C 
HETATM    8  C   UNK N   1       2.164   1.617  -0.433  0.00  0.00     0.276 C 
HETATM    9  C   UNK N   1       0.255   2.396   1.251  0.00  0.00     0.034 C 
HETATM   10  C   UNK N   1       3.620   3.632  -0.011  0.00  0.00     0.189 C 
HETATM   11  C   UNK N   1      -0.072   4.550   0.073  0.00  0.00     0.127 C 
HETATM   12  C   UNK N   1      -0.664   3.650   1.176  0.00  0.00     0.022 C 
HETATM   13  C   UNK N   1       3.496  -0.057   0.351  0.00  0.00     0.220 C 
HETATM   14  C   UNK N   1       2.343   4.439  -0.230  0.00  0.00     0.243 C 
HETATM   15  C   UNK N   1       4.145   1.264   0.520  0.00  0.00     0.280 C 
HETATM   16  C   UNK N   1       3.556  -0.898   1.619  0.00  0.00     0.082 C 
HETATM   17  H   UNK N   1       2.323   1.488  -2.792  0.00  0.00     0.215 HD
ENDROOT
BRANCH  13  18
HETATM   18  N   UNK N   1       3.993  -0.753  -0.819  0.00  0.00    -0.321 N 
HETATM   19  C   UNK N   1       5.200  -1.325  -1.021  0.00  0.00     0.229 C 
HETATM   20  O   UNK N   1       5.413  -1.865  -2.098  0.00  0.00    -0.273 OA
HETATM   21  H   UNK N   1       3.362  -0.817  -1.573  0.00  0.00     0.166 HD
BRANCH  19  22
HETATM   22  C   UNK N   1       6.239  -1.410   0.055  0.00  0.00     0.129 C 
HETATM   23  C   UNK N   1       7.578  -0.938  -0.540  0.00  0.00     0.290 C 
HETATM   24  N   UNK N   1       8.687  -1.342   0.318  0.00  0.00     0.094 N 
HETATM   25  C   UNK N   1       8.818  -2.815   0.447  0.00  0.00     0.260 C 
HETATM   26  C   UNK N   1       9.911  -0.707  -0.159  0.00  0.00     0.310 C 
HETATM   27  C   UNK N   1       7.452  -3.524   0.508  0.00  0.00    -0.017 C 
HETATM   28  C   UNK N   1       9.776  -3.512  -0.574  0.00  0.00     0.081 C 
HETATM   29  C   UNK N   1       6.302  -2.864   0.396  0.00  0.00    -0.001 C 
HETATM   30  C   UNK N   1       7.443  -4.995   0.554  0.00  0.00    -0.015 A 
HETATM   31  C   UNK N   1       8.579  -5.613   0.100  0.00  0.00     0.009 A 
HETATM   32  C   UNK N   1       6.352  -5.814   0.910  0.00  0.00     0.013 A 
HETATM   33  C   UNK N   1       9.687  -5.015  -0.401  0.00  0.00    -0.027 A 
HETATM   34  C   UNK N   1       8.735  -6.947   0.015  0.00  0.00     0.043 A 
HETATM   35  C   UNK N   1      10.539  -6.047  -0.784  0.00  0.00     0.096 A 
HETATM   36  N   UNK N   1       9.941  -7.246  -0.511  0.00  0.00    -0.365 N 
HETATM   37  H   UNK N   1      10.314  -8.144  -0.667  0.00  0.00     0.165 HD
HETATM   38  C   UNK N   1       7.703  -7.811   0.389  0.00  0.00     0.030 A 
HETATM   39  C   UNK N   1       6.492  -7.227   0.840  0.00  0.00     0.003 A 
ENDBRANCH  19  22
ENDBRANCH  13  18
BRANCH  10  40
HETATM   40  C   UNK N   1       4.711   3.903  -1.046  0.00  0.00     0.073 C 
BRANCH  40  41
HETATM   41  C   UNK N   1       5.660   4.952  -0.553  0.00  0.00    -0.056 A 
HETATM   42  C   UNK N   1       7.002   4.621  -0.330  0.00  0.00     0.007 A 
HETATM   43  C   UNK N   1       7.896   5.591   0.137  0.00  0.00     0.001 A 
HETATM   44  C   UNK N   1       7.452   6.894   0.383  0.00  0.00     0.000 A 
HETATM   45  C   UNK N   1       6.114   7.229   0.158  0.00  0.00     0.001 A 
HETATM   46  C   UNK N   1       5.222   6.261  -0.311  0.00  0.00     0.007 A 
ENDBRANCH  40  41
ENDBRANCH  10  40
TORSDOF 4
