MODEL 1
REMARK VINA RESULT:      -6.3      0.000      0.000
REMARK  1 active torsions:
REMARK  status: ('A' for Active; 'I' for Inactive)
REMARK       I    between atoms: N_4  and  C_13 
REMARK    1  A    between atoms: N_4  and  C_14 
ROOT
HETATM    1 Cl   UNK N   1      33.947  17.023   5.737  0.00  0.00    -0.082 Cl
HETATM    2  S   UNK N   1      28.725  17.720   9.405  0.00  0.00     0.068 SA
HETATM    3  N   UNK N   1      30.354  17.692   9.572  0.00  0.00    -0.308 N 
ATOM      4  HN  UNK N   1      30.915  17.794  10.417  1.00  0.00     0.176 HD
HETATM    5  N   UNK N   1      28.439  17.503   7.809  0.00  0.00    -0.310 N 
ATOM      6  HN  UNK N   1      27.548  17.462   7.312  1.00  0.00     0.176 HD
HETATM    7  C   UNK N   1      32.117  17.399   7.903  0.00  0.00     0.100 A 
HETATM    8  C   UNK N   1      30.765  17.497   8.285  0.00  0.00     0.096 A 
HETATM    9  C   UNK N   1      29.703  17.394   7.318  0.00  0.00     0.069 A 
HETATM   10  C   UNK N   1      32.382  17.189   6.500  0.00  0.00     0.063 A 
HETATM   11  C   UNK N   1      29.983  17.196   5.981  0.00  0.00     0.034 A 
HETATM   12  C   UNK N   1      31.315  17.096   5.588  0.00  0.00     0.028 A 
ENDROOT
BRANCH   7  13
HETATM   13  N   UNK N   1      33.086  17.517   8.961  0.00  0.00    -0.188 N 
HETATM   14  C   UNK N   1      34.168  16.716   9.434  0.00  0.00     0.674 A 
HETATM   15  N   UNK N   1      34.953  17.099  10.517  0.00  0.00    -0.225 N 
HETATM   16  N   UNK N   1      34.523  15.610   8.937  0.00  0.00    -0.225 N 
HETATM   17  C   UNK N   1      35.953  16.090  10.745  0.00  0.00     0.158 A 
HETATM   18  H   UNK N   1      34.843  17.925  11.042  0.00  0.00     0.177 HD
HETATM   19  C   UNK N   1      35.651  15.049   9.640  0.00  0.00     0.158 A 
ATOM     20  HN  UNK N   1      34.068  15.169   8.138  1.00  0.00     0.177 HD
HETATM   21  H   UNK N   1      32.976  18.345   9.482  0.00  0.00     0.184 HD
ENDBRANCH   7  13
TORSDOF 1
ENDMDL
MODEL 2
REMARK VINA RESULT:      -5.6      2.736      3.129
REMARK  1 active torsions:
REMARK  status: ('A' for Active; 'I' for Inactive)
REMARK       I    between atoms: N_4  and  C_13 
REMARK    1  A    between atoms: N_4  and  C_14 
ROOT
HETATM    1 Cl   UNK N   1      29.997  18.129   9.647  0.00  0.00    -0.082 Cl
HETATM    2  S   UNK N   1      33.089  16.599   4.233  0.00  0.00     0.068 SA
HETATM    3  N   UNK N   1      33.439  16.971   5.790  0.00  0.00    -0.308 N 
ATOM      4  HN  UNK N   1      34.349  17.038   6.246  1.00  0.00     0.176 HD
HETATM    5  N   UNK N   1      31.459  16.655   4.119  0.00  0.00    -0.310 N 
ATOM      6  HN  UNK N   1      30.862  16.482   3.310  1.00  0.00     0.176 HD
HETATM    7  C   UNK N   1      31.964  17.518   7.661  0.00  0.00     0.100 A 
HETATM    8  C   UNK N   1      32.196  17.168   6.317  0.00  0.00     0.096 A 
HETATM    9  C   UNK N   1      31.108  16.991   5.390  0.00  0.00     0.069 A 
HETATM   10  C   UNK N   1      30.588  17.692   8.059  0.00  0.00     0.063 A 
HETATM   11  C   UNK N   1      29.801  17.161   5.796  0.00  0.00     0.034 A 
HETATM   12  C   UNK N   1      29.555  17.509   7.122  0.00  0.00     0.028 A 
ENDROOT
BRANCH   7  13
HETATM   13  N   UNK N   1      33.132  17.666   8.490  0.00  0.00    -0.188 N 
HETATM   14  C   UNK N   1      33.794  16.852   9.457  0.00  0.00     0.674 A 
HETATM   15  N   UNK N   1      34.940  17.279  10.122  0.00  0.00    -0.225 N 
HETATM   16  N   UNK N   1      33.428  15.694   9.804  0.00  0.00    -0.225 N 
HETATM   17  C   UNK N   1      35.365  16.242  11.024  0.00  0.00     0.158 A 
HETATM   18  H   UNK N   1      35.388  18.147   9.995  0.00  0.00     0.177 HD
HETATM   19  C   UNK N   1      34.307  15.135  10.801  0.00  0.00     0.158 A 
ATOM     20  HN  UNK N   1      32.612  15.214   9.424  1.00  0.00     0.177 HD
HETATM   21  H   UNK N   1      33.579  18.533   8.359  0.00  0.00     0.184 HD
ENDBRANCH   7  13
TORSDOF 1
ENDMDL
MODEL 3
REMARK VINA RESULT:      -5.5      2.576      6.110
REMARK  1 active torsions:
REMARK  status: ('A' for Active; 'I' for Inactive)
REMARK       I    between atoms: N_4  and  C_13 
REMARK    1  A    between atoms: N_4  and  C_14 
ROOT
HETATM    1 Cl   UNK N   1      32.314  17.187   2.943  0.00  0.00    -0.082 Cl
HETATM    2  S   UNK N   1      30.520  17.373   9.104  0.00  0.00     0.068 SA
HETATM    3  N   UNK N   1      29.833  17.226   7.624  0.00  0.00    -0.308 N 
ATOM      4  HN  UNK N   1      28.849  17.125   7.380  1.00  0.00     0.176 HD
HETATM    5  N   UNK N   1      32.128  17.499   8.837  0.00  0.00    -0.310 N 
ATOM      6  HN  UNK N   1      32.889  17.604   9.509  1.00  0.00     0.176 HD
HETATM    7  C   UNK N   1      30.848  17.189   5.400  0.00  0.00     0.100 A 
HETATM    8  C   UNK N   1      30.923  17.275   6.803  0.00  0.00     0.096 A 
HETATM    9  C   UNK N   1      32.185  17.425   7.479  0.00  0.00     0.069 A 
HETATM   10  C   UNK N   1      32.095  17.260   4.677  0.00  0.00     0.063 A 
HETATM   11  C   UNK N   1      33.364  17.489   6.765  0.00  0.00     0.034 A 
HETATM   12  C   UNK N   1      33.307  17.406   5.377  0.00  0.00     0.028 A 
ENDROOT
BRANCH   7  13
HETATM   13  N   UNK N   1      29.529  17.041   4.842  0.00  0.00    -0.188 N 
HETATM   14  C   UNK N   1      28.485  17.937   4.466  0.00  0.00     0.674 A 
HETATM   15  N   UNK N   1      27.277  17.487   3.940  0.00  0.00    -0.225 N 
HETATM   16  N   UNK N   1      28.539  19.196   4.562  0.00  0.00    -0.225 N 
HETATM   17  C   UNK N   1      26.440  18.624   3.663  0.00  0.00     0.158 A 
HETATM   18  H   UNK N   1      27.035  16.545   3.783  0.00  0.00     0.177 HD
HETATM   19  C   UNK N   1      27.324  19.818   4.098  0.00  0.00     0.158 A 
ATOM     20  HN  UNK N   1      29.344  19.708   4.923  1.00  0.00     0.177 HD
HETATM   21  H   UNK N   1      29.291  16.099   4.683  0.00  0.00     0.184 HD
ENDBRANCH   7  13
TORSDOF 1
ENDMDL
MODEL 4
REMARK VINA RESULT:      -5.5      8.025      9.974
REMARK  1 active torsions:
REMARK  status: ('A' for Active; 'I' for Inactive)
REMARK       I    between atoms: N_4  and  C_13 
REMARK    1  A    between atoms: N_4  and  C_14 
ROOT
HETATM    1 Cl   UNK N   1      22.243  19.979   3.062  0.00  0.00    -0.082 Cl
HETATM    2  S   UNK N   1      28.074  18.741   5.444  0.00  0.00     0.068 SA
HETATM    3  N   UNK N   1      26.516  18.316   5.717  0.00  0.00    -0.308 N 
ATOM      4  HN  UNK N   1      26.135  17.686   6.422  1.00  0.00     0.176 HD
HETATM    5  N   UNK N   1      28.037  19.780   4.182  0.00  0.00    -0.310 N 
ATOM      6  HN  UNK N   1      28.809  20.261   3.718  1.00  0.00     0.176 HD
HETATM    7  C   UNK N   1      24.463  18.997   4.577  0.00  0.00     0.100 A 
HETATM    8  C   UNK N   1      25.859  19.028   4.755  0.00  0.00     0.096 A 
HETATM    9  C   UNK N   1      26.705  19.832   3.911  0.00  0.00     0.069 A 
HETATM   10  C   UNK N   1      23.925  19.811   3.513  0.00  0.00     0.063 A 
HETATM   11  C   UNK N   1      26.166  20.600   2.899  0.00  0.00     0.034 A 
HETATM   12  C   UNK N   1      24.787  20.582   2.711  0.00  0.00     0.028 A 
ENDROOT
BRANCH   7  13
HETATM   13  N   UNK N   1      23.725  18.155   5.483  0.00  0.00    -0.188 N 
HETATM   14  C   UNK N   1      22.845  17.042   5.337  0.00  0.00     0.674 A 
HETATM   15  N   UNK N   1      22.259  16.415   6.432  0.00  0.00    -0.225 N 
HETATM   16  N   UNK N   1      22.513  16.519   4.236  0.00  0.00    -0.225 N 
HETATM   17  C   UNK N   1      21.432  15.336   5.961  0.00  0.00     0.158 A 
HETATM   18  H   UNK N   1      22.389  16.667   7.376  0.00  0.00     0.177 HD
HETATM   19  C   UNK N   1      21.611  15.410   4.425  0.00  0.00     0.158 A 
ATOM     20  HN  UNK N   1      22.843  16.841   3.326  1.00  0.00     0.177 HD
HETATM   21  H   UNK N   1      23.859  18.408   6.425  0.00  0.00     0.184 HD
ENDBRANCH   7  13
TORSDOF 1
ENDMDL
MODEL 5
REMARK VINA RESULT:      -5.5      5.593      8.428
REMARK  1 active torsions:
REMARK  status: ('A' for Active; 'I' for Inactive)
REMARK       I    between atoms: N_4  and  C_13 
REMARK    1  A    between atoms: N_4  and  C_14 
ROOT
HETATM    1 Cl   UNK N   1      33.748  10.417  12.659  0.00  0.00    -0.082 Cl
HETATM    2  S   UNK N   1      37.070  15.072  15.577  0.00  0.00     0.068 SA
HETATM    3  N   UNK N   1      36.760  14.546  14.057  0.00  0.00    -0.308 N 
ATOM      4  HN  UNK N   1      37.090  14.920  13.168  1.00  0.00     0.176 HD
HETATM    5  N   UNK N   1      36.255  14.062  16.572  0.00  0.00    -0.310 N 
ATOM      6  HN  UNK N   1      36.198  14.065  17.591  1.00  0.00     0.176 HD
HETATM    7  C   UNK N   1      35.397  12.674  13.272  0.00  0.00     0.100 A 
HETATM    8  C   UNK N   1      35.943  13.478  14.291  0.00  0.00     0.096 A 
HETATM    9  C   UNK N   1      35.668  13.217  15.680  0.00  0.00     0.069 A 
HETATM   10  C   UNK N   1      34.554  11.579  13.690  0.00  0.00     0.063 A 
HETATM   11  C   UNK N   1      34.857  12.165  16.053  0.00  0.00     0.034 A 
HETATM   12  C   UNK N   1      34.310  11.360  15.058  0.00  0.00     0.028 A 
ENDROOT
BRANCH   7  13
HETATM   13  N   UNK N   1      35.745  13.035  11.922  0.00  0.00    -0.188 N 
HETATM   14  C   UNK N   1      35.117  13.783  10.883  0.00  0.00     0.674 A 
HETATM   15  N   UNK N   1      35.713  13.965   9.639  0.00  0.00    -0.225 N 
HETATM   16  N   UNK N   1      33.989  14.346  10.974  0.00  0.00    -0.225 N 
HETATM   17  C   UNK N   1      34.838  14.758   8.817  0.00  0.00     0.158 A 
HETATM   18  H   UNK N   1      36.591  13.611   9.366  0.00  0.00     0.177 HD
HETATM   19  C   UNK N   1      33.633  15.023   9.751  0.00  0.00     0.158 A 
ATOM     20  HN  UNK N   1      33.404  14.324  11.809  1.00  0.00     0.177 HD
HETATM   21  H   UNK N   1      36.624  12.682  11.653  0.00  0.00     0.184 HD
ENDBRANCH   7  13
TORSDOF 1
ENDMDL
MODEL 6
REMARK VINA RESULT:      -5.3      3.233      6.820
REMARK  1 active torsions:
REMARK  status: ('A' for Active; 'I' for Inactive)
REMARK       I    between atoms: N_4  and  C_13 
REMARK    1  A    between atoms: N_4  and  C_14 
ROOT
HETATM    1 Cl   UNK N   1      28.667  15.780   4.080  0.00  0.00    -0.082 Cl
HETATM    2  S   UNK N   1      29.699  18.639   9.734  0.00  0.00     0.068 SA
HETATM    3  N   UNK N   1      28.545  18.584   8.573  0.00  0.00    -0.308 N 
ATOM      4  HN  UNK N   1      27.650  19.070   8.534  1.00  0.00     0.176 HD
HETATM    5  N   UNK N   1      30.893  17.646   9.221  0.00  0.00    -0.310 N 
ATOM      6  HN  UNK N   1      31.780  17.415   9.670  1.00  0.00     0.176 HD
HETATM    7  C   UNK N   1      28.468  17.342   6.469  0.00  0.00     0.100 A 
HETATM    8  C   UNK N   1      29.095  17.720   7.671  0.00  0.00     0.096 A 
HETATM    9  C   UNK N   1      30.390  17.206   8.035  0.00  0.00     0.069 A 
HETATM   10  C   UNK N   1      29.187  16.419   5.623  0.00  0.00     0.063 A 
HETATM   11  C   UNK N   1      31.056  16.322   7.210  0.00  0.00     0.034 A 
HETATM   12  C   UNK N   1      30.450  15.939   6.017  0.00  0.00     0.028 A 
ENDROOT
BRANCH   7  13
HETATM   13  N   UNK N   1      27.175  17.923   6.216  0.00  0.00    -0.188 N 
HETATM   14  C   UNK N   1      26.645  18.822   5.243  0.00  0.00     0.674 A 
HETATM   15  N   UNK N   1      25.312  19.221   5.255  0.00  0.00    -0.225 N 
HETATM   16  N   UNK N   1      27.302  19.335   4.294  0.00  0.00    -0.225 N 
HETATM   17  C   UNK N   1      25.088  20.120   4.155  0.00  0.00     0.158 A 
HETATM   18  H   UNK N   1      24.633  18.935   5.909  0.00  0.00     0.177 HD
HETATM   19  C   UNK N   1      26.480  20.199   3.483  0.00  0.00     0.158 A 
ATOM     20  HN  UNK N   1      28.292  19.158   4.122  1.00  0.00     0.177 HD
HETATM   21  H   UNK N   1      26.498  17.633   6.869  0.00  0.00     0.184 HD
ENDBRANCH   7  13
TORSDOF 1
ENDMDL
MODEL 7
REMARK VINA RESULT:      -5.3      7.516     10.449
REMARK  1 active torsions:
REMARK  status: ('A' for Active; 'I' for Inactive)
REMARK       I    between atoms: N_4  and  C_13 
REMARK    1  A    between atoms: N_4  and  C_14 
ROOT
HETATM    1 Cl   UNK N   1      34.826  13.574  17.372  0.00  0.00    -0.082 Cl
HETATM    2  S   UNK N   1      38.414   9.491  13.956  0.00  0.00     0.068 SA
HETATM    3  N   UNK N   1      37.959  11.065  13.914  0.00  0.00    -0.308 N 
ATOM      4  HN  UNK N   1      38.199  11.785  13.234  1.00  0.00     0.176 HD
HETATM    5  N   UNK N   1      37.704   8.859  15.286  0.00  0.00    -0.310 N 
ATOM      6  HN  UNK N   1      37.749   7.907  15.652  1.00  0.00     0.176 HD
HETATM    7  C   UNK N   1      36.534  12.345  15.433  0.00  0.00     0.100 A 
HETATM    8  C   UNK N   1      37.174  11.159  15.027  0.00  0.00     0.096 A 
HETATM    9  C   UNK N   1      37.039   9.938  15.779  0.00  0.00     0.069 A 
HETATM   10  C   UNK N   1      35.736  12.275  16.634  0.00  0.00     0.063 A 
HETATM   11  C   UNK N   1      36.272   9.898  16.926  0.00  0.00     0.034 A 
HETATM   12  C   UNK N   1      35.631  11.063  17.340  0.00  0.00     0.028 A 
ENDROOT
BRANCH   7  13
HETATM   13  N   UNK N   1      36.745  13.499  14.598  0.00  0.00    -0.188 N 
HETATM   14  C   UNK N   1      36.143  14.010  13.409  0.00  0.00     0.674 A 
HETATM   15  N   UNK N   1      36.579  15.187  12.807  0.00  0.00    -0.225 N 
HETATM   16  N   UNK N   1      35.180  13.471  12.794  0.00  0.00    -0.225 N 
HETATM   17  C   UNK N   1      35.779  15.433  11.638  0.00  0.00     0.158 A 
HETATM   18  H   UNK N   1      37.315  15.758  13.129  0.00  0.00     0.177 HD
HETATM   19  C   UNK N   1      34.801  14.233  11.630  0.00  0.00     0.158 A 
ATOM     20  HN  UNK N   1      34.727  12.606  13.086  1.00  0.00     0.177 HD
HETATM   21  H   UNK N   1      37.479  14.070  14.923  0.00  0.00     0.184 HD
ENDBRANCH   7  13
TORSDOF 1
ENDMDL
MODEL 8
REMARK VINA RESULT:      -5.1      4.612      6.170
REMARK  1 active torsions:
REMARK  status: ('A' for Active; 'I' for Inactive)
REMARK       I    between atoms: N_4  and  C_13 
REMARK    1  A    between atoms: N_4  and  C_14 
ROOT
HETATM    1 Cl   UNK N   1      38.127  12.364  11.193  0.00  0.00    -0.082 Cl
HETATM    2  S   UNK N   1      32.760  15.412   9.427  0.00  0.00     0.068 SA
HETATM    3  N   UNK N   1      33.383  14.683  10.755  0.00  0.00    -0.308 N 
ATOM      4  HN  UNK N   1      32.966  14.563  11.678  1.00  0.00     0.176 HD
HETATM    5  N   UNK N   1      33.906  15.279   8.268  0.00  0.00    -0.310 N 
ATOM      6  HN  UNK N   1      33.890  15.611   7.304  1.00  0.00     0.176 HD
HETATM    7  C   UNK N   1      35.541  13.585  11.097  0.00  0.00     0.100 A 
HETATM    8  C   UNK N   1      34.606  14.278  10.304  0.00  0.00     0.096 A 
HETATM    9  C   UNK N   1      34.888  14.611   8.932  0.00  0.00     0.069 A 
HETATM   10  C   UNK N   1      36.789  13.226  10.467  0.00  0.00     0.063 A 
HETATM   11  C   UNK N   1      36.090  14.258   8.353  0.00  0.00     0.034 A 
HETATM   12  C   UNK N   1      37.024  13.572   9.123  0.00  0.00     0.028 A 
ENDROOT
BRANCH   7  13
HETATM   13  N   UNK N   1      35.143  13.310  12.454  0.00  0.00    -0.188 N 
HETATM   14  C   UNK N   1      35.689  13.589  13.743  0.00  0.00     0.674 A 
HETATM   15  N   UNK N   1      35.061  13.179  14.915  0.00  0.00    -0.225 N 
HETATM   16  N   UNK N   1      36.763  14.219  13.955  0.00  0.00    -0.225 N 
HETATM   17  C   UNK N   1      35.851  13.609  16.038  0.00  0.00     0.158 A 
HETATM   18  H   UNK N   1      34.215  12.677  14.968  0.00  0.00     0.177 HD
HETATM   19  C   UNK N   1      37.040  14.336  15.365  0.00  0.00     0.158 A 
ATOM     20  HN  UNK N   1      37.359  14.599  13.220  1.00  0.00     0.177 HD
HETATM   21  H   UNK N   1      34.296  12.811  12.504  0.00  0.00     0.184 HD
ENDBRANCH   7  13
TORSDOF 1
ENDMDL
MODEL 9
REMARK VINA RESULT:      -5.1     13.338     14.217
REMARK  1 active torsions:
REMARK  status: ('A' for Active; 'I' for Inactive)
REMARK       I    between atoms: N_4  and  C_13 
REMARK    1  A    between atoms: N_4  and  C_14 
ROOT
HETATM    1 Cl   UNK N   1      40.685  24.681   0.838  0.00  0.00    -0.082 Cl
HETATM    2  S   UNK N   1      43.342  19.188   2.833  0.00  0.00     0.068 SA
HETATM    3  N   UNK N   1      43.648  20.797   2.886  0.00  0.00    -0.308 N 
ATOM      4  HN  UNK N   1      44.436  21.287   3.308  1.00  0.00     0.176 HD
HETATM    5  N   UNK N   1      41.931  19.031   2.020  0.00  0.00    -0.310 N 
ATOM      6  HN  UNK N   1      41.413  18.185   1.784  1.00  0.00     0.176 HD
HETATM    7  C   UNK N   1      42.377  22.685   1.995  0.00  0.00     0.100 A 
HETATM    8  C   UNK N   1      42.574  21.309   2.218  0.00  0.00     0.096 A 
HETATM    9  C   UNK N   1      41.631  20.330   1.744  0.00  0.00     0.069 A 
HETATM   10  C   UNK N   1      41.188  23.061   1.268  0.00  0.00     0.063 A 
HETATM   11  C   UNK N   1      40.500  20.716   1.053  0.00  0.00     0.034 A 
HETATM   12  C   UNK N   1      40.291  22.073   0.823  0.00  0.00     0.028 A 
ENDROOT
BRANCH   7  13
HETATM   13  N   UNK N   1      43.390  23.565   2.518  0.00  0.00    -0.188 N 
HETATM   14  C   UNK N   1      44.588  24.144   2.003  0.00  0.00     0.674 A 
HETATM   15  N   UNK N   1      45.393  24.980   2.771  0.00  0.00    -0.225 N 
HETATM   16  N   UNK N   1      45.035  23.969   0.834  0.00  0.00    -0.225 N 
HETATM   17  C   UNK N   1      46.517  25.398   1.976  0.00  0.00     0.158 A 
HETATM   18  H   UNK N   1      45.222  25.244   3.704  0.00  0.00     0.177 HD
HETATM   19  C   UNK N   1      46.265  24.690   0.622  0.00  0.00     0.158 A 
ATOM     20  HN  UNK N   1      44.580  23.390   0.129  1.00  0.00     0.177 HD
HETATM   21  H   UNK N   1      43.214  23.829   3.450  0.00  0.00     0.184 HD
ENDBRANCH   7  13
TORSDOF 1
ENDMDL
