MODEL 1
REMARK VINA RESULT:      -8.2      0.000      0.000
REMARK  5 active torsions:
REMARK  status: ('A' for Active; 'I' for Inactive)
REMARK    1  A    between atoms: C_9  and  O_2 
REMARK    2  A    between atoms: O_3  and  C_18 
REMARK    3  A    between atoms: O_3  and  C_27 
REMARK    4  A    between atoms: C_12  and  C_18 
REMARK    5  A    between atoms: C_27  and  C_28 
ROOT
HETATM    1  N   UNK N   1      33.594  16.457   5.869  0.00  0.00     0.092 N 
HETATM    2  N   UNK N   1      27.845  18.191   5.280  0.00  0.00    -0.360 N 
HETATM    3  C   UNK N   1      31.734  16.935   7.544  0.00  0.00     0.120 C 
HETATM    4  C   UNK N   1      32.264  17.106   6.064  0.00  0.00     0.265 C 
HETATM    5  C   UNK N   1      32.711  17.758   8.419  0.00  0.00     0.054 C 
HETATM    6  C   UNK N   1      34.181  17.611   8.013  0.00  0.00     0.042 C 
HETATM    7  C   UNK N   1      31.238  16.739   4.947  0.00  0.00     0.080 C 
HETATM    8  C   UNK N   1      30.329  17.507   7.684  0.00  0.00    -0.009 A 
HETATM    9  C   UNK N   1      34.425  16.418   7.089  0.00  0.00     0.279 C 
HETATM   10  C   UNK N   1      29.571  17.675   6.550  0.00  0.00     0.008 A 
HETATM   11  C   UNK N   1      29.917  17.363   5.275  0.00  0.00    -0.027 A 
HETATM   12  C   UNK N   1      28.312  18.168   6.541  0.00  0.00     0.045 A 
HETATM   13  C   UNK N   1      33.464  15.068   5.441  0.00  0.00     0.310 C 
HETATM   14  C   UNK N   1      29.727  17.853   8.915  0.00  0.00     0.011 A 
HETATM   15  C   UNK N   1      28.823  17.687   4.476  0.00  0.00     0.099 A 
HETATM   16  C   UNK N   1      27.683  18.549   7.730  0.00  0.00     0.030 A 
HETATM   17  C   UNK N   1      28.409  18.381   8.933  0.00  0.00     0.003 A 
HETATM   18  C   UNK N   1      26.535  18.645   4.845  0.00  0.00     0.155 C 
ENDROOT
BRANCH   6  19
HETATM   19  C   UNK N   1      35.087  17.599   9.238  0.00  0.00     0.185 C 
BRANCH  19  20
HETATM   20  O   UNK N   1      34.859  16.497  10.042  0.00  0.00    -0.317 OA
BRANCH  20  21
HETATM   21  C   UNK N   1      35.806  15.862  10.780  0.00  0.00     0.294 C 
HETATM   22  O   UNK N   1      36.957  16.266  10.716  0.00  0.00    -0.259 OA
BRANCH  21  23
HETATM   23  C   UNK N   1      35.505  14.690  11.647  0.00  0.00     0.056 A 
HETATM   24  C   UNK N   1      35.952  14.626  12.971  0.00  0.00     0.039 A 
HETATM   25  C   UNK N   1      35.683  13.502  13.748  0.00  0.00     0.027 A 
HETATM   26 Br   UNK N   1      36.340  13.397  15.532  0.00  0.00    -0.050 Br
HETATM   27  C   UNK N   1      34.951  12.450  13.199  0.00  0.00     0.106 A 
HETATM   28  N   UNK N   1      34.518  12.521  11.911  0.00  0.00    -0.373 N 
HETATM   29  C   UNK N   1      34.791  13.600  11.130  0.00  0.00     0.105 A 
ATOM     30  HN  UNK N   1      33.978  11.748  11.524  1.00  0.00     0.164 HD
ENDBRANCH  21  23
ENDBRANCH  20  21
ENDBRANCH  19  20
ENDBRANCH   6  19
BRANCH   3  31
HETATM   31  O   UNK N   1      31.737  15.547   7.862  0.00  0.00    -0.378 OA
HETATM   32  C   UNK N   1      31.849  15.347   9.249  0.00  0.00     0.203 C 
ENDBRANCH   3  31
TORSDOF 5
ENDMDL
MODEL 2
REMARK VINA RESULT:      -7.9      1.753      2.047
REMARK  5 active torsions:
REMARK  status: ('A' for Active; 'I' for Inactive)
REMARK    1  A    between atoms: C_9  and  O_2 
REMARK    2  A    between atoms: O_3  and  C_18 
REMARK    3  A    between atoms: O_3  and  C_27 
REMARK    4  A    between atoms: C_12  and  C_18 
REMARK    5  A    between atoms: C_27  and  C_28 
ROOT
HETATM    1  N   UNK N   1      33.483  16.574   5.542  0.00  0.00     0.092 N 
HETATM    2  N   UNK N   1      27.639  17.968   4.987  0.00  0.00    -0.360 N 
HETATM    3  C   UNK N   1      31.642  17.082   7.229  0.00  0.00     0.120 C 
HETATM    4  C   UNK N   1      32.127  17.168   5.726  0.00  0.00     0.265 C 
HETATM    5  C   UNK N   1      32.595  18.017   8.013  0.00  0.00     0.054 C 
HETATM    6  C   UNK N   1      34.061  17.913   7.578  0.00  0.00     0.042 C 
HETATM    7  C   UNK N   1      31.095  16.668   4.668  0.00  0.00     0.080 C 
HETATM    8  C   UNK N   1      30.212  17.592   7.365  0.00  0.00    -0.009 A 
HETATM    9  C   UNK N   1      34.344  16.668   6.738  0.00  0.00     0.279 C 
HETATM   10  C   UNK N   1      29.420  17.636   6.244  0.00  0.00     0.008 A 
HETATM   11  C   UNK N   1      29.751  17.247   4.986  0.00  0.00    -0.027 A 
HETATM   12  C   UNK N   1      28.137  18.064   6.233  0.00  0.00     0.045 A 
HETATM   13  C   UNK N   1      33.416  15.153   5.222  0.00  0.00     0.310 C 
HETATM   14  C   UNK N   1      29.623  17.999   8.583  0.00  0.00     0.011 A 
HETATM   15  C   UNK N   1      28.622  17.455   4.196  0.00  0.00     0.099 A 
HETATM   16  C   UNK N   1      27.518  18.500   7.408  0.00  0.00     0.030 A 
HETATM   17  C   UNK N   1      28.280  18.459   8.599  0.00  0.00     0.003 A 
HETATM   18  C   UNK N   1      26.298  18.322   4.557  0.00  0.00     0.155 C 
ENDROOT
BRANCH   6  19
HETATM   19  C   UNK N   1      34.995  18.039   8.775  0.00  0.00     0.185 C 
BRANCH  19  20
HETATM   20  O   UNK N   1      34.654  17.169   9.794  0.00  0.00    -0.317 OA
BRANCH  20  21
HETATM   21  C   UNK N   1      35.463  16.200  10.295  0.00  0.00     0.294 C 
HETATM   22  O   UNK N   1      36.522  16.536  10.803  0.00  0.00    -0.259 OA
BRANCH  21  23
HETATM   23  C   UNK N   1      35.124  14.752  10.239  0.00  0.00     0.056 A 
HETATM   24  C   UNK N   1      35.112  14.049   9.030  0.00  0.00     0.039 A 
HETATM   25  C   UNK N   1      34.760  12.703   9.004  0.00  0.00     0.027 A 
HETATM   26 Br   UNK N   1      34.693  11.765   7.349  0.00  0.00    -0.050 Br
HETATM   27  C   UNK N   1      34.435  12.058  10.198  0.00  0.00     0.106 A 
HETATM   28  N   UNK N   1      34.451  12.748  11.370  0.00  0.00    -0.373 N 
HETATM   29  C   UNK N   1      34.770  14.069  11.412  0.00  0.00     0.105 A 
ATOM     30  HN  UNK N   1      34.218  12.263  12.237  1.00  0.00     0.164 HD
ENDBRANCH  21  23
ENDBRANCH  20  21
ENDBRANCH  19  20
ENDBRANCH   6  19
BRANCH   3  31
HETATM   31  O   UNK N   1      31.725  15.724   7.647  0.00  0.00    -0.378 OA
HETATM   32  C   UNK N   1      31.739  15.628   9.050  0.00  0.00     0.203 C 
ENDBRANCH   3  31
TORSDOF 5
ENDMDL
MODEL 3
REMARK VINA RESULT:      -7.8      4.583     11.176
REMARK  5 active torsions:
REMARK  status: ('A' for Active; 'I' for Inactive)
REMARK    1  A    between atoms: C_9  and  O_2 
REMARK    2  A    between atoms: O_3  and  C_18 
REMARK    3  A    between atoms: O_3  and  C_27 
REMARK    4  A    between atoms: C_12  and  C_18 
REMARK    5  A    between atoms: C_27  and  C_28 
ROOT
HETATM    1  N   UNK N   1      35.466   9.051  14.030  0.00  0.00     0.092 N 
HETATM    2  N   UNK N   1      34.898   9.946  19.969  0.00  0.00    -0.360 N 
HETATM    3  C   UNK N   1      35.675  11.113  15.512  0.00  0.00     0.120 C 
HETATM    4  C   UNK N   1      35.151   9.627  15.370  0.00  0.00     0.265 C 
HETATM    5  C   UNK N   1      34.825  11.936  14.515  0.00  0.00     0.054 C 
HETATM    6  C   UNK N   1      34.591  11.235  13.173  0.00  0.00     0.042 C 
HETATM    7  C   UNK N   1      35.532   8.676  16.546  0.00  0.00     0.080 C 
HETATM    8  C   UNK N   1      35.441  11.635  16.925  0.00  0.00    -0.009 A 
HETATM    9  C   UNK N   1      35.535  10.054  12.949  0.00  0.00     0.279 C 
HETATM   10  C   UNK N   1      35.247  10.727  17.938  0.00  0.00     0.008 A 
HETATM   11  C   UNK N   1      35.262   9.373  17.844  0.00  0.00    -0.027 A 
HETATM   12  C   UNK N   1      35.034  11.062  19.230  0.00  0.00     0.045 A 
HETATM   13  C   UNK N   1      36.760   8.376  14.018  0.00  0.00     0.310 C 
HETATM   14  C   UNK N   1      35.440  13.002  17.280  0.00  0.00     0.011 A 
HETATM   15  C   UNK N   1      35.044   8.883  19.130  0.00  0.00     0.099 A 
HETATM   16  C   UNK N   1      34.998  12.401  19.627  0.00  0.00     0.030 A 
HETATM   17  C   UNK N   1      35.210  13.382  18.629  0.00  0.00     0.003 A 
HETATM   18  C   UNK N   1      34.661   9.873  21.401  0.00  0.00     0.155 C 
ENDROOT
BRANCH   6  19
HETATM   19  C   UNK N   1      34.619  12.235  12.023  0.00  0.00     0.185 C 
BRANCH  19  20
HETATM   20  O   UNK N   1      34.517  13.540  12.467  0.00  0.00    -0.317 OA
BRANCH  20  21
HETATM   21  C   UNK N   1      35.248  14.583  11.996  0.00  0.00     0.294 C 
HETATM   22  O   UNK N   1      36.331  14.810  12.512  0.00  0.00    -0.259 OA
BRANCH  21  23
HETATM   23  C   UNK N   1      34.781  15.468  10.894  0.00  0.00     0.056 A 
HETATM   24  C   UNK N   1      33.780  15.064  10.005  0.00  0.00     0.039 A 
HETATM   25  C   UNK N   1      33.386  15.902   8.965  0.00  0.00     0.027 A 
HETATM   26 Br   UNK N   1      32.062  15.325   7.724  0.00  0.00    -0.050 Br
HETATM   27  C   UNK N   1      33.988  17.152   8.828  0.00  0.00     0.106 A 
HETATM   28  N   UNK N   1      34.960  17.539   9.698  0.00  0.00    -0.373 N 
HETATM   29  C   UNK N   1      35.373  16.725  10.707  0.00  0.00     0.105 A 
ATOM     30  HN  UNK N   1      35.387  18.458   9.592  1.00  0.00     0.164 HD
ENDBRANCH  21  23
ENDBRANCH  20  21
ENDBRANCH  19  20
ENDBRANCH   6  19
BRANCH   3  31
HETATM   31  O   UNK N   1      37.065  11.127  15.204  0.00  0.00    -0.378 OA
HETATM   32  C   UNK N   1      37.461  12.387  14.718  0.00  0.00     0.203 C 
ENDBRANCH   3  31
TORSDOF 5
ENDMDL
MODEL 4
REMARK VINA RESULT:      -7.8      7.272     11.652
REMARK  5 active torsions:
REMARK  status: ('A' for Active; 'I' for Inactive)
REMARK    1  A    between atoms: C_9  and  O_2 
REMARK    2  A    between atoms: O_3  and  C_18 
REMARK    3  A    between atoms: O_3  and  C_27 
REMARK    4  A    between atoms: C_12  and  C_18 
REMARK    5  A    between atoms: C_27  and  C_28 
ROOT
HETATM    1  N   UNK N   1      27.281  20.129   5.058  0.00  0.00     0.092 N 
HETATM    2  N   UNK N   1      30.235  15.188   3.251  0.00  0.00    -0.360 N 
HETATM    3  C   UNK N   1      26.526  17.919   4.038  0.00  0.00     0.120 C 
HETATM    4  C   UNK N   1      27.724  18.916   4.310  0.00  0.00     0.265 C 
HETATM    5  C   UNK N   1      25.593  18.671   3.058  0.00  0.00     0.054 C 
HETATM    6  C   UNK N   1      25.413  20.156   3.390  0.00  0.00     0.042 C 
HETATM    7  C   UNK N   1      29.004  18.261   4.916  0.00  0.00     0.080 C 
HETATM    8  C   UNK N   1      27.027  16.641   3.375  0.00  0.00    -0.009 A 
HETATM    9  C   UNK N   1      25.877  20.509   4.803  0.00  0.00     0.279 C 
HETATM   10  C   UNK N   1      28.358  16.321   3.487  0.00  0.00     0.008 A 
HETATM   11  C   UNK N   1      29.317  17.009   4.157  0.00  0.00    -0.027 A 
HETATM   12  C   UNK N   1      28.924  15.216   2.949  0.00  0.00     0.045 A 
HETATM   13  C   UNK N   1      27.378  19.944   6.502  0.00  0.00     0.310 C 
HETATM   14  C   UNK N   1      26.206  15.732   2.672  0.00  0.00     0.011 A 
HETATM   15  C   UNK N   1      30.501  16.289   4.009  0.00  0.00     0.099 A 
HETATM   16  C   UNK N   1      28.158  14.301   2.222  0.00  0.00     0.030 A 
HETATM   17  C   UNK N   1      26.775  14.569   2.090  0.00  0.00     0.003 A 
HETATM   18  C   UNK N   1      31.194  14.168   2.866  0.00  0.00     0.155 C 
ENDROOT
BRANCH   6  19
HETATM   19  C   UNK N   1      23.985  20.608   3.111  0.00  0.00     0.185 C 
BRANCH  19  20
HETATM   20  O   UNK N   1      23.053  19.794   3.726  0.00  0.00    -0.317 OA
BRANCH  20  21
HETATM   21  C   UNK N   1      21.747  19.692   3.366  0.00  0.00     0.294 C 
HETATM   22  O   UNK N   1      21.033  20.675   3.497  0.00  0.00    -0.259 OA
BRANCH  21  23
HETATM   23  C   UNK N   1      21.147  18.438   2.836  0.00  0.00     0.056 A 
HETATM   24  C   UNK N   1      21.679  17.183   3.151  0.00  0.00     0.039 A 
HETATM   25  C   UNK N   1      21.116  16.028   2.614  0.00  0.00     0.027 A 
HETATM   26 Br   UNK N   1      21.877  14.326   3.001  0.00  0.00    -0.050 Br
HETATM   27  C   UNK N   1      20.007  16.134   1.774  0.00  0.00     0.106 A 
HETATM   28  N   UNK N   1      19.495  17.358   1.475  0.00  0.00    -0.373 N 
HETATM   29  C   UNK N   1      20.046  18.499   1.971  0.00  0.00     0.105 A 
ATOM     30  HN  UNK N   1      18.680  17.422   0.865  1.00  0.00     0.164 HD
ENDBRANCH  21  23
ENDBRANCH  20  21
ENDBRANCH  19  20
ENDBRANCH   6  19
BRANCH   3  31
HETATM   31  O   UNK N   1      25.903  17.619   5.282  0.00  0.00    -0.378 OA
HETATM   32  C   UNK N   1      24.666  16.979   5.085  0.00  0.00     0.203 C 
ENDBRANCH   3  31
TORSDOF 5
ENDMDL
MODEL 5
REMARK VINA RESULT:      -7.6      4.429      7.294
REMARK  5 active torsions:
REMARK  status: ('A' for Active; 'I' for Inactive)
REMARK    1  A    between atoms: C_9  and  O_2 
REMARK    2  A    between atoms: O_3  and  C_18 
REMARK    3  A    between atoms: O_3  and  C_27 
REMARK    4  A    between atoms: C_12  and  C_18 
REMARK    5  A    between atoms: C_27  and  C_28 
ROOT
HETATM    1  N   UNK N   1      26.066  15.128   5.422  0.00  0.00     0.092 N 
HETATM    2  N   UNK N   1      21.838  19.159   3.913  0.00  0.00    -0.360 N 
HETATM    3  C   UNK N   1      26.167  17.495   4.483  0.00  0.00     0.120 C 
HETATM    4  C   UNK N   1      25.289  16.205   4.741  0.00  0.00     0.265 C 
HETATM    5  C   UNK N   1      27.231  17.057   3.448  0.00  0.00     0.054 C 
HETATM    6  C   UNK N   1      27.812  15.663   3.708  0.00  0.00     0.042 C 
HETATM    7  C   UNK N   1      23.904  16.470   5.408  0.00  0.00     0.080 C 
HETATM    8  C   UNK N   1      25.319  18.615   3.891  0.00  0.00    -0.009 A 
HETATM    9  C   UNK N   1      27.510  15.148   5.115  0.00  0.00     0.279 C 
HETATM   10  C   UNK N   1      23.956  18.563   4.051  0.00  0.00     0.008 A 
HETATM   11  C   UNK N   1      23.240  17.619   4.714  0.00  0.00    -0.027 A 
HETATM   12  C   UNK N   1      23.097  19.494   3.577  0.00  0.00     0.045 A 
HETATM   13  C   UNK N   1      25.976  15.227   6.875  0.00  0.00     0.310 C 
HETATM   14  C   UNK N   1      25.843  19.736   3.208  0.00  0.00     0.011 A 
HETATM   15  C   UNK N   1      21.903  18.001   4.627  0.00  0.00     0.099 A 
HETATM   16  C   UNK N   1      23.564  20.607   2.873  0.00  0.00     0.030 A 
HETATM   17  C   UNK N   1      24.962  20.724   2.694  0.00  0.00     0.003 A 
HETATM   18  C   UNK N   1      20.628  19.898   3.599  0.00  0.00     0.155 C 
ENDROOT
BRANCH   6  19
HETATM   19  C   UNK N   1      29.298  15.621   3.373  0.00  0.00     0.185 C 
BRANCH  19  20
HETATM   20  O   UNK N   1      29.947  16.785   3.740  0.00  0.00    -0.317 OA
BRANCH  20  21
HETATM   21  C   UNK N   1      31.190  16.847   4.284  0.00  0.00     0.294 C 
HETATM   22  O   UNK N   1      32.152  16.691   3.547  0.00  0.00    -0.259 OA
BRANCH  21  23
HETATM   23  C   UNK N   1      31.430  17.078   5.734  0.00  0.00     0.056 A 
HETATM   24  C   UNK N   1      32.678  17.490   6.213  0.00  0.00     0.039 A 
HETATM   25  C   UNK N   1      32.881  17.667   7.579  0.00  0.00     0.027 A 
HETATM   26 Br   UNK N   1      34.597  18.174   8.230  0.00  0.00    -0.050 Br
HETATM   27  C   UNK N   1      31.824  17.448   8.462  0.00  0.00     0.106 A 
HETATM   28  N   UNK N   1      30.613  17.050   7.988  0.00  0.00    -0.373 N 
HETATM   29  C   UNK N   1      30.402  16.849   6.659  0.00  0.00     0.105 A 
ATOM     30  HN  UNK N   1      29.846  16.899   8.644  1.00  0.00     0.164 HD
ENDBRANCH  21  23
ENDBRANCH  20  21
ENDBRANCH  19  20
ENDBRANCH   6  19
BRANCH   3  31
HETATM   31  O   UNK N   1      26.732  17.905   5.723  0.00  0.00    -0.378 OA
HETATM   32  C   UNK N   1      27.726  18.881   5.526  0.00  0.00     0.203 C 
ENDBRANCH   3  31
TORSDOF 5
ENDMDL
MODEL 6
REMARK VINA RESULT:      -7.6      8.104     11.464
REMARK  5 active torsions:
REMARK  status: ('A' for Active; 'I' for Inactive)
REMARK    1  A    between atoms: C_9  and  O_2 
REMARK    2  A    between atoms: O_3  and  C_18 
REMARK    3  A    between atoms: O_3  and  C_27 
REMARK    4  A    between atoms: C_12  and  C_18 
REMARK    5  A    between atoms: C_27  and  C_28 
ROOT
HETATM    1  N   UNK N   1      20.059  16.745   5.910  0.00  0.00     0.092 N 
HETATM    2  N   UNK N   1      22.616  13.123  10.002  0.00  0.00    -0.360 N 
HETATM    3  C   UNK N   1      22.231  15.413   5.947  0.00  0.00     0.120 C 
HETATM    4  C   UNK N   1      21.038  16.031   6.782  0.00  0.00     0.265 C 
HETATM    5  C   UNK N   1      23.007  16.631   5.392  0.00  0.00     0.054 C 
HETATM    6  C   UNK N   1      22.106  17.763   4.887  0.00  0.00     0.042 C 
HETATM    7  C   UNK N   1      20.357  15.053   7.788  0.00  0.00     0.080 C 
HETATM    8  C   UNK N   1      23.152  14.597   6.846  0.00  0.00    -0.009 A 
HETATM    9  C   UNK N   1      20.655  17.323   4.689  0.00  0.00     0.279 C 
HETATM   10  C   UNK N   1      22.667  14.148   8.051  0.00  0.00     0.008 A 
HETATM   11  C   UNK N   1      21.418  14.323   8.552  0.00  0.00    -0.027 A 
HETATM   12  C   UNK N   1      23.381  13.413   8.934  0.00  0.00     0.045 A 
HETATM   13  C   UNK N   1      18.999  15.858   5.443  0.00  0.00     0.310 C 
HETATM   14  C   UNK N   1      24.477  14.235   6.514  0.00  0.00     0.011 A 
HETATM   15  C   UNK N   1      21.389  13.672   9.784  0.00  0.00     0.099 A 
HETATM   16  C   UNK N   1      24.703  13.052   8.662  0.00  0.00     0.030 A 
HETATM   17  C   UNK N   1      25.251  13.471   7.426  0.00  0.00     0.003 A 
HETATM   18  C   UNK N   1      23.008  12.350  11.168  0.00  0.00     0.155 C 
ENDROOT
BRANCH   6  19
HETATM   19  C   UNK N   1      22.695  18.417   3.644  0.00  0.00     0.185 C 
BRANCH  19  20
HETATM   20  O   UNK N   1      23.463  19.524   3.954  0.00  0.00    -0.317 OA
BRANCH  20  21
HETATM   21  C   UNK N   1      24.617  19.873   3.328  0.00  0.00     0.294 C 
HETATM   22  O   UNK N   1      24.550  20.631   2.372  0.00  0.00    -0.259 OA
BRANCH  21  23
HETATM   23  C   UNK N   1      25.951  19.363   3.745  0.00  0.00     0.056 A 
HETATM   24  C   UNK N   1      26.156  18.014   4.049  0.00  0.00     0.039 A 
HETATM   25  C   UNK N   1      27.409  17.571   4.467  0.00  0.00     0.027 A 
HETATM   26 Br   UNK N   1      27.669  15.743   4.931  0.00  0.00    -0.050 Br
HETATM   27  C   UNK N   1      28.459  18.484   4.564  0.00  0.00     0.106 A 
HETATM   28  N   UNK N   1      28.252  19.795   4.265  0.00  0.00    -0.373 N 
HETATM   29  C   UNK N   1      27.030  20.249   3.877  0.00  0.00     0.105 A 
ATOM     30  HN  UNK N   1      29.029  20.450   4.334  1.00  0.00     0.164 HD
ENDBRANCH  21  23
ENDBRANCH  20  21
ENDBRANCH  19  20
ENDBRANCH   6  19
BRANCH   3  31
HETATM   31  O   UNK N   1      21.681  14.589   4.925  0.00  0.00    -0.378 OA
HETATM   32  C   UNK N   1      22.595  14.416   3.870  0.00  0.00     0.203 C 
ENDBRANCH   3  31
TORSDOF 5
ENDMDL
MODEL 7
REMARK VINA RESULT:      -7.5      8.123     10.315
REMARK  5 active torsions:
REMARK  status: ('A' for Active; 'I' for Inactive)
REMARK    1  A    between atoms: C_9  and  O_2 
REMARK    2  A    between atoms: O_3  and  C_18 
REMARK    3  A    between atoms: O_3  and  C_27 
REMARK    4  A    between atoms: C_12  and  C_18 
REMARK    5  A    between atoms: C_27  and  C_28 
ROOT
HETATM    1  N   UNK N   1      26.379  16.567   5.654  0.00  0.00     0.092 N 
HETATM    2  N   UNK N   1      21.812  19.609   3.146  0.00  0.00    -0.360 N 
HETATM    3  C   UNK N   1      24.049  15.889   4.875  0.00  0.00     0.120 C 
HETATM    4  C   UNK N   1      25.025  17.068   5.277  0.00  0.00     0.265 C 
HETATM    5  C   UNK N   1      23.828  15.087   6.180  0.00  0.00     0.054 C 
HETATM    6  C   UNK N   1      25.099  14.900   7.016  0.00  0.00     0.042 C 
HETATM    7  C   UNK N   1      25.074  18.258   4.270  0.00  0.00     0.080 C 
HETATM    8  C   UNK N   1      22.713  16.437   4.388  0.00  0.00    -0.009 A 
HETATM    9  C   UNK N   1      26.375  15.209   6.233  0.00  0.00     0.279 C 
HETATM   10  C   UNK N   1      22.654  17.740   3.958  0.00  0.00     0.008 A 
HETATM   11  C   UNK N   1      23.676  18.631   3.886  0.00  0.00    -0.027 A 
HETATM   12  C   UNK N   1      21.532  18.342   3.501  0.00  0.00     0.045 A 
HETATM   13  C   UNK N   1      27.273  16.497   4.503  0.00  0.00     0.310 C 
HETATM   14  C   UNK N   1      21.520  15.682   4.314  0.00  0.00     0.011 A 
HETATM   15  C   UNK N   1      23.140  19.809   3.370  0.00  0.00     0.099 A 
HETATM   16  C   UNK N   1      20.322  17.645   3.433  0.00  0.00     0.030 A 
HETATM   17  C   UNK N   1      20.327  16.291   3.845  0.00  0.00     0.003 A 
HETATM   18  C   UNK N   1      20.883  20.586   2.604  0.00  0.00     0.155 C 
ENDROOT
BRANCH   6  19
HETATM   19  C   UNK N   1      25.127  13.522   7.665  0.00  0.00     0.185 C 
BRANCH  19  20
HETATM   20  O   UNK N   1      25.136  13.598   9.045  0.00  0.00    -0.317 OA
BRANCH  20  21
HETATM   21  C   UNK N   1      24.349  12.861   9.872  0.00  0.00     0.294 C 
HETATM   22  O   UNK N   1      24.870  11.968  10.522  0.00  0.00    -0.259 OA
BRANCH  21  23
HETATM   23  C   UNK N   1      22.884  13.084  10.007  0.00  0.00     0.056 A 
HETATM   24  C   UNK N   1      22.242  14.144   9.360  0.00  0.00     0.039 A 
HETATM   25  C   UNK N   1      20.875  14.346   9.531  0.00  0.00     0.027 A 
HETATM   26 Br   UNK N   1      20.016  15.823   8.691  0.00  0.00    -0.050 Br
HETATM   27  C   UNK N   1      20.151  13.472  10.341  0.00  0.00     0.106 A 
HETATM   28  N   UNK N   1      20.782  12.441  10.965  0.00  0.00    -0.373 N 
HETATM   29  C   UNK N   1      22.121  12.242  10.828  0.00  0.00     0.105 A 
ATOM     30  HN  UNK N   1      20.240  11.805  11.549  1.00  0.00     0.164 HD
ENDBRANCH  21  23
ENDBRANCH  20  21
ENDBRANCH  19  20
ENDBRANCH   6  19
BRANCH   3  31
HETATM   31  O   UNK N   1      24.673  15.124   3.850  0.00  0.00    -0.378 OA
HETATM   32  C   UNK N   1      24.130  13.828   3.786  0.00  0.00     0.203 C 
ENDBRANCH   3  31
TORSDOF 5
ENDMDL
MODEL 8
REMARK VINA RESULT:      -7.5     15.203     17.859
REMARK  5 active torsions:
REMARK  status: ('A' for Active; 'I' for Inactive)
REMARK    1  A    between atoms: C_9  and  O_2 
REMARK    2  A    between atoms: O_3  and  C_18 
REMARK    3  A    between atoms: O_3  and  C_27 
REMARK    4  A    between atoms: C_12  and  C_18 
REMARK    5  A    between atoms: C_27  and  C_28 
ROOT
HETATM    1  N   UNK N   1      26.726  24.491  -9.736  0.00  0.00     0.092 N 
HETATM    2  N   UNK N   1      26.447  27.744  -4.663  0.00  0.00    -0.360 N 
HETATM    3  C   UNK N   1      26.540  23.869  -7.272  0.00  0.00     0.120 C 
HETATM    4  C   UNK N   1      26.892  24.983  -8.338  0.00  0.00     0.265 C 
HETATM    5  C   UNK N   1      27.634  22.787  -7.445  0.00  0.00     0.054 C 
HETATM    6  C   UNK N   1      27.990  22.494  -8.906  0.00  0.00     0.042 C 
HETATM    7  C   UNK N   1      26.214  26.368  -8.096  0.00  0.00     0.080 C 
HETATM    8  C   UNK N   1      26.609  24.433  -5.858  0.00  0.00    -0.009 A 
HETATM    9  C   UNK N   1      26.955  23.040  -9.890  0.00  0.00     0.279 C 
HETATM   10  C   UNK N   1      26.525  25.794  -5.688  0.00  0.00     0.008 A 
HETATM   11  C   UNK N   1      26.358  26.735  -6.651  0.00  0.00    -0.027 A 
HETATM   12  C   UNK N   1      26.570  26.416  -4.488  0.00  0.00     0.045 A 
HETATM   13  C   UNK N   1      25.378  24.727 -10.240  0.00  0.00     0.310 C 
HETATM   14  C   UNK N   1      26.723  23.646  -4.690  0.00  0.00     0.011 A 
HETATM   15  C   UNK N   1      26.306  27.966  -6.000  0.00  0.00     0.099 A 
HETATM   16  C   UNK N   1      26.707  25.683  -3.306  0.00  0.00     0.030 A 
HETATM   17  C   UNK N   1      26.780  24.275  -3.418  0.00  0.00     0.003 A 
HETATM   18  C   UNK N   1      26.441  28.762  -3.626  0.00  0.00     0.155 C 
ENDROOT
BRANCH   6  19
HETATM   19  C   UNK N   1      28.269  21.010  -9.112  0.00  0.00     0.185 C 
BRANCH  19  20
HETATM   20  O   UNK N   1      28.411  20.337  -7.913  0.00  0.00    -0.317 OA
BRANCH  20  21
HETATM   21  C   UNK N   1      29.533  19.684  -7.513  0.00  0.00     0.294 C 
HETATM   22  O   UNK N   1      29.749  18.572  -7.971  0.00  0.00    -0.259 OA
BRANCH  21  23
HETATM   23  C   UNK N   1      30.498  20.255  -6.535  0.00  0.00     0.056 A 
HETATM   24  C   UNK N   1      30.071  21.036  -5.457  0.00  0.00     0.039 A 
HETATM   25  C   UNK N   1      31.000  21.584  -4.576  0.00  0.00     0.027 A 
HETATM   26 Br   UNK N   1      30.417  22.691  -3.141  0.00  0.00    -0.050 Br
HETATM   27  C   UNK N   1      32.358  21.332  -4.770  0.00  0.00     0.106 A 
HETATM   28  N   UNK N   1      32.765  20.569  -5.820  0.00  0.00    -0.373 N 
HETATM   29  C   UNK N   1      31.874  20.045  -6.704  0.00  0.00     0.105 A 
ATOM     30  HN  UNK N   1      33.760  20.387  -5.947  1.00  0.00     0.164 HD
ENDBRANCH  21  23
ENDBRANCH  20  21
ENDBRANCH  19  20
ENDBRANCH   6  19
BRANCH   3  31
HETATM   31  O   UNK N   1      25.230  23.385  -7.548  0.00  0.00    -0.378 OA
HETATM   32  C   UNK N   1      25.081  22.056  -7.114  0.00  0.00     0.203 C 
ENDBRANCH   3  31
TORSDOF 5
ENDMDL
MODEL 9
REMARK VINA RESULT:      -7.5      2.807      8.876
REMARK  5 active torsions:
REMARK  status: ('A' for Active; 'I' for Inactive)
REMARK    1  A    between atoms: C_9  and  O_2 
REMARK    2  A    between atoms: O_3  and  C_18 
REMARK    3  A    between atoms: O_3  and  C_27 
REMARK    4  A    between atoms: C_12  and  C_18 
REMARK    5  A    between atoms: C_27  and  C_28 
ROOT
HETATM    1  N   UNK N   1      34.643  13.181   9.817  0.00  0.00     0.092 N 
HETATM    2  N   UNK N   1      34.809  10.644  15.288  0.00  0.00    -0.360 N 
HETATM    3  C   UNK N   1      35.826  13.793  11.989  0.00  0.00     0.120 C 
HETATM    4  C   UNK N   1      34.683  12.952  11.291  0.00  0.00     0.265 C 
HETATM    5  C   UNK N   1      35.394  15.270  11.829  0.00  0.00     0.054 C 
HETATM    6  C   UNK N   1      34.809  15.599  10.451  0.00  0.00     0.042 C 
HETATM    7  C   UNK N   1      34.646  11.440  11.673  0.00  0.00     0.080 C 
HETATM    8  C   UNK N   1      35.916  13.453  13.472  0.00  0.00    -0.009 A 
HETATM    9  C   UNK N   1      35.107  14.522   9.408  0.00  0.00     0.279 C 
HETATM   10  C   UNK N   1      35.380  12.266  13.909  0.00  0.00     0.008 A 
HETATM   11  C   UNK N   1      34.779  11.309  13.158  0.00  0.00    -0.027 A 
HETATM   12  C   UNK N   1      35.399  11.849  15.196  0.00  0.00     0.045 A 
HETATM   13  C   UNK N   1      35.491  12.238   9.096  0.00  0.00     0.310 C 
HETATM   14  C   UNK N   1      36.548  14.266  14.440  0.00  0.00     0.011 A 
HETATM   15  C   UNK N   1      34.422  10.284  14.033  0.00  0.00     0.099 A 
HETATM   16  C   UNK N   1      35.989  12.630  16.194  0.00  0.00     0.030 A 
HETATM   17  C   UNK N   1      36.575  13.856  15.799  0.00  0.00     0.003 A 
HETATM   18  C   UNK N   1      34.630   9.853  16.494  0.00  0.00     0.155 C 
ENDROOT
BRANCH   6  19
HETATM   19  C   UNK N   1      35.232  16.990   9.996  0.00  0.00     0.185 C 
BRANCH  19  20
HETATM   20  O   UNK N   1      34.156  17.749   9.575  0.00  0.00    -0.317 OA
BRANCH  20  21
HETATM   21  C   UNK N   1      33.807  17.956   8.279  0.00  0.00     0.294 C 
HETATM   22  O   UNK N   1      34.639  18.438   7.526  0.00  0.00    -0.259 OA
BRANCH  21  23
HETATM   23  C   UNK N   1      32.456  17.638   7.743  0.00  0.00     0.056 A 
HETATM   24  C   UNK N   1      31.299  17.858   8.497  0.00  0.00     0.039 A 
HETATM   25  C   UNK N   1      30.050  17.520   7.981  0.00  0.00     0.027 A 
HETATM   26 Br   UNK N   1      28.483  17.771   9.033  0.00  0.00    -0.050 Br
HETATM   27  C   UNK N   1      29.965  16.976   6.700  0.00  0.00     0.106 A 
HETATM   28  N   UNK N   1      31.094  16.767   5.972  0.00  0.00    -0.373 N 
HETATM   29  C   UNK N   1      32.324  17.069   6.468  0.00  0.00     0.105 A 
ATOM     30  HN  UNK N   1      31.018  16.375   5.034  1.00  0.00     0.164 HD
ENDBRANCH  21  23
ENDBRANCH  20  21
ENDBRANCH  19  20
ENDBRANCH   6  19
BRANCH   3  31
HETATM   31  O   UNK N   1      37.057  13.498  11.339  0.00  0.00    -0.378 OA
HETATM   32  C   UNK N   1      37.757  12.484  12.018  0.00  0.00     0.203 C 
ENDBRANCH   3  31
TORSDOF 5
ENDMDL
