MODEL 1
REMARK VINA RESULT:      -7.1      0.000      0.000
REMARK  14 active torsions:
REMARK  status: ('A' for Active; 'I' for Inactive)
REMARK    1  A    between atoms: S_1  and  N_8 
REMARK    2  A    between atoms: S_1  and  C_22 
REMARK    3  A    between atoms: C_11  and  O_2 
REMARK    4  A    between atoms: C_17  and  O_3 
REMARK    5  A    between atoms: O_3  and  C_24 
REMARK    6  A    between atoms: N_8  and  C_13 
REMARK    7  A    between atoms: N_8  and  C_14 
REMARK    8  A    between atoms: C_12  and  N_9 
REMARK       I    between atoms: N_9  and  C_24 
REMARK    9  A    between atoms: N_10  and  C_34 
REMARK   10  A    between atoms: C_11  and  C_12 
REMARK   11  A    between atoms: C_11  and  C_13 
REMARK   12  A    between atoms: C_12  and  C_15 
REMARK   13  A    between atoms: C_14  and  C_16 
REMARK   14  A    between atoms: C_15  and  C_18 
ROOT
HETATM    1  C   UNK N   1      19.719  15.840   6.279  0.00  0.00     0.155 C 
ENDROOT
BRANCH   1   2
HETATM    2  O   UNK N   1      18.377  15.963   5.917  0.00  0.00    -0.392 OA
HETATM    3  H   UNK N   1      17.603  16.226   5.394  0.00  0.00     0.210 HD
ENDBRANCH   1   2
BRANCH   1   4
HETATM    4  C   UNK N   1      19.988  16.198   7.739  0.00  0.00     0.120 C 
BRANCH   4   5
HETATM    5  N   UNK N   1      20.917  15.374   8.509  0.00  0.00    -0.329 N 
HETATM    6  C   UNK N   1      20.602  14.459   9.469  0.00  0.00     0.361 C 
HETATM    7  O   UNK N   1      19.449  14.205   9.751  0.00  0.00    -0.238 OA
HETATM    8  H   UNK N   1      21.875  15.492   8.313  0.00  0.00     0.165 HD
BRANCH   6   9
HETATM    9  O   UNK N   1      21.593  13.807  10.118  0.00  0.00    -0.296 OA
BRANCH   9  10
HETATM   10  C   UNK N   1      21.725  12.439  10.043  0.00  0.00     0.159 C 
HETATM   11  C   UNK N   1      22.563  11.974  11.190  0.00  0.00     0.061 C 
HETATM   12  C   UNK N   1      23.984  12.120  10.671  0.00  0.00     0.170 C 
HETATM   13  O   UNK N   1      23.945  12.381   9.288  0.00  0.00    -0.389 OA
HETATM   14  C   UNK N   1      22.634  12.080   8.889  0.00  0.00     0.200 C 
ENDBRANCH   9  10
ENDBRANCH   6   9
ENDBRANCH   4   5
BRANCH   4  15
HETATM   15  C   UNK N   1      20.123  17.689   8.006  0.00  0.00     0.066 C 
BRANCH  15  16
HETATM   16  C   UNK N   1      19.159  18.084   9.072  0.00  0.00    -0.056 A 
HETATM   17  C   UNK N   1      19.496  19.082   9.995  0.00  0.00     0.007 A 
HETATM   18  C   UNK N   1      18.604  19.421  11.016  0.00  0.00     0.001 A 
HETATM   19  C   UNK N   1      17.376  18.758  11.121  0.00  0.00     0.000 A 
HETATM   20  C   UNK N   1      17.038  17.762  10.201  0.00  0.00     0.001 A 
HETATM   21  C   UNK N   1      17.928  17.425   9.175  0.00  0.00     0.007 A 
ENDBRANCH  15  16
ENDBRANCH   4  15
ENDBRANCH   1   4
BRANCH   1  22
HETATM   22  C   UNK N   1      20.649  16.643   5.376  0.00  0.00     0.141 C 
BRANCH  22  23
HETATM   23  N   UNK N   1      21.476  15.819   4.496  0.00  0.00    -0.204 NA
BRANCH  23  24
HETATM   24  S   UNK N   1      23.205  15.802   4.933  0.00  0.00     0.243 S 
HETATM   25  O   UNK N   1      23.144  16.006   6.452  0.00  0.00    -0.206 OA
HETATM   26  O   UNK N   1      23.711  14.350   4.891  0.00  0.00    -0.206 OA
BRANCH  24  27
HETATM   27  C   UNK N   1      24.384  17.007   4.340  0.00  0.00     0.074 A 
HETATM   28  C   UNK N   1      24.170  18.366   4.585  0.00  0.00     0.027 A 
HETATM   29  C   UNK N   1      25.190  19.289   4.344  0.00  0.00     0.030 A 
HETATM   30  C   UNK N   1      26.433  18.850   3.877  0.00  0.00     0.025 A 
HETATM   31  C   UNK N   1      26.641  17.494   3.609  0.00  0.00     0.030 A 
HETATM   32  C   UNK N   1      25.619  16.572   3.847  0.00  0.00     0.027 A 
BRANCH  30  33
HETATM   33  N   UNK N   1      27.488  19.769   3.714  0.00  0.00    -0.399 N 
HETATM   34  H   UNK N   1      28.376  19.491   3.392  0.00  0.00     0.156 HD
HETATM   35  H   UNK N   1      27.332  20.718   3.928  0.00  0.00     0.156 HD
ENDBRANCH  30  33
ENDBRANCH  24  27
ENDBRANCH  23  24
BRANCH  23  36
HETATM   36  C   UNK N   1      20.935  14.477   4.354  0.00  0.00     0.111 C 
BRANCH  36  37
HETATM   37  C   UNK N   1      20.249  14.351   3.000  0.00  0.00    -0.009 C 
HETATM   38  C   UNK N   1      21.190  14.794   1.903  0.00  0.00     0.011 C 
HETATM   39  C   UNK N   1      19.820  12.916   2.746  0.00  0.00     0.011 C 
ENDBRANCH  36  37
ENDBRANCH  23  36
ENDBRANCH  22  23
ENDBRANCH   1  22
TORSDOF 14
ENDMDL
MODEL 2
REMARK VINA RESULT:      -7.0      3.145      7.894
REMARK  14 active torsions:
REMARK  status: ('A' for Active; 'I' for Inactive)
REMARK    1  A    between atoms: S_1  and  N_8 
REMARK    2  A    between atoms: S_1  and  C_22 
REMARK    3  A    between atoms: C_11  and  O_2 
REMARK    4  A    between atoms: C_17  and  O_3 
REMARK    5  A    between atoms: O_3  and  C_24 
REMARK    6  A    between atoms: N_8  and  C_13 
REMARK    7  A    between atoms: N_8  and  C_14 
REMARK    8  A    between atoms: C_12  and  N_9 
REMARK       I    between atoms: N_9  and  C_24 
REMARK    9  A    between atoms: N_10  and  C_34 
REMARK   10  A    between atoms: C_11  and  C_12 
REMARK   11  A    between atoms: C_11  and  C_13 
REMARK   12  A    between atoms: C_12  and  C_15 
REMARK   13  A    between atoms: C_14  and  C_16 
REMARK   14  A    between atoms: C_15  and  C_18 
ROOT
HETATM    1  C   UNK N   1      22.040  17.444   5.991  0.00  0.00     0.155 C 
ENDROOT
BRANCH   1   2
HETATM    2  O   UNK N   1      21.517  18.560   6.646  0.00  0.00    -0.392 OA
HETATM    3  H   UNK N   1      21.141  19.091   7.365  0.00  0.00     0.210 HD
ENDBRANCH   1   2
BRANCH   1   4
HETATM    4  C   UNK N   1      22.171  17.631   4.482  0.00  0.00     0.120 C 
BRANCH   4   5
HETATM    5  N   UNK N   1      21.364  16.797   3.594  0.00  0.00    -0.329 N 
HETATM    6  C   UNK N   1      21.801  15.783   2.796  0.00  0.00     0.361 C 
HETATM    7  O   UNK N   1      22.965  15.437   2.790  0.00  0.00    -0.238 OA
HETATM    8  H   UNK N   1      20.397  16.989   3.569  0.00  0.00     0.165 HD
BRANCH   6   9
HETATM    9  O   UNK N   1      20.922  15.135   2.000  0.00  0.00    -0.296 OA
BRANCH   9  10
HETATM   10  C   UNK N   1      20.793  13.764   2.035  0.00  0.00     0.159 C 
HETATM   11  C   UNK N   1      20.495  13.275   0.654  0.00  0.00     0.061 C 
HETATM   12  C   UNK N   1      18.983  13.395   0.556  0.00  0.00     0.170 C 
HETATM   13  O   UNK N   1      18.458  13.667   1.835  0.00  0.00    -0.389 OA
HETATM   14  C   UNK N   1      19.503  13.395   2.731  0.00  0.00     0.200 C 
ENDBRANCH   9  10
ENDBRANCH   6   9
ENDBRANCH   4   5
BRANCH   4  15
HETATM   15  C   UNK N   1      22.276  19.081   4.035  0.00  0.00     0.066 C 
BRANCH  15  16
HETATM   16  C   UNK N   1      23.704  19.406   3.759  0.00  0.00    -0.056 A 
HETATM   17  C   UNK N   1      24.727  18.672   4.371  0.00  0.00     0.007 A 
HETATM   18  C   UNK N   1      26.064  19.008   4.138  0.00  0.00     0.001 A 
HETATM   19  C   UNK N   1      26.381  20.081   3.299  0.00  0.00     0.000 A 
HETATM   20  C   UNK N   1      25.360  20.814   2.686  0.00  0.00     0.001 A 
HETATM   21  C   UNK N   1      24.022  20.477   2.915  0.00  0.00     0.007 A 
ENDBRANCH  15  16
ENDBRANCH   4  15
ENDBRANCH   1   4
BRANCH   1  22
HETATM   22  C   UNK N   1      21.257  16.169   6.283  0.00  0.00     0.141 C 
BRANCH  22  23
HETATM   23  N   UNK N   1      22.018  15.162   7.020  0.00  0.00    -0.204 NA
BRANCH  23  24
HETATM   24  S   UNK N   1      21.005  13.962   7.866  0.00  0.00     0.243 S 
HETATM   25  O   UNK N   1      19.845  14.833   8.366  0.00  0.00    -0.206 OA
HETATM   26  O   UNK N   1      20.258  13.120   6.818  0.00  0.00    -0.206 OA
BRANCH  24  27
HETATM   27  C   UNK N   1      21.554  13.038   9.293  0.00  0.00     0.074 A 
HETATM   28  C   UNK N   1      22.915  12.765   9.461  0.00  0.00     0.027 A 
HETATM   29  C   UNK N   1      23.382  12.262  10.678  0.00  0.00     0.030 A 
HETATM   30  C   UNK N   1      22.490  12.052  11.735  0.00  0.00     0.025 A 
HETATM   31  C   UNK N   1      21.126  12.303  11.561  0.00  0.00     0.030 A 
HETATM   32  C   UNK N   1      20.660  12.803  10.343  0.00  0.00     0.027 A 
BRANCH  30  33
HETATM   33  N   UNK N   1      22.973  11.625  12.987  0.00  0.00    -0.399 N 
HETATM   34  H   UNK N   1      23.773  12.024  13.400  0.00  0.00     0.156 HD
HETATM   35  H   UNK N   1      22.497  10.907  13.463  0.00  0.00     0.156 HD
ENDBRANCH  30  33
ENDBRANCH  24  27
ENDBRANCH  23  24
BRANCH  23  36
HETATM   36  C   UNK N   1      23.025  14.532   6.181  0.00  0.00     0.111 C 
BRANCH  36  37
HETATM   37  C   UNK N   1      24.384  14.635   6.861  0.00  0.00    -0.009 C 
HETATM   38  C   UNK N   1      25.080  13.294   6.824  0.00  0.00     0.011 C 
HETATM   39  C   UNK N   1      25.253  15.673   6.174  0.00  0.00     0.011 C 
ENDBRANCH  36  37
ENDBRANCH  23  36
ENDBRANCH  22  23
ENDBRANCH   1  22
TORSDOF 14
ENDMDL
MODEL 3
REMARK VINA RESULT:      -7.0     10.869     14.558
REMARK  14 active torsions:
REMARK  status: ('A' for Active; 'I' for Inactive)
REMARK    1  A    between atoms: S_1  and  N_8 
REMARK    2  A    between atoms: S_1  and  C_22 
REMARK    3  A    between atoms: C_11  and  O_2 
REMARK    4  A    between atoms: C_17  and  O_3 
REMARK    5  A    between atoms: O_3  and  C_24 
REMARK    6  A    between atoms: N_8  and  C_13 
REMARK    7  A    between atoms: N_8  and  C_14 
REMARK    8  A    between atoms: C_12  and  N_9 
REMARK       I    between atoms: N_9  and  C_24 
REMARK    9  A    between atoms: N_10  and  C_34 
REMARK   10  A    between atoms: C_11  and  C_12 
REMARK   11  A    between atoms: C_11  and  C_13 
REMARK   12  A    between atoms: C_12  and  C_15 
REMARK   13  A    between atoms: C_14  and  C_16 
REMARK   14  A    between atoms: C_15  and  C_18 
ROOT
HETATM    1  C   UNK N   1      34.111  14.921   9.338  0.00  0.00     0.155 C 
ENDROOT
BRANCH   1   2
HETATM    2  O   UNK N   1      33.606  15.870  10.228  0.00  0.00    -0.392 OA
HETATM    3  H   UNK N   1      33.118  16.226  10.987  0.00  0.00     0.210 HD
ENDBRANCH   1   2
BRANCH   1   4
HETATM    4  C   UNK N   1      34.910  13.814  10.020  0.00  0.00     0.120 C 
BRANCH   4   5
HETATM    5  N   UNK N   1      34.645  13.514  11.425  0.00  0.00    -0.329 N 
HETATM    6  C   UNK N   1      35.197  14.119  12.513  0.00  0.00     0.361 C 
HETATM    7  O   UNK N   1      35.971  15.048  12.399  0.00  0.00    -0.238 OA
HETATM    8  H   UNK N   1      33.996  12.794  11.605  0.00  0.00     0.165 HD
BRANCH   6   9
HETATM    9  O   UNK N   1      34.870  13.689  13.752  0.00  0.00    -0.296 OA
BRANCH   9  10
HETATM   10  C   UNK N   1      35.534  12.641  14.350  0.00  0.00     0.159 C 
HETATM   11  C   UNK N   1      34.629  12.017  15.364  0.00  0.00     0.061 C 
HETATM   12  C   UNK N   1      34.867  12.853  16.611  0.00  0.00     0.170 C 
HETATM   13  O   UNK N   1      35.982  13.686  16.401  0.00  0.00    -0.389 OA
HETATM   14  C   UNK N   1      36.616  13.179  15.258  0.00  0.00     0.200 C 
ENDBRANCH   9  10
ENDBRANCH   6   9
ENDBRANCH   4   5
BRANCH   4  15
HETATM   15  C   UNK N   1      35.136  12.581   9.160  0.00  0.00     0.066 C 
BRANCH  15  16
HETATM   16  C   UNK N   1      36.598  12.301   9.079  0.00  0.00    -0.056 A 
HETATM   17  C   UNK N   1      37.527  13.282   9.446  0.00  0.00     0.007 A 
HETATM   18  C   UNK N   1      38.896  13.027   9.331  0.00  0.00     0.001 A 
HETATM   19  C   UNK N   1      39.340  11.794   8.841  0.00  0.00     0.000 A 
HETATM   20  C   UNK N   1      38.414  10.813   8.474  0.00  0.00     0.001 A 
HETATM   21  C   UNK N   1      37.043  11.065   8.594  0.00  0.00     0.007 A 
ENDBRANCH  15  16
ENDBRANCH   4  15
ENDBRANCH   1   4
BRANCH   1  22
HETATM   22  C   UNK N   1      34.945  15.544   8.224  0.00  0.00     0.141 C 
BRANCH  22  23
HETATM   23  N   UNK N   1      34.231  15.683   6.956  0.00  0.00    -0.204 NA
BRANCH  23  24
HETATM   24  S   UNK N   1      33.314  17.205   6.803  0.00  0.00     0.243 S 
HETATM   25  O   UNK N   1      34.218  18.190   7.556  0.00  0.00    -0.206 OA
HETATM   26  O   UNK N   1      33.486  17.744   5.372  0.00  0.00    -0.206 OA
BRANCH  24  27
HETATM   27  C   UNK N   1      31.680  17.444   7.485  0.00  0.00     0.074 A 
HETATM   28  C   UNK N   1      31.523  18.154   8.680  0.00  0.00     0.027 A 
HETATM   29  C   UNK N   1      30.251  18.554   9.093  0.00  0.00     0.030 A 
HETATM   30  C   UNK N   1      29.135  18.261   8.302  0.00  0.00     0.025 A 
HETATM   31  C   UNK N   1      29.287  17.532   7.119  0.00  0.00     0.030 A 
HETATM   32  C   UNK N   1      30.560  17.130   6.708  0.00  0.00     0.027 A 
BRANCH  30  33
HETATM   33  N   UNK N   1      27.864  18.737   8.676  0.00  0.00    -0.399 N 
HETATM   34  H   UNK N   1      27.462  18.518   9.548  0.00  0.00     0.156 HD
HETATM   35  H   UNK N   1      27.362  19.306   8.048  0.00  0.00     0.156 HD
ENDBRANCH  30  33
ENDBRANCH  24  27
ENDBRANCH  23  24
BRANCH  23  36
HETATM   36  C   UNK N   1      35.110  15.458   5.820  0.00  0.00     0.111 C 
BRANCH  36  37
HETATM   37  C   UNK N   1      35.938  14.203   6.063  0.00  0.00    -0.009 C 
HETATM   38  C   UNK N   1      35.339  13.038   5.310  0.00  0.00     0.011 C 
HETATM   39  C   UNK N   1      37.373  14.410   5.613  0.00  0.00     0.011 C 
ENDBRANCH  36  37
ENDBRANCH  23  36
ENDBRANCH  22  23
ENDBRANCH   1  22
TORSDOF 14
ENDMDL
MODEL 4
REMARK VINA RESULT:      -6.9      2.413      7.457
REMARK  14 active torsions:
REMARK  status: ('A' for Active; 'I' for Inactive)
REMARK    1  A    between atoms: S_1  and  N_8 
REMARK    2  A    between atoms: S_1  and  C_22 
REMARK    3  A    between atoms: C_11  and  O_2 
REMARK    4  A    between atoms: C_17  and  O_3 
REMARK    5  A    between atoms: O_3  and  C_24 
REMARK    6  A    between atoms: N_8  and  C_13 
REMARK    7  A    between atoms: N_8  and  C_14 
REMARK    8  A    between atoms: C_12  and  N_9 
REMARK       I    between atoms: N_9  and  C_24 
REMARK    9  A    between atoms: N_10  and  C_34 
REMARK   10  A    between atoms: C_11  and  C_12 
REMARK   11  A    between atoms: C_11  and  C_13 
REMARK   12  A    between atoms: C_12  and  C_15 
REMARK   13  A    between atoms: C_14  and  C_16 
REMARK   14  A    between atoms: C_15  and  C_18 
ROOT
HETATM    1  C   UNK N   1      22.138  18.016   5.779  0.00  0.00     0.155 C 
ENDROOT
BRANCH   1   2
HETATM    2  O   UNK N   1      20.875  18.607   5.859  0.00  0.00    -0.392 OA
HETATM    3  H   UNK N   1      19.973  18.768   6.175  0.00  0.00     0.210 HD
ENDBRANCH   1   2
BRANCH   1   4
HETATM    4  C   UNK N   1      22.589  17.742   4.346  0.00  0.00     0.120 C 
BRANCH   4   5
HETATM    5  N   UNK N   1      21.814  16.811   3.528  0.00  0.00    -0.329 N 
HETATM    6  C   UNK N   1      20.587  17.027   2.976  0.00  0.00     0.361 C 
HETATM    7  O   UNK N   1      20.019  18.095   3.089  0.00  0.00    -0.238 OA
HETATM    8  H   UNK N   1      22.223  15.931   3.356  0.00  0.00     0.165 HD
BRANCH   6   9
HETATM    9  O   UNK N   1      19.988  16.039   2.275  0.00  0.00    -0.296 OA
BRANCH   9  10
HETATM   10  C   UNK N   1      20.450  14.742   2.318  0.00  0.00     0.159 C 
HETATM   11  C   UNK N   1      20.591  14.237   0.918  0.00  0.00     0.061 C 
HETATM   12  C   UNK N   1      19.204  13.710   0.592  0.00  0.00     0.170 C 
HETATM   13  O   UNK N   1      18.435  13.675   1.771  0.00  0.00    -0.389 OA
HETATM   14  C   UNK N   1      19.354  13.830   2.820  0.00  0.00     0.200 C 
ENDBRANCH   9  10
ENDBRANCH   6   9
ENDBRANCH   4   5
BRANCH   4  15
HETATM   15  C   UNK N   1      23.068  18.971   3.592  0.00  0.00     0.066 C 
BRANCH  15  16
HETATM   16  C   UNK N   1      24.553  19.058   3.690  0.00  0.00    -0.056 A 
HETATM   17  C   UNK N   1      25.320  17.899   3.855  0.00  0.00     0.007 A 
HETATM   18  C   UNK N   1      26.708  17.991   3.987  0.00  0.00     0.001 A 
HETATM   19  C   UNK N   1      27.333  19.242   3.961  0.00  0.00     0.000 A 
HETATM   20  C   UNK N   1      26.568  20.401   3.796  0.00  0.00     0.001 A 
HETATM   21  C   UNK N   1      25.179  20.310   3.660  0.00  0.00     0.007 A 
ENDBRANCH  15  16
ENDBRANCH   4  15
ENDBRANCH   1   4
BRANCH   1  22
HETATM   22  C   UNK N   1      22.244  16.738   6.603  0.00  0.00     0.141 C 
BRANCH  22  23
HETATM   23  N   UNK N   1      21.356  15.668   6.154  0.00  0.00    -0.204 NA
BRANCH  23  24
HETATM   24  S   UNK N   1      22.136  14.067   6.066  0.00  0.00     0.243 S 
HETATM   25  O   UNK N   1      20.924  13.138   5.919  0.00  0.00    -0.206 OA
HETATM   26  O   UNK N   1      22.758  13.897   4.669  0.00  0.00    -0.206 OA
BRANCH  24  27
HETATM   27  C   UNK N   1      23.110  13.370   7.392  0.00  0.00     0.074 A 
HETATM   28  C   UNK N   1      24.365  13.908   7.688  0.00  0.00     0.027 A 
HETATM   29  C   UNK N   1      25.025  13.538   8.862  0.00  0.00     0.030 A 
HETATM   30  C   UNK N   1      24.420  12.644   9.751  0.00  0.00     0.025 A 
HETATM   31  C   UNK N   1      23.175  12.087   9.446  0.00  0.00     0.030 A 
HETATM   32  C   UNK N   1      22.517  12.455   8.270  0.00  0.00     0.027 A 
BRANCH  30  33
HETATM   33  N   UNK N   1      25.047  12.336  10.974  0.00  0.00    -0.399 N 
HETATM   34  H   UNK N   1      25.297  13.035  11.621  0.00  0.00     0.156 HD
HETATM   35  H   UNK N   1      25.242  11.395  11.188  0.00  0.00     0.156 HD
ENDBRANCH  30  33
ENDBRANCH  24  27
ENDBRANCH  23  24
BRANCH  23  36
HETATM   36  C   UNK N   1      20.125  15.634   6.927  0.00  0.00     0.111 C 
BRANCH  36  37
HETATM   37  C   UNK N   1      20.427  16.009   8.372  0.00  0.00    -0.009 C 
HETATM   38  C   UNK N   1      19.543  17.159   8.801  0.00  0.00     0.011 C 
HETATM   39  C   UNK N   1      20.196  14.825   9.296  0.00  0.00     0.011 C 
ENDBRANCH  36  37
ENDBRANCH  23  36
ENDBRANCH  22  23
ENDBRANCH   1  22
TORSDOF 14
ENDMDL
MODEL 5
REMARK VINA RESULT:      -6.8     15.590     18.416
REMARK  14 active torsions:
REMARK  status: ('A' for Active; 'I' for Inactive)
REMARK    1  A    between atoms: S_1  and  N_8 
REMARK    2  A    between atoms: S_1  and  C_22 
REMARK    3  A    between atoms: C_11  and  O_2 
REMARK    4  A    between atoms: C_17  and  O_3 
REMARK    5  A    between atoms: O_3  and  C_24 
REMARK    6  A    between atoms: N_8  and  C_13 
REMARK    7  A    between atoms: N_8  and  C_14 
REMARK    8  A    between atoms: C_12  and  N_9 
REMARK       I    between atoms: N_9  and  C_24 
REMARK    9  A    between atoms: N_10  and  C_34 
REMARK   10  A    between atoms: C_11  and  C_12 
REMARK   11  A    between atoms: C_11  and  C_13 
REMARK   12  A    between atoms: C_12  and  C_15 
REMARK   13  A    between atoms: C_14  and  C_16 
REMARK   14  A    between atoms: C_15  and  C_18 
ROOT
HETATM    1  C   UNK N   1      26.340  24.190  -6.030  0.00  0.00     0.155 C 
ENDROOT
BRANCH   1   2
HETATM    2  O   UNK N   1      25.082  23.670  -5.722  0.00  0.00    -0.392 OA
HETATM    3  H   UNK N   1      24.376  23.011  -5.627  0.00  0.00     0.210 HD
ENDBRANCH   1   2
BRANCH   1   4
HETATM    4  C   UNK N   1      27.084  23.389  -7.095  0.00  0.00     0.120 C 
BRANCH   4   5
HETATM    5  N   UNK N   1      26.739  23.592  -8.501  0.00  0.00    -0.329 N 
HETATM    6  C   UNK N   1      25.523  23.401  -9.085  0.00  0.00     0.361 C 
HETATM    7  O   UNK N   1      24.552  23.069  -8.436  0.00  0.00    -0.238 OA
HETATM    8  H   UNK N   1      27.466  23.900  -9.091  0.00  0.00     0.165 HD
BRANCH   6   9
HETATM    9  O   UNK N   1      25.385  23.597 -10.415  0.00  0.00    -0.296 OA
BRANCH   9  10
HETATM   10  C   UNK N   1      25.901  24.712 -11.037  0.00  0.00     0.159 C 
HETATM   11  C   UNK N   1      25.294  25.930 -10.419  0.00  0.00     0.061 C 
HETATM   12  C   UNK N   1      24.003  26.117 -11.200  0.00  0.00     0.170 C 
HETATM   13  O   UNK N   1      24.012  25.257 -12.316  0.00  0.00    -0.389 OA
HETATM   14  C   UNK N   1      25.339  24.817 -12.436  0.00  0.00     0.200 C 
ENDBRANCH   9  10
ENDBRANCH   6   9
ENDBRANCH   4   5
BRANCH   4  15
HETATM   15  C   UNK N   1      28.576  23.242  -6.844  0.00  0.00     0.066 C 
BRANCH  15  16
HETATM   16  C   UNK N   1      28.966  21.815  -7.028  0.00  0.00    -0.056 A 
HETATM   17  C   UNK N   1      30.093  21.301  -6.378  0.00  0.00     0.007 A 
HETATM   18  C   UNK N   1      30.476  19.973  -6.586  0.00  0.00     0.001 A 
HETATM   19  C   UNK N   1      29.737  19.158  -7.450  0.00  0.00     0.000 A 
HETATM   20  C   UNK N   1      28.610  19.671  -8.101  0.00  0.00     0.001 A 
HETATM   21  C   UNK N   1      28.223  20.998  -7.890  0.00  0.00     0.007 A 
ENDBRANCH  15  16
ENDBRANCH   4  15
ENDBRANCH   1   4
BRANCH   1  22
HETATM   22  C   UNK N   1      27.226  24.354  -4.800  0.00  0.00     0.141 C 
BRANCH  22  23
HETATM   23  N   UNK N   1      27.639  25.733  -4.547  0.00  0.00    -0.204 NA
BRANCH  23  24
HETATM   24  S   UNK N   1      29.393  25.931  -4.291  0.00  0.00     0.243 S 
HETATM   25  O   UNK N   1      29.870  26.317  -5.697  0.00  0.00    -0.206 OA
HETATM   26  O   UNK N   1      29.638  27.264  -3.564  0.00  0.00    -0.206 OA
BRANCH  24  27
HETATM   27  C   UNK N   1      30.470  24.603  -3.772  0.00  0.00     0.074 A 
HETATM   28  C   UNK N   1      30.050  23.720  -2.773  0.00  0.00     0.027 A 
HETATM   29  C   UNK N   1      30.769  22.547  -2.531  0.00  0.00     0.030 A 
HETATM   30  C   UNK N   1      31.897  22.247  -3.301  0.00  0.00     0.025 A 
HETATM   31  C   UNK N   1      32.330  23.140  -4.285  0.00  0.00     0.030 A 
HETATM   32  C   UNK N   1      31.613  24.314  -4.526  0.00  0.00     0.027 A 
BRANCH  30  33
HETATM   33  N   UNK N   1      32.572  21.025  -3.113  0.00  0.00    -0.399 N 
HETATM   34  H   UNK N   1      32.119  20.158  -3.226  0.00  0.00     0.156 HD
HETATM   35  H   UNK N   1      33.524  21.039  -2.862  0.00  0.00     0.156 HD
ENDBRANCH  30  33
ENDBRANCH  24  27
ENDBRANCH  23  24
BRANCH  23  36
HETATM   36  C   UNK N   1      27.129  26.640  -5.563  0.00  0.00     0.111 C 
BRANCH  36  37
HETATM   37  C   UNK N   1      26.090  27.563  -4.939  0.00  0.00    -0.009 C 
HETATM   38  C   UNK N   1      24.731  27.289  -5.541  0.00  0.00     0.011 C 
HETATM   39  C   UNK N   1      26.024  27.362  -3.435  0.00  0.00     0.011 C 
ENDBRANCH  36  37
ENDBRANCH  23  36
ENDBRANCH  22  23
ENDBRANCH   1  22
TORSDOF 14
ENDMDL
MODEL 6
REMARK VINA RESULT:      -6.8      1.564      2.297
REMARK  14 active torsions:
REMARK  status: ('A' for Active; 'I' for Inactive)
REMARK    1  A    between atoms: S_1  and  N_8 
REMARK    2  A    between atoms: S_1  and  C_22 
REMARK    3  A    between atoms: C_11  and  O_2 
REMARK    4  A    between atoms: C_17  and  O_3 
REMARK    5  A    between atoms: O_3  and  C_24 
REMARK    6  A    between atoms: N_8  and  C_13 
REMARK    7  A    between atoms: N_8  and  C_14 
REMARK    8  A    between atoms: C_12  and  N_9 
REMARK       I    between atoms: N_9  and  C_24 
REMARK    9  A    between atoms: N_10  and  C_34 
REMARK   10  A    between atoms: C_11  and  C_12 
REMARK   11  A    between atoms: C_11  and  C_13 
REMARK   12  A    between atoms: C_12  and  C_15 
REMARK   13  A    between atoms: C_14  and  C_16 
REMARK   14  A    between atoms: C_15  and  C_18 
ROOT
HETATM    1  C   UNK N   1      19.781  15.209   6.595  0.00  0.00     0.155 C 
ENDROOT
BRANCH   1   2
HETATM    2  O   UNK N   1      18.640  15.758   6.008  0.00  0.00    -0.392 OA
HETATM    3  H   UNK N   1      18.088  16.401   5.536  0.00  0.00     0.210 HD
ENDBRANCH   1   2
BRANCH   1   4
HETATM    4  C   UNK N   1      20.093  15.786   7.973  0.00  0.00     0.120 C 
BRANCH   4   5
HETATM    5  N   UNK N   1      21.066  15.103   8.822  0.00  0.00    -0.329 N 
HETATM    6  C   UNK N   1      20.829  14.068   9.676  0.00  0.00     0.361 C 
HETATM    7  O   UNK N   1      19.728  13.567   9.776  0.00  0.00    -0.238 OA
HETATM    8  H   UNK N   1      21.996  15.426   8.772  0.00  0.00     0.165 HD
BRANCH   6   9
HETATM    9  O   UNK N   1      21.842  13.576  10.423  0.00  0.00    -0.296 OA
BRANCH   9  10
HETATM   10  C   UNK N   1      22.080  12.222  10.513  0.00  0.00     0.159 C 
HETATM   11  C   UNK N   1      23.019  11.975  11.650  0.00  0.00     0.061 C 
HETATM   12  C   UNK N   1      24.391  12.153  11.020  0.00  0.00     0.170 C 
HETATM   13  O   UNK N   1      24.249  12.227   9.621  0.00  0.00    -0.389 OA
HETATM   14  C   UNK N   1      22.945  11.782   9.355  0.00  0.00     0.200 C 
ENDBRANCH   9  10
ENDBRANCH   6   9
ENDBRANCH   4   5
BRANCH   4  15
HETATM   15  C   UNK N   1      20.203  17.302   8.009  0.00  0.00     0.066 C 
BRANCH  15  16
HETATM   16  C   UNK N   1      19.284  17.835   9.055  0.00  0.00    -0.056 A 
HETATM   17  C   UNK N   1      18.024  17.258   9.251  0.00  0.00     0.007 A 
HETATM   18  C   UNK N   1      17.152  17.787  10.206  0.00  0.00     0.001 A 
HETATM   19  C   UNK N   1      17.535  18.900  10.963  0.00  0.00     0.000 A 
HETATM   20  C   UNK N   1      18.793  19.478  10.769  0.00  0.00     0.001 A 
HETATM   21  C   UNK N   1      19.668  18.946   9.816  0.00  0.00     0.007 A 
ENDBRANCH  15  16
ENDBRANCH   4  15
ENDBRANCH   1   4
BRANCH   1  22
HETATM   22  C   UNK N   1      21.013  15.319   5.703  0.00  0.00     0.141 C 
BRANCH  22  23
HETATM   23  N   UNK N   1      20.738  15.107   4.283  0.00  0.00    -0.204 NA
BRANCH  23  24
HETATM   24  S   UNK N   1      21.149  16.501   3.249  0.00  0.00     0.243 S 
HETATM   25  O   UNK N   1      21.577  15.808   1.950  0.00  0.00    -0.206 OA
HETATM   26  O   UNK N   1      19.845  17.161   2.769  0.00  0.00    -0.206 OA
BRANCH  24  27
HETATM   27  C   UNK N   1      22.460  17.656   3.625  0.00  0.00     0.074 A 
HETATM   28  C   UNK N   1      23.736  17.178   3.940  0.00  0.00     0.027 A 
HETATM   29  C   UNK N   1      24.817  18.060   3.997  0.00  0.00     0.030 A 
HETATM   30  C   UNK N   1      24.627  19.418   3.719  0.00  0.00     0.025 A 
HETATM   31  C   UNK N   1      23.348  19.900   3.426  0.00  0.00     0.030 A 
HETATM   32  C   UNK N   1      22.266  19.018   3.372  0.00  0.00     0.027 A 
BRANCH  30  33
HETATM   33  N   UNK N   1      25.731  20.291   3.694  0.00  0.00    -0.399 N 
HETATM   34  H   UNK N   1      25.661  21.208   3.343  0.00  0.00     0.156 HD
HETATM   35  H   UNK N   1      26.598  19.975   4.038  0.00  0.00     0.156 HD
ENDBRANCH  30  33
ENDBRANCH  24  27
ENDBRANCH  23  24
BRANCH  23  36
HETATM   36  C   UNK N   1      21.335  13.873   3.800  0.00  0.00     0.111 C 
BRANCH  36  37
HETATM   37  C   UNK N   1      22.535  13.519   4.670  0.00  0.00    -0.009 C 
HETATM   38  C   UNK N   1      22.361  12.133   5.247  0.00  0.00     0.011 C 
HETATM   39  C   UNK N   1      23.820  13.572   3.863  0.00  0.00     0.011 C 
ENDBRANCH  36  37
ENDBRANCH  23  36
ENDBRANCH  22  23
ENDBRANCH   1  22
TORSDOF 14
ENDMDL
MODEL 7
REMARK VINA RESULT:      -6.8      1.720      1.971
REMARK  14 active torsions:
REMARK  status: ('A' for Active; 'I' for Inactive)
REMARK    1  A    between atoms: S_1  and  N_8 
REMARK    2  A    between atoms: S_1  and  C_22 
REMARK    3  A    between atoms: C_11  and  O_2 
REMARK    4  A    between atoms: C_17  and  O_3 
REMARK    5  A    between atoms: O_3  and  C_24 
REMARK    6  A    between atoms: N_8  and  C_13 
REMARK    7  A    between atoms: N_8  and  C_14 
REMARK    8  A    between atoms: C_12  and  N_9 
REMARK       I    between atoms: N_9  and  C_24 
REMARK    9  A    between atoms: N_10  and  C_34 
REMARK   10  A    between atoms: C_11  and  C_12 
REMARK   11  A    between atoms: C_11  and  C_13 
REMARK   12  A    between atoms: C_12  and  C_15 
REMARK   13  A    between atoms: C_14  and  C_16 
REMARK   14  A    between atoms: C_15  and  C_18 
ROOT
HETATM    1  C   UNK N   1      19.682  15.917   6.255  0.00  0.00     0.155 C 
ENDROOT
BRANCH   1   2
HETATM    2  O   UNK N   1      18.325  15.995   5.938  0.00  0.00    -0.392 OA
HETATM    3  H   UNK N   1      17.525  16.244   5.450  0.00  0.00     0.210 HD
ENDBRANCH   1   2
BRANCH   1   4
HETATM    4  C   UNK N   1      19.981  16.225   7.720  0.00  0.00     0.120 C 
BRANCH   4   5
HETATM    5  N   UNK N   1      20.911  15.364   8.448  0.00  0.00    -0.329 N 
HETATM    6  C   UNK N   1      20.604  14.451   9.411  0.00  0.00     0.361 C 
HETATM    7  O   UNK N   1      19.455  14.230   9.733  0.00  0.00    -0.238 OA
HETATM    8  H   UNK N   1      21.865  15.455   8.217  0.00  0.00     0.165 HD
BRANCH   6   9
HETATM    9  O   UNK N   1      21.597  13.762  10.016  0.00  0.00    -0.296 OA
BRANCH   9  10
HETATM   10  C   UNK N   1      21.550  12.391  10.143  0.00  0.00     0.159 C 
HETATM   11  C   UNK N   1      21.522  12.046  11.598  0.00  0.00     0.061 C 
HETATM   12  C   UNK N   1      22.992  12.010  11.981  0.00  0.00     0.170 C 
HETATM   13  O   UNK N   1      23.774  12.064  10.811  0.00  0.00    -0.389 OA
HETATM   14  C   UNK N   1      22.887  11.801   9.757  0.00  0.00     0.200 C 
ENDBRANCH   9  10
ENDBRANCH   6   9
ENDBRANCH   4   5
BRANCH   4  15
HETATM   15  C   UNK N   1      20.141  17.704   8.032  0.00  0.00     0.066 C 
BRANCH  15  16
HETATM   16  C   UNK N   1      19.167  18.090   9.092  0.00  0.00    -0.056 A 
HETATM   17  C   UNK N   1      19.486  19.093  10.014  0.00  0.00     0.007 A 
HETATM   18  C   UNK N   1      18.584  19.423  11.030  0.00  0.00     0.001 A 
HETATM   19  C   UNK N   1      17.364  18.746  11.129  0.00  0.00     0.000 A 
HETATM   20  C   UNK N   1      17.043  17.744  10.208  0.00  0.00     0.001 A 
HETATM   21  C   UNK N   1      17.943  17.416   9.189  0.00  0.00     0.007 A 
ENDBRANCH  15  16
ENDBRANCH   4  15
ENDBRANCH   1   4
BRANCH   1  22
HETATM   22  C   UNK N   1      20.547  16.797   5.360  0.00  0.00     0.141 C 
BRANCH  22  23
HETATM   23  N   UNK N   1      21.416  16.048   4.455  0.00  0.00    -0.204 NA
BRANCH  23  24
HETATM   24  S   UNK N   1      23.110  15.937   5.002  0.00  0.00     0.243 S 
HETATM   25  O   UNK N   1      23.513  17.415   5.070  0.00  0.00    -0.206 OA
HETATM   26  O   UNK N   1      23.123  15.600   6.503  0.00  0.00    -0.206 OA
BRANCH  24  27
HETATM   27  C   UNK N   1      24.400  15.136   4.060  0.00  0.00     0.074 A 
HETATM   28  C   UNK N   1      24.806  15.680   2.838  0.00  0.00     0.027 A 
HETATM   29  C   UNK N   1      25.965  15.210   2.215  0.00  0.00     0.030 A 
HETATM   30  C   UNK N   1      26.729  14.210   2.824  0.00  0.00     0.025 A 
HETATM   31  C   UNK N   1      26.312  13.649   4.034  0.00  0.00     0.030 A 
HETATM   32  C   UNK N   1      25.152  14.117   4.655  0.00  0.00     0.027 A 
BRANCH  30  33
HETATM   33  N   UNK N   1      27.941  13.796   2.237  0.00  0.00    -0.399 N 
HETATM   34  H   UNK N   1      28.596  13.249   2.727  0.00  0.00     0.156 HD
HETATM   35  H   UNK N   1      28.138  14.061   1.309  0.00  0.00     0.156 HD
ENDBRANCH  30  33
ENDBRANCH  24  27
ENDBRANCH  23  24
BRANCH  23  36
HETATM   36  C   UNK N   1      20.859  14.745   4.134  0.00  0.00     0.111 C 
BRANCH  36  37
HETATM   37  C   UNK N   1      20.210  14.799   2.757  0.00  0.00    -0.009 C 
HETATM   38  C   UNK N   1      21.209  15.297   1.737  0.00  0.00     0.011 C 
HETATM   39  C   UNK N   1      19.709  13.426   2.342  0.00  0.00     0.011 C 
ENDBRANCH  36  37
ENDBRANCH  23  36
ENDBRANCH  22  23
ENDBRANCH   1  22
TORSDOF 14
ENDMDL
MODEL 8
REMARK VINA RESULT:      -6.8      8.063     11.147
REMARK  14 active torsions:
REMARK  status: ('A' for Active; 'I' for Inactive)
REMARK    1  A    between atoms: S_1  and  N_8 
REMARK    2  A    between atoms: S_1  and  C_22 
REMARK    3  A    between atoms: C_11  and  O_2 
REMARK    4  A    between atoms: C_17  and  O_3 
REMARK    5  A    between atoms: O_3  and  C_24 
REMARK    6  A    between atoms: N_8  and  C_13 
REMARK    7  A    between atoms: N_8  and  C_14 
REMARK    8  A    between atoms: C_12  and  N_9 
REMARK       I    between atoms: N_9  and  C_24 
REMARK    9  A    between atoms: N_10  and  C_34 
REMARK   10  A    between atoms: C_11  and  C_12 
REMARK   11  A    between atoms: C_11  and  C_13 
REMARK   12  A    between atoms: C_12  and  C_15 
REMARK   13  A    between atoms: C_14  and  C_16 
REMARK   14  A    between atoms: C_15  and  C_18 
ROOT
HETATM    1  C   UNK N   1      30.632  17.017   7.034  0.00  0.00     0.155 C 
ENDROOT
BRANCH   1   2
HETATM    2  O   UNK N   1      30.277  17.339   8.345  0.00  0.00    -0.392 OA
HETATM    3  H   UNK N   1      29.931  17.864   9.084  0.00  0.00     0.210 HD
ENDBRANCH   1   2
BRANCH   1   4
HETATM    4  C   UNK N   1      29.433  16.726   6.135  0.00  0.00     0.120 C 
BRANCH   4   5
HETATM    5  N   UNK N   1      29.374  15.449   5.427  0.00  0.00    -0.329 N 
HETATM    6  C   UNK N   1      29.273  15.259   4.081  0.00  0.00     0.361 C 
HETATM    7  O   UNK N   1      29.268  16.194   3.307  0.00  0.00    -0.238 OA
HETATM    8  H   UNK N   1      29.412  14.636   5.983  0.00  0.00     0.165 HD
BRANCH   6   9
HETATM    9  O   UNK N   1      29.189  14.003   3.590  0.00  0.00    -0.296 OA
BRANCH   9  10
HETATM   10  C   UNK N   1      29.283  13.749   2.240  0.00  0.00     0.159 C 
HETATM   11  C   UNK N   1      28.111  12.917   1.826  0.00  0.00     0.061 C 
HETATM   12  C   UNK N   1      28.571  11.496   2.105  0.00  0.00     0.170 C 
HETATM   13  O   UNK N   1      29.950  11.505   2.391  0.00  0.00    -0.389 OA
HETATM   14  C   UNK N   1      30.406  12.769   1.986  0.00  0.00     0.200 C 
ENDBRANCH   9  10
ENDBRANCH   6   9
ENDBRANCH   4   5
BRANCH   4  15
HETATM   15  C   UNK N   1      28.096  17.174   6.705  0.00  0.00     0.066 C 
BRANCH  15  16
HETATM   16  C   UNK N   1      27.778  18.537   6.193  0.00  0.00    -0.056 A 
HETATM   17  C   UNK N   1      27.671  19.617   7.076  0.00  0.00     0.007 A 
HETATM   18  C   UNK N   1      27.333  20.885   6.595  0.00  0.00     0.001 A 
HETATM   19  C   UNK N   1      27.094  21.074   5.230  0.00  0.00     0.000 A 
HETATM   20  C   UNK N   1      27.200  19.996   4.345  0.00  0.00     0.001 A 
HETATM   21  C   UNK N   1      27.543  18.728   4.826  0.00  0.00     0.007 A 
ENDBRANCH  15  16
ENDBRANCH   4  15
ENDBRANCH   1   4
BRANCH   1  22
HETATM   22  C   UNK N   1      31.621  15.860   6.959  0.00  0.00     0.141 C 
BRANCH  22  23
HETATM   23  N   UNK N   1      32.743  16.097   6.052  0.00  0.00    -0.204 NA
BRANCH  23  24
HETATM   24  S   UNK N   1      34.251  16.577   6.873  0.00  0.00     0.243 S 
HETATM   25  O   UNK N   1      35.315  15.997   5.932  0.00  0.00    -0.206 OA
HETATM   26  O   UNK N   1      34.489  18.077   6.632  0.00  0.00    -0.206 OA
BRANCH  24  27
HETATM   27  C   UNK N   1      34.706  16.014   8.507  0.00  0.00     0.074 A 
HETATM   28  C   UNK N   1      35.287  14.753   8.670  0.00  0.00     0.027 A 
HETATM   29  C   UNK N   1      35.863  14.402   9.893  0.00  0.00     0.030 A 
HETATM   30  C   UNK N   1      35.878  15.321  10.947  0.00  0.00     0.025 A 
HETATM   31  C   UNK N   1      35.278  16.574  10.793  0.00  0.00     0.030 A 
HETATM   32  C   UNK N   1      34.698  16.923   9.571  0.00  0.00     0.027 A 
BRANCH  30  33
HETATM   33  N   UNK N   1      36.533  14.999  12.152  0.00  0.00    -0.399 N 
HETATM   34  H   UNK N   1      37.488  15.193  12.293  0.00  0.00     0.156 HD
HETATM   35  H   UNK N   1      36.021  14.566  12.873  0.00  0.00     0.156 HD
ENDBRANCH  30  33
ENDBRANCH  24  27
ENDBRANCH  23  24
BRANCH  23  36
HETATM   36  C   UNK N   1      32.945  14.978   5.146  0.00  0.00     0.111 C 
BRANCH  36  37
HETATM   37  C   UNK N   1      32.719  15.441   3.713  0.00  0.00    -0.009 C 
HETATM   38  C   UNK N   1      32.761  16.950   3.647  0.00  0.00     0.011 C 
HETATM   39  C   UNK N   1      33.777  14.866   2.788  0.00  0.00     0.011 C 
ENDBRANCH  36  37
ENDBRANCH  23  36
ENDBRANCH  22  23
ENDBRANCH   1  22
TORSDOF 14
ENDMDL
MODEL 9
REMARK VINA RESULT:      -6.8     15.523     17.469
REMARK  14 active torsions:
REMARK  status: ('A' for Active; 'I' for Inactive)
REMARK    1  A    between atoms: S_1  and  N_8 
REMARK    2  A    between atoms: S_1  and  C_22 
REMARK    3  A    between atoms: C_11  and  O_2 
REMARK    4  A    between atoms: C_17  and  O_3 
REMARK    5  A    between atoms: O_3  and  C_24 
REMARK    6  A    between atoms: N_8  and  C_13 
REMARK    7  A    between atoms: N_8  and  C_14 
REMARK    8  A    between atoms: C_12  and  N_9 
REMARK       I    between atoms: N_9  and  C_24 
REMARK    9  A    between atoms: N_10  and  C_34 
REMARK   10  A    between atoms: C_11  and  C_12 
REMARK   11  A    between atoms: C_11  and  C_13 
REMARK   12  A    between atoms: C_12  and  C_15 
REMARK   13  A    between atoms: C_14  and  C_16 
REMARK   14  A    between atoms: C_15  and  C_18 
ROOT
HETATM    1  C   UNK N   1      26.869  24.689  -4.588  0.00  0.00     0.155 C 
ENDROOT
BRANCH   1   2
HETATM    2  O   UNK N   1      26.047  24.057  -3.654  0.00  0.00    -0.392 OA
HETATM    3  H   UNK N   1      25.789  23.446  -2.946  0.00  0.00     0.210 HD
ENDBRANCH   1   2
BRANCH   1   4
HETATM    4  C   UNK N   1      26.132  25.109  -5.858  0.00  0.00     0.120 C 
BRANCH   4   5
HETATM    5  N   UNK N   1      25.669  24.074  -6.781  0.00  0.00    -0.329 N 
HETATM    6  C   UNK N   1      25.802  24.063  -8.136  0.00  0.00     0.361 C 
HETATM    7  O   UNK N   1      26.394  24.946  -8.724  0.00  0.00    -0.238 OA
HETATM    8  H   UNK N   1      25.209  23.301  -6.378  0.00  0.00     0.165 HD
BRANCH   6   9
HETATM    9  O   UNK N   1      25.276  23.042  -8.849  0.00  0.00    -0.296 OA
BRANCH   9  10
HETATM   10  C   UNK N   1      25.655  21.737  -8.626  0.00  0.00     0.159 C 
HETATM   11  C   UNK N   1      27.121  21.706  -8.332  0.00  0.00     0.061 C 
HETATM   12  C   UNK N   1      27.755  21.633  -9.712  0.00  0.00     0.170 C 
HETATM   13  O   UNK N   1      26.752  21.378 -10.667  0.00  0.00    -0.389 OA
HETATM   14  C   UNK N   1      25.630  20.972  -9.929  0.00  0.00     0.200 C 
ENDBRANCH   9  10
ENDBRANCH   6   9
ENDBRANCH   4   5
BRANCH   4  15
HETATM   15  C   UNK N   1      25.143  26.247  -5.664  0.00  0.00     0.066 C 
BRANCH  15  16
HETATM   16  C   UNK N   1      25.892  27.502  -5.371  0.00  0.00    -0.056 A 
HETATM   17  C   UNK N   1      26.897  27.945  -6.239  0.00  0.00     0.007 A 
HETATM   18  C   UNK N   1      27.622  29.101  -5.938  0.00  0.00     0.001 A 
HETATM   19  C   UNK N   1      27.348  29.814  -4.766  0.00  0.00     0.000 A 
HETATM   20  C   UNK N   1      26.344  29.373  -3.898  0.00  0.00     0.001 A 
HETATM   21  C   UNK N   1      25.615  28.218  -4.200  0.00  0.00     0.007 A 
ENDBRANCH  15  16
ENDBRANCH   4  15
ENDBRANCH   1   4
BRANCH   1  22
HETATM   22  C   UNK N   1      28.091  23.856  -4.957  0.00  0.00     0.141 C 
BRANCH  22  23
HETATM   23  N   UNK N   1      29.318  24.273  -4.281  0.00  0.00    -0.204 NA
BRANCH  23  24
HETATM   24  S   UNK N   1      30.043  23.011  -3.250  0.00  0.00     0.243 S 
HETATM   25  O   UNK N   1      30.703  23.850  -2.149  0.00  0.00    -0.206 OA
HETATM   26  O   UNK N   1      28.927  22.344  -2.428  0.00  0.00    -0.206 OA
BRANCH  24  27
HETATM   27  C   UNK N   1      31.312  21.885  -3.813  0.00  0.00     0.074 A 
HETATM   28  C   UNK N   1      32.527  21.809  -3.126  0.00  0.00     0.027 A 
HETATM   29  C   UNK N   1      33.423  20.774  -3.404  0.00  0.00     0.030 A 
HETATM   30  C   UNK N   1      33.095  19.803  -4.355  0.00  0.00     0.025 A 
HETATM   31  C   UNK N   1      31.890  19.890  -5.058  0.00  0.00     0.030 A 
HETATM   32  C   UNK N   1      30.996  20.927  -4.783  0.00  0.00     0.027 A 
BRANCH  30  33
HETATM   33  N   UNK N   1      33.960  18.714  -4.574  0.00  0.00    -0.399 N 
HETATM   34  H   UNK N   1      33.707  17.955  -5.149  0.00  0.00     0.156 HD
HETATM   35  H   UNK N   1      34.844  18.711  -4.139  0.00  0.00     0.156 HD
ENDBRANCH  30  33
ENDBRANCH  24  27
ENDBRANCH  23  24
BRANCH  23  36
HETATM   36  C   UNK N   1      30.280  24.834  -5.215  0.00  0.00     0.111 C 
BRANCH  36  37
HETATM   37  C   UNK N   1      30.055  26.336  -5.330  0.00  0.00    -0.009 C 
HETATM   38  C   UNK N   1      30.278  26.993  -3.987  0.00  0.00     0.011 C 
HETATM   39  C   UNK N   1      30.998  26.946  -6.352  0.00  0.00     0.011 C 
ENDBRANCH  36  37
ENDBRANCH  23  36
ENDBRANCH  22  23
ENDBRANCH   1  22
TORSDOF 14
ENDMDL
