MODEL 1
REMARK VINA RESULT:      -7.0      0.000      0.000
REMARK  4 active torsions:
REMARK  status: ('A' for Active; 'I' for Inactive)
REMARK    1  A    between atoms: C_7  and  O_2 
REMARK    2  A    between atoms: O_4  and  C_24 
REMARK    3  A    between atoms: N_5  and  C_16 
REMARK    4  A    between atoms: C_16  and  C_18 
ROOT
HETATM    1  O   UNK N   1      29.832  16.025   5.528  0.00  0.00    -0.334 OA
HETATM    2  O   UNK N   1      27.899  17.193   7.287  0.00  0.00    -0.295 OA
HETATM    3  N   UNK N   1      34.039  15.508   8.423  0.00  0.00     0.096 N 
HETATM    4  C   UNK N   1      31.401  16.012   7.273  0.00  0.00     0.058 C 
HETATM    5  C   UNK N   1      31.875  16.819   8.482  0.00  0.00     0.104 C 
HETATM    6  C   UNK N   1      33.449  16.862   8.383  0.00  0.00     0.262 C 
HETATM    7  C   UNK N   1      29.876  15.949   6.929  0.00  0.00     0.214 C 
HETATM    8  C   UNK N   1      31.965  14.580   7.371  0.00  0.00     0.051 C 
HETATM    9  C   UNK N   1      31.899  16.627   6.031  0.00  0.00    -0.001 A 
HETATM   10  C   UNK N   1      31.256  18.215   8.419  0.00  0.00     0.049 C 
HETATM   11  C   UNK N   1      33.495  14.555   7.446  0.00  0.00     0.274 C 
HETATM   12  C   UNK N   1      33.970  17.540   7.077  0.00  0.00     0.078 C 
HETATM   13  C   UNK N   1      33.116  17.264   5.864  0.00  0.00    -0.046 A 
HETATM   14  C   UNK N   1      29.722  18.172   8.405  0.00  0.00     0.084 C 
HETATM   15  C   UNK N   1      29.097  17.118   7.511  0.00  0.00     0.157 C 
HETATM   16  C   UNK N   1      30.983  16.520   5.056  0.00  0.00     0.110 A 
HETATM   17  C   UNK N   1      33.440  17.745   4.583  0.00  0.00     0.011 A 
HETATM   18  C   UNK N   1      31.268  16.961   3.761  0.00  0.00     0.099 A 
HETATM   19  C   UNK N   1      32.524  17.560   3.518  0.00  0.00     0.040 A 
ENDROOT
BRANCH   3  20
HETATM   20  C   UNK N   1      34.091  14.937   9.764  0.00  0.00     0.277 C 
BRANCH  20  21
HETATM   21  C   UNK N   1      34.871  15.865  10.691  0.00  0.00     0.014 A 
HETATM   22  C   UNK N   1      36.342  15.506  10.605  0.00  0.00     0.007 A 
HETATM   23  C   UNK N   1      35.542  15.089  11.816  0.00  0.00     0.007 A 
ENDBRANCH  20  21
ENDBRANCH   3  20
BRANCH   5  24
HETATM   24  O   UNK N   1      31.471  16.204   9.673  0.00  0.00    -0.386 OA
HETATM   25  H   UNK N   1      31.321  15.253   9.786  0.00  0.00     0.210 HD
ENDBRANCH   5  24
BRANCH  18  26
HETATM   26  O   UNK N   1      30.366  16.838   2.773  0.00  0.00    -0.358 OA
HETATM   27  H   UNK N   1      29.489  17.154   2.859  0.00  0.00     0.217 HD
ENDBRANCH  18  26
TORSDOF 4
ENDMDL
MODEL 2
REMARK VINA RESULT:      -6.8      9.903     11.588
REMARK  4 active torsions:
REMARK  status: ('A' for Active; 'I' for Inactive)
REMARK    1  A    between atoms: C_7  and  O_2 
REMARK    2  A    between atoms: O_4  and  C_24 
REMARK    3  A    between atoms: N_5  and  C_16 
REMARK    4  A    between atoms: C_16  and  C_18 
ROOT
HETATM    1  O   UNK N   1      19.883  18.152   2.864  0.00  0.00    -0.334 OA
HETATM    2  O   UNK N   1      21.524  20.451   3.328  0.00  0.00    -0.295 OA
HETATM    3  N   UNK N   1      21.688  14.619   6.120  0.00  0.00     0.096 N 
HETATM    4  C   UNK N   1      21.071  16.979   4.512  0.00  0.00     0.058 C 
HETATM    5  C   UNK N   1      22.472  16.797   5.096  0.00  0.00     0.104 C 
HETATM    6  C   UNK N   1      22.688  15.239   5.226  0.00  0.00     0.262 C 
HETATM    7  C   UNK N   1      20.602  18.396   4.044  0.00  0.00     0.214 C 
HETATM    8  C   UNK N   1      20.036  16.393   5.493  0.00  0.00     0.051 C 
HETATM    9  C   UNK N   1      20.963  16.259   3.232  0.00  0.00    -0.001 A 
HETATM   10  C   UNK N   1      23.489  17.442   4.156  0.00  0.00     0.049 C 
HETATM   11  C   UNK N   1      20.286  14.912   5.795  0.00  0.00     0.274 C 
HETATM   12  C   UNK N   1      22.598  14.486   3.862  0.00  0.00     0.078 C 
HETATM   13  C   UNK N   1      21.574  15.059   2.913  0.00  0.00    -0.046 A 
HETATM   14  C   UNK N   1      23.217  18.937   3.941  0.00  0.00     0.084 C 
HETATM   15  C   UNK N   1      21.766  19.323   3.730  0.00  0.00     0.157 C 
HETATM   16  C   UNK N   1      20.199  16.948   2.371  0.00  0.00     0.110 A 
HETATM   17  C   UNK N   1      21.308  14.496   1.654  0.00  0.00     0.011 A 
HETATM   18  C   UNK N   1      19.887  16.418   1.115  0.00  0.00     0.099 A 
HETATM   19  C   UNK N   1      20.430  15.163   0.764  0.00  0.00     0.040 A 
ENDROOT
BRANCH   3  20
HETATM   20  C   UNK N   1      21.970  14.824   7.536  0.00  0.00     0.277 C 
BRANCH  20  21
HETATM   21  C   UNK N   1      21.199  13.804   8.369  0.00  0.00     0.014 A 
HETATM   22  C   UNK N   1      20.450  14.543   9.462  0.00  0.00     0.007 A 
HETATM   23  C   UNK N   1      21.700  13.770   9.807  0.00  0.00     0.007 A 
ENDBRANCH  20  21
ENDBRANCH   3  20
BRANCH   5  24
HETATM   24  O   UNK N   1      22.567  17.415   6.349  0.00  0.00    -0.386 OA
HETATM   25  H   UNK N   1      23.181  18.132   6.572  0.00  0.00     0.210 HD
ENDBRANCH   5  24
BRANCH  18  26
HETATM   26  O   UNK N   1      19.105  17.091   0.255  0.00  0.00    -0.358 OA
HETATM   27  H   UNK N   1      18.178  16.960   0.218  0.00  0.00     0.217 HD
ENDBRANCH  18  26
TORSDOF 4
ENDMDL
MODEL 3
REMARK VINA RESULT:      -6.8      2.925      6.359
REMARK  4 active torsions:
REMARK  status: ('A' for Active; 'I' for Inactive)
REMARK    1  A    between atoms: C_7  and  O_2 
REMARK    2  A    between atoms: O_4  and  C_24 
REMARK    3  A    between atoms: N_5  and  C_16 
REMARK    4  A    between atoms: C_16  and  C_18 
ROOT
HETATM    1  O   UNK N   1      32.061  16.687   7.676  0.00  0.00    -0.334 OA
HETATM    2  O   UNK N   1      34.550  17.477   6.505  0.00  0.00    -0.295 OA
HETATM    3  N   UNK N   1      29.349  14.796   3.751  0.00  0.00     0.096 N 
HETATM    4  C   UNK N   1      31.317  15.946   5.579  0.00  0.00     0.058 C 
HETATM    5  C   UNK N   1      31.374  16.276   4.087  0.00  0.00     0.104 C 
HETATM    6  C   UNK N   1      29.892  16.157   3.560  0.00  0.00     0.262 C 
HETATM    7  C   UNK N   1      32.578  16.176   6.475  0.00  0.00     0.214 C 
HETATM    8  C   UNK N   1      30.819  14.496   5.754  0.00  0.00     0.051 C 
HETATM    9  C   UNK N   1      30.374  16.850   6.258  0.00  0.00    -0.001 A 
HETATM   10  C   UNK N   1      31.935  17.687   3.913  0.00  0.00     0.049 C 
HETATM   11  C   UNK N   1      29.446  14.265   5.117  0.00  0.00     0.274 C 
HETATM   12  C   UNK N   1      28.903  17.138   4.266  0.00  0.00     0.078 C 
HETATM   13  C   UNK N   1      29.200  17.356   5.729  0.00  0.00    -0.046 A 
HETATM   14  C   UNK N   1      33.336  17.836   4.522  0.00  0.00     0.084 C 
HETATM   15  C   UNK N   1      33.540  17.193   5.881  0.00  0.00     0.157 C 
HETATM   16  C   UNK N   1      30.824  17.160   7.483  0.00  0.00     0.110 A 
HETATM   17  C   UNK N   1      28.399  18.166   6.552  0.00  0.00     0.011 A 
HETATM   18  C   UNK N   1      30.053  17.943   8.347  0.00  0.00     0.099 A 
HETATM   19  C   UNK N   1      28.812  18.431   7.881  0.00  0.00     0.040 A 
ENDROOT
BRANCH   3  20
HETATM   20  C   UNK N   1      29.827  13.837   2.762  0.00  0.00     0.277 C 
BRANCH  20  21
HETATM   21  C   UNK N   1      28.814  13.716   1.627  0.00  0.00     0.014 A 
HETATM   22  C   UNK N   1      27.582  13.008   2.155  0.00  0.00     0.007 A 
HETATM   23  C   UNK N   1      28.550  12.259   1.273  0.00  0.00     0.007 A 
ENDBRANCH  20  21
ENDBRANCH   3  20
BRANCH   5  24
HETATM   24  O   UNK N   1      32.211  15.376   3.415  0.00  0.00    -0.386 OA
HETATM   25  H   UNK N   1      33.066  15.601   3.017  0.00  0.00     0.210 HD
ENDBRANCH   5  24
BRANCH  18  26
HETATM   26  O   UNK N   1      30.485  18.241   9.583  0.00  0.00    -0.358 OA
HETATM   27  H   UNK N   1      30.728  17.578  10.199  0.00  0.00     0.217 HD
ENDBRANCH  18  26
TORSDOF 4
ENDMDL
MODEL 4
REMARK VINA RESULT:      -6.7     13.866     17.133
REMARK  4 active torsions:
REMARK  status: ('A' for Active; 'I' for Inactive)
REMARK    1  A    between atoms: C_7  and  O_2 
REMARK    2  A    between atoms: O_4  and  C_24 
REMARK    3  A    between atoms: N_5  and  C_16 
REMARK    4  A    between atoms: C_16  and  C_18 
ROOT
HETATM    1  O   UNK N   1      26.117  25.153  -3.383  0.00  0.00    -0.334 OA
HETATM    2  O   UNK N   1      27.972  23.508  -1.953  0.00  0.00    -0.295 OA
HETATM    3  N   UNK N   1      27.137  24.224  -8.327  0.00  0.00     0.096 N 
HETATM    4  C   UNK N   1      26.980  24.351  -5.413  0.00  0.00     0.058 C 
HETATM    5  C   UNK N   1      28.282  23.923  -6.090  0.00  0.00     0.104 C 
HETATM    6  C   UNK N   1      28.291  24.633  -7.499  0.00  0.00     0.262 C 
HETATM    7  C   UNK N   1      26.738  24.008  -3.905  0.00  0.00     0.214 C 
HETATM    8  C   UNK N   1      25.787  23.850  -6.252  0.00  0.00     0.051 C 
HETATM    9  C   UNK N   1      26.913  25.820  -5.334  0.00  0.00    -0.001 A 
HETATM   10  C   UNK N   1      29.460  24.358  -5.219  0.00  0.00     0.049 C 
HETATM   11  C   UNK N   1      25.821  24.373  -7.691  0.00  0.00     0.274 C 
HETATM   12  C   UNK N   1      28.247  26.191  -7.408  0.00  0.00     0.078 C 
HETATM   13  C   UNK N   1      27.402  26.713  -6.272  0.00  0.00    -0.046 A 
HETATM   14  C   UNK N   1      29.397  23.754  -3.809  0.00  0.00     0.084 C 
HETATM   15  C   UNK N   1      28.032  23.760  -3.147  0.00  0.00     0.157 C 
HETATM   16  C   UNK N   1      26.331  26.201  -4.188  0.00  0.00     0.110 A 
HETATM   17  C   UNK N   1      27.197  28.085  -6.048  0.00  0.00     0.011 A 
HETATM   18  C   UNK N   1      26.084  27.553  -3.930  0.00  0.00     0.099 A 
HETATM   19  C   UNK N   1      26.502  28.504  -4.887  0.00  0.00     0.040 A 
ENDROOT
BRANCH   3  20
HETATM   20  C   UNK N   1      27.298  22.908  -8.936  0.00  0.00     0.277 C 
BRANCH  20  21
HETATM   21  C   UNK N   1      25.944  22.390  -9.412  0.00  0.00     0.014 A 
HETATM   22  C   UNK N   1      25.753  20.983  -8.879  0.00  0.00     0.007 A 
HETATM   23  C   UNK N   1      26.104  21.187 -10.333  0.00  0.00     0.007 A 
ENDBRANCH  20  21
ENDBRANCH   3  20
BRANCH   5  24
HETATM   24  O   UNK N   1      28.325  22.531  -6.238  0.00  0.00    -0.386 OA
HETATM   25  H   UNK N   1      29.127  21.989  -6.175  0.00  0.00     0.210 HD
ENDBRANCH   5  24
BRANCH  18  26
HETATM   26  O   UNK N   1      25.481  27.943  -2.795  0.00  0.00    -0.358 OA
HETATM   27  H   UNK N   1      25.576  28.810  -2.454  0.00  0.00     0.217 HD
ENDBRANCH  18  26
TORSDOF 4
ENDMDL
MODEL 5
REMARK VINA RESULT:      -6.5      9.160     11.407
REMARK  4 active torsions:
REMARK  status: ('A' for Active; 'I' for Inactive)
REMARK    1  A    between atoms: C_7  and  O_2 
REMARK    2  A    between atoms: O_4  and  C_24 
REMARK    3  A    between atoms: N_5  and  C_16 
REMARK    4  A    between atoms: C_16  and  C_18 
ROOT
HETATM    1  O   UNK N   1      23.640  18.761   4.158  0.00  0.00    -0.334 OA
HETATM    2  O   UNK N   1      25.666  16.982   3.198  0.00  0.00    -0.295 OA
HETATM    3  N   UNK N   1      20.139  15.674   6.293  0.00  0.00     0.096 N 
HETATM    4  C   UNK N   1      22.427  16.928   4.978  0.00  0.00     0.058 C 
HETATM    5  C   UNK N   1      22.065  15.476   4.662  0.00  0.00     0.104 C 
HETATM    6  C   UNK N   1      20.509  15.358   4.897  0.00  0.00     0.262 C 
HETATM    7  C   UNK N   1      23.859  17.463   4.642  0.00  0.00     0.214 C 
HETATM    8  C   UNK N   1      22.104  17.217   6.458  0.00  0.00     0.051 C 
HETATM    9  C   UNK N   1      21.631  17.839   4.138  0.00  0.00    -0.001 A 
HETATM   10  C   UNK N   1      22.453  15.172   3.215  0.00  0.00     0.049 C 
HETATM   11  C   UNK N   1      20.633  16.962   6.798  0.00  0.00     0.274 C 
HETATM   12  C   UNK N   1      19.671  16.307   3.985  0.00  0.00     0.078 C 
HETATM   13  C   UNK N   1      20.325  17.642   3.727  0.00  0.00    -0.046 A 
HETATM   14  C   UNK N   1      23.949  15.392   2.955  0.00  0.00     0.084 C 
HETATM   15  C   UNK N   1      24.551  16.644   3.564  0.00  0.00     0.157 C 
HETATM   16  C   UNK N   1      22.364  18.905   3.780  0.00  0.00     0.110 A 
HETATM   17  C   UNK N   1      19.711  18.654   2.970  0.00  0.00     0.011 A 
HETATM   18  C   UNK N   1      21.790  19.948   3.047  0.00  0.00     0.099 A 
HETATM   19  C   UNK N   1      20.438  19.829   2.658  0.00  0.00     0.040 A 
ENDROOT
BRANCH   3  20
HETATM   20  C   UNK N   1      20.412  14.587   7.226  0.00  0.00     0.277 C 
BRANCH  20  21
HETATM   21  C   UNK N   1      20.515  15.137   8.645  0.00  0.00     0.014 A 
HETATM   22  C   UNK N   1      21.574  14.348   9.391  0.00  0.00     0.007 A 
HETATM   23  C   UNK N   1      20.115  14.091   9.676  0.00  0.00     0.007 A 
ENDBRANCH  20  21
ENDBRANCH   3  20
BRANCH   5  24
HETATM   24  O   UNK N   1      22.760  14.601   5.505  0.00  0.00    -0.386 OA
HETATM   25  H   UNK N   1      22.762  14.644   6.473  0.00  0.00     0.210 HD
ENDBRANCH   5  24
BRANCH  18  26
HETATM   26  O   UNK N   1      22.510  21.029   2.702  0.00  0.00    -0.358 OA
HETATM   27  H   UNK N   1      22.398  21.857   3.126  0.00  0.00     0.217 HD
ENDBRANCH  18  26
TORSDOF 4
ENDMDL
MODEL 6
REMARK VINA RESULT:      -6.5      8.727     11.049
REMARK  4 active torsions:
REMARK  status: ('A' for Active; 'I' for Inactive)
REMARK    1  A    between atoms: C_7  and  O_2 
REMARK    2  A    between atoms: O_4  and  C_24 
REMARK    3  A    between atoms: N_5  and  C_16 
REMARK    4  A    between atoms: C_16  and  C_18 
ROOT
HETATM    1  O   UNK N   1      22.123  19.447   3.603  0.00  0.00    -0.334 OA
HETATM    2  O   UNK N   1      24.957  19.848   3.541  0.00  0.00    -0.295 OA
HETATM    3  N   UNK N   1      21.510  15.075   6.220  0.00  0.00     0.096 N 
HETATM    4  C   UNK N   1      22.434  17.479   4.841  0.00  0.00     0.058 C 
HETATM    5  C   UNK N   1      23.367  16.277   4.990  0.00  0.00     0.104 C 
HETATM    6  C   UNK N   1      22.430  15.009   5.066  0.00  0.00     0.262 C 
HETATM    7  C   UNK N   1      23.029  18.889   4.517  0.00  0.00     0.214 C 
HETATM    8  C   UNK N   1      21.534  17.575   6.089  0.00  0.00     0.051 C 
HETATM    9  C   UNK N   1      21.576  17.306   3.657  0.00  0.00    -0.001 A 
HETATM   10  C   UNK N   1      24.306  16.226   3.785  0.00  0.00     0.049 C 
HETATM   11  C   UNK N   1      20.711  16.304   6.319  0.00  0.00     0.274 C 
HETATM   12  C   UNK N   1      21.543  14.818   3.796  0.00  0.00     0.078 C 
HETATM   13  C   UNK N   1      21.063  16.111   3.185  0.00  0.00    -0.046 A 
HETATM   14  C   UNK N   1      25.143  17.505   3.645  0.00  0.00     0.084 C 
HETATM   15  C   UNK N   1      24.401  18.810   3.865  0.00  0.00     0.157 C 
HETATM   16  C   UNK N   1      21.372  18.486   3.051  0.00  0.00     0.110 A 
HETATM   17  C   UNK N   1      20.215  16.152   2.065  0.00  0.00     0.011 A 
HETATM   18  C   UNK N   1      20.518  18.581   1.948  0.00  0.00     0.099 A 
HETATM   19  C   UNK N   1      19.914  17.400   1.466  0.00  0.00     0.040 A 
ENDROOT
BRANCH   3  20
HETATM   20  C   UNK N   1      22.147  14.740   7.489  0.00  0.00     0.277 C 
BRANCH  20  21
HETATM   21  C   UNK N   1      21.270  13.761   8.264  0.00  0.00     0.014 A 
HETATM   22  C   UNK N   1      20.700  14.478   9.473  0.00  0.00     0.007 A 
HETATM   23  C   UNK N   1      21.831  13.495   9.655  0.00  0.00     0.007 A 
ENDBRANCH  20  21
ENDBRANCH   3  20
BRANCH   5  24
HETATM   24  O   UNK N   1      24.138  16.392   6.153  0.00  0.00    -0.386 OA
HETATM   25  H   UNK N   1      24.074  15.807   6.923  0.00  0.00     0.210 HD
ENDBRANCH   5  24
BRANCH  18  26
HETATM   26  O   UNK N   1      20.291  19.762   1.349  0.00  0.00    -0.358 OA
HETATM   27  H   UNK N   1      20.848  20.092   0.672  0.00  0.00     0.217 HD
ENDBRANCH  18  26
TORSDOF 4
ENDMDL
MODEL 7
REMARK VINA RESULT:      -6.5      9.937     12.028
REMARK  4 active torsions:
REMARK  status: ('A' for Active; 'I' for Inactive)
REMARK    1  A    between atoms: C_7  and  O_2 
REMARK    2  A    between atoms: O_4  and  C_24 
REMARK    3  A    between atoms: N_5  and  C_16 
REMARK    4  A    between atoms: C_16  and  C_18 
ROOT
HETATM    1  O   UNK N   1      21.153  14.702   0.689  0.00  0.00    -0.334 OA
HETATM    2  O   UNK N   1      19.566  16.811  -0.419  0.00  0.00    -0.295 OA
HETATM    3  N   UNK N   1      20.907  15.452   5.760  0.00  0.00     0.096 N 
HETATM    4  C   UNK N   1      20.685  15.493   2.847  0.00  0.00     0.058 C 
HETATM    5  C   UNK N   1      20.479  16.779   3.648  0.00  0.00     0.104 C 
HETATM    6  C   UNK N   1      21.342  16.616   4.959  0.00  0.00     0.262 C 
HETATM    7  C   UNK N   1      20.149  15.395   1.381  0.00  0.00     0.214 C 
HETATM    8  C   UNK N   1      20.158  14.299   3.668  0.00  0.00     0.051 C 
HETATM    9  C   UNK N   1      22.120  15.286   2.589  0.00  0.00    -0.001 A 
HETATM   10  C   UNK N   1      20.936  17.967   2.803  0.00  0.00     0.049 C 
HETATM   11  C   UNK N   1      20.841  14.177   5.033  0.00  0.00     0.274 C 
HETATM   12  C   UNK N   1      22.865  16.424   4.678  0.00  0.00     0.078 C 
HETATM   13  C   UNK N   1      23.161  15.614   3.439  0.00  0.00    -0.046 A 
HETATM   14  C   UNK N   1      20.173  18.066   1.475  0.00  0.00     0.084 C 
HETATM   15  C   UNK N   1      19.956  16.759   0.736  0.00  0.00     0.157 C 
HETATM   16  C   UNK N   1      22.303  14.752   1.372  0.00  0.00     0.110 A 
HETATM   17  C   UNK N   1      24.468  15.290   3.040  0.00  0.00     0.011 A 
HETATM   18  C   UNK N   1      23.583  14.391   0.939  0.00  0.00     0.099 A 
HETATM   19  C   UNK N   1      24.676  14.642   1.797  0.00  0.00     0.040 A 
ENDROOT
BRANCH   3  20
HETATM   20  C   UNK N   1      19.695  15.699   6.532  0.00  0.00     0.277 C 
BRANCH  20  21
HETATM   21  C   UNK N   1      19.974  16.736   7.617  0.00  0.00     0.014 A 
HETATM   22  C   UNK N   1      20.487  16.016   8.849  0.00  0.00     0.007 A 
HETATM   23  C   UNK N   1      19.069  16.533   8.824  0.00  0.00     0.007 A 
ENDBRANCH  20  21
ENDBRANCH   3  20
BRANCH   5  24
HETATM   24  O   UNK N   1      19.126  16.950   3.965  0.00  0.00    -0.386 OA
HETATM   25  H   UNK N   1      18.518  16.238   4.217  0.00  0.00     0.210 HD
ENDBRANCH   5  24
BRANCH  18  26
HETATM   26  O   UNK N   1      23.774  13.835  -0.269  0.00  0.00    -0.358 OA
HETATM   27  H   UNK N   1      23.070  13.702  -0.872  0.00  0.00     0.217 HD
ENDBRANCH  18  26
TORSDOF 4
ENDMDL
MODEL 8
REMARK VINA RESULT:      -6.4      3.002      5.921
REMARK  4 active torsions:
REMARK  status: ('A' for Active; 'I' for Inactive)
REMARK    1  A    between atoms: C_7  and  O_2 
REMARK    2  A    between atoms: O_4  and  C_24 
REMARK    3  A    between atoms: N_5  and  C_16 
REMARK    4  A    between atoms: C_16  and  C_18 
ROOT
HETATM    1  O   UNK N   1      34.614  17.128   6.022  0.00  0.00    -0.334 OA
HETATM    2  O   UNK N   1      33.881  18.535   8.405  0.00  0.00    -0.295 OA
HETATM    3  N   UNK N   1      30.135  15.919   3.827  0.00  0.00     0.096 N 
HETATM    4  C   UNK N   1      32.345  16.872   5.483  0.00  0.00     0.058 C 
HETATM    5  C   UNK N   1      30.972  16.628   6.109  0.00  0.00     0.104 C 
HETATM    6  C   UNK N   1      30.294  15.501   5.236  0.00  0.00     0.262 C 
HETATM    7  C   UNK N   1      33.386  17.777   6.222  0.00  0.00     0.214 C 
HETATM    8  C   UNK N   1      32.158  17.380   4.039  0.00  0.00     0.051 C 
HETATM    9  C   UNK N   1      33.111  15.615   5.442  0.00  0.00    -0.001 A 
HETATM   10  C   UNK N   1      31.159  16.194   7.562  0.00  0.00     0.049 C 
HETATM   11  C   UNK N   1      31.358  16.402   3.172  0.00  0.00     0.274 C 
HETATM   12  C   UNK N   1      31.097  14.163   5.219  0.00  0.00     0.078 C 
HETATM   13  C   UNK N   1      32.594  14.349   5.232  0.00  0.00    -0.046 A 
HETATM   14  C   UNK N   1      31.916  17.242   8.389  0.00  0.00     0.084 C 
HETATM   15  C   UNK N   1      33.118  17.876   7.716  0.00  0.00     0.157 C 
HETATM   16  C   UNK N   1      34.411  15.852   5.674  0.00  0.00     0.110 A 
HETATM   17  C   UNK N   1      33.492  13.270   5.173  0.00  0.00     0.011 A 
HETATM   18  C   UNK N   1      35.346  14.815   5.602  0.00  0.00     0.099 A 
HETATM   19  C   UNK N   1      34.880  13.511   5.324  0.00  0.00     0.040 A 
ENDROOT
BRANCH   3  20
HETATM   20  C   UNK N   1      29.013  16.827   3.614  0.00  0.00     0.277 C 
BRANCH  20  21
HETATM   21  C   UNK N   1      27.706  16.127   3.976  0.00  0.00     0.014 A 
HETATM   22  C   UNK N   1      27.078  15.592   2.704  0.00  0.00     0.007 A 
HETATM   23  C   UNK N   1      26.509  16.831   3.353  0.00  0.00     0.007 A 
ENDBRANCH  20  21
ENDBRANCH   3  20
BRANCH   5  24
HETATM   24  O   UNK N   1      30.205  17.799   6.087  0.00  0.00    -0.386 OA
HETATM   25  H   UNK N   1      30.063  18.357   5.306  0.00  0.00     0.210 HD
ENDBRANCH   5  24
BRANCH  18  26
HETATM   26  O   UNK N   1      36.653  15.045   5.811  0.00  0.00    -0.358 OA
HETATM   27  H   UNK N   1      37.316  14.451   5.519  0.00  0.00     0.217 HD
ENDBRANCH  18  26
TORSDOF 4
ENDMDL
MODEL 9
REMARK VINA RESULT:      -6.4     15.939     18.027
REMARK  4 active torsions:
REMARK  status: ('A' for Active; 'I' for Inactive)
REMARK    1  A    between atoms: C_7  and  O_2 
REMARK    2  A    between atoms: O_4  and  C_24 
REMARK    3  A    between atoms: N_5  and  C_16 
REMARK    4  A    between atoms: C_16  and  C_18 
ROOT
HETATM    1  O   UNK N   1      26.555  28.804  -5.528  0.00  0.00    -0.334 OA
HETATM    2  O   UNK N   1      25.546  28.075  -2.950  0.00  0.00    -0.295 OA
HETATM    3  N   UNK N   1      26.617  24.401  -8.164  0.00  0.00     0.096 N 
HETATM    4  C   UNK N   1      26.353  26.575  -6.230  0.00  0.00     0.058 C 
HETATM    5  C   UNK N   1      26.504  25.133  -5.744  0.00  0.00     0.104 C 
HETATM    6  C   UNK N   1      27.321  24.382  -6.865  0.00  0.00     0.262 C 
HETATM    7  C   UNK N   1      25.779  27.665  -5.266  0.00  0.00     0.214 C 
HETATM    8  C   UNK N   1      25.551  26.580  -7.547  0.00  0.00     0.051 C 
HETATM    9  C   UNK N   1      27.679  27.160  -6.487  0.00  0.00    -0.001 A 
HETATM   10  C   UNK N   1      27.236  25.137  -4.403  0.00  0.00     0.049 C 
HETATM   11  C   UNK N   1      26.207  25.730  -8.638  0.00  0.00     0.274 C 
HETATM   12  C   UNK N   1      28.736  24.991  -7.113  0.00  0.00     0.078 C 
HETATM   13  C   UNK N   1      28.787  26.494  -6.981  0.00  0.00    -0.046 A 
HETATM   14  C   UNK N   1      26.497  25.959  -3.338  0.00  0.00     0.084 C 
HETATM   15  C   UNK N   1      25.934  27.289  -3.800  0.00  0.00     0.157 C 
HETATM   16  C   UNK N   1      27.693  28.457  -6.142  0.00  0.00     0.110 A 
HETATM   17  C   UNK N   1      29.957  27.237  -7.211  0.00  0.00     0.011 A 
HETATM   18  C   UNK N   1      28.825  29.243  -6.374  0.00  0.00     0.099 A 
HETATM   19  C   UNK N   1      29.963  28.627  -6.939  0.00  0.00     0.040 A 
ENDROOT
BRANCH   3  20
HETATM   20  C   UNK N   1      25.526  23.436  -8.246  0.00  0.00     0.277 C 
BRANCH  20  21
HETATM   21  C   UNK N   1      25.963  22.108  -7.636  0.00  0.00     0.014 A 
HETATM   22  C   UNK N   1      25.397  20.981  -8.479  0.00  0.00     0.007 A 
HETATM   23  C   UNK N   1      24.767  21.303  -7.146  0.00  0.00     0.007 A 
ENDBRANCH  20  21
ENDBRANCH   3  20
BRANCH   5  24
HETATM   24  O   UNK N   1      25.248  24.539  -5.566  0.00  0.00    -0.386 OA
HETATM   25  H   UNK N   1      24.550  24.877  -4.984  0.00  0.00     0.210 HD
ENDBRANCH   5  24
BRANCH  18  26
HETATM   26  O   UNK N   1      28.841  30.547  -6.052  0.00  0.00    -0.358 OA
HETATM   27  H   UNK N   1      29.236  31.191  -6.605  0.00  0.00     0.217 HD
ENDBRANCH  18  26
TORSDOF 4
ENDMDL
