REMARK  6 active torsions:
REMARK  status: ('A' for Active; 'I' for Inactive)
REMARK    1  A    between atoms: S_1  and  N_11 
REMARK    2  A    between atoms: N_5  and  C_16 
REMARK       I    between atoms: N_6  and  C_17 
REMARK    3  A    between atoms: N_8  and  C_19 
REMARK    4  A    between atoms: N_8  and  C_23 
REMARK    5  A    between atoms: N_11  and  C_28 
REMARK    6  A    between atoms: C_17  and  C_18 
ROOT
HETATM    1  O   UNK N   1       8.879   4.141  -0.443  0.00  0.00    -0.266 OA
HETATM    2  N   UNK N   1       9.703  -0.373  -0.562  0.00  0.00    -0.362 N 
HETATM    3  N   UNK N   1       9.151   2.093   0.451  0.00  0.00    -0.344 N 
HETATM    4  C   UNK N   1      10.631   0.697  -0.944  0.00  0.00     0.144 C 
HETATM    5  C   UNK N   1       8.379   0.005  -0.167  0.00  0.00     0.144 C 
HETATM    6  C   UNK N   1      10.522   1.946  -0.006  0.00  0.00     0.146 C 
HETATM    7  C   UNK N   1       8.558   0.917   1.008  0.00  0.00     0.146 C 
HETATM    8  C   UNK N   1       8.373   3.182   0.120  0.00  0.00     0.270 C 
ENDROOT
BRANCH   8   9
HETATM    9  C   UNK N   1       6.879   3.145   0.297  0.00  0.00     0.102 A 
HETATM   10  N   UNK N   1       6.014   3.964  -0.360  0.00  0.00    -0.351 N 
HETATM   11  C   UNK N   1       4.796   3.415  -0.157  0.00  0.00     0.043 A 
HETATM   12  H   UNK N   1       6.228   4.777  -0.870  0.00  0.00     0.166 HD
HETATM   13  C   UNK N   1       4.890   2.299   0.615  0.00  0.00    -0.005 A 
HETATM   14  C   UNK N   1       3.574   3.810  -0.699  0.00  0.00     0.033 A 
HETATM   15  C   UNK N   1       6.189   2.114   0.931  0.00  0.00     0.049 A 
HETATM   16  C   UNK N   1       3.816   1.479   0.898  0.00  0.00     0.043 A 
HETATM   17  C   UNK N   1       2.574   1.817   0.356  0.00  0.00     0.043 A 
HETATM   18  C   UNK N   1       2.447   2.991  -0.439  0.00  0.00     0.032 A 
BRANCH  17  19
HETATM   19  N   UNK N   1       1.490   0.937   0.577  0.00  0.00    -0.285 N 
HETATM   20  H   UNK N   1       1.629   0.167   1.175  0.00  0.00     0.178 HD
BRANCH  19  21
HETATM   21  S   UNK N   1      -0.087   1.142  -0.154  0.00  0.00     0.227 S 
HETATM   22  O   UNK N   1       0.176   1.223  -1.665  0.00  0.00    -0.206 OA
HETATM   23  O   UNK N   1      -0.737  -0.243  -0.015  0.00  0.00    -0.206 OA
HETATM   24  C   UNK N   1      -1.118   2.475   0.510  0.00  0.00     0.186 C 
ENDBRANCH  19  21
ENDBRANCH  17  19
ENDBRANCH   8   9
BRANCH   2  25
HETATM   25  C   UNK N   1      10.141  -1.718  -0.326  0.00  0.00     0.130 A 
HETATM   26  N   UNK N   1      11.474  -1.997  -0.373  0.00  0.00    -0.351 N 
HETATM   27  C   UNK N   1      11.963  -3.235  -0.098  0.00  0.00     0.090 A 
ATOM     28  HN  UNK N   1      12.126  -1.253  -0.622  1.00  0.00     0.166 HD
HETATM   29  C   UNK N   1      11.100  -4.274   0.247  0.00  0.00     0.019 A 
HETATM   30  C   UNK N   1       9.730  -4.040   0.288  0.00  0.00     0.034 A 
HETATM   31  C   UNK N   1       9.224  -2.770   0.000  0.00  0.00     0.072 A 
BRANCH  31  32
HETATM   32  N   UNK N   1       7.816  -2.542   0.030  0.00  0.00    -0.383 N 
HETATM   33  H   UNK N   1       7.499  -1.647  -0.230  0.00  0.00     0.160 HD
BRANCH  32  34
HETATM   34  C   UNK N   1       6.814  -3.512   0.410  0.00  0.00     0.073 C 
HETATM   35  C   UNK N   1       5.458  -2.833   0.408  0.00  0.00     0.031 C 
HETATM   36  C   UNK N   1       6.776  -4.663  -0.576  0.00  0.00     0.031 C 
ENDBRANCH  32  34
ENDBRANCH  31  32
ENDBRANCH   2  25
TORSDOF 6
