MODEL 1
REMARK VINA RESULT:      -8.3      0.000      0.000
REMARK  6 active torsions:
REMARK  status: ('A' for Active; 'I' for Inactive)
REMARK    1  A    between atoms: S_1  and  N_11 
REMARK    2  A    between atoms: N_5  and  C_16 
REMARK       I    between atoms: N_6  and  C_17 
REMARK    3  A    between atoms: N_8  and  C_19 
REMARK    4  A    between atoms: N_8  and  C_23 
REMARK    5  A    between atoms: N_11  and  C_28 
REMARK    6  A    between atoms: C_17  and  C_18 
ROOT
HETATM    1  O   UNK N   1      36.335  13.350   8.369  0.00  0.00    -0.266 OA
HETATM    2  N   UNK N   1      36.029  13.788  12.928  0.00  0.00    -0.362 N 
HETATM    3  N   UNK N   1      36.639  14.388  10.344  0.00  0.00    -0.344 N 
HETATM    4  C   UNK N   1      36.782  12.764  12.195  0.00  0.00     0.144 C 
HETATM    5  C   UNK N   1      35.254  14.718  12.163  0.00  0.00     0.144 C 
HETATM    6  C   UNK N   1      37.464  13.333  10.905  0.00  0.00     0.146 C 
HETATM    7  C   UNK N   1      36.232  15.406  11.261  0.00  0.00     0.146 C 
HETATM    8  C   UNK N   1      36.045  14.283   9.104  0.00  0.00     0.270 C 
ENDROOT
BRANCH   8   9
HETATM    9  C   UNK N   1      34.928  15.208   8.702  0.00  0.00     0.102 A 
HETATM   10  N   UNK N   1      34.935  15.964   7.572  0.00  0.00    -0.351 N 
HETATM   11  C   UNK N   1      33.662  16.396   7.436  0.00  0.00     0.043 A 
HETATM   12  H   UNK N   1      35.700  16.156   6.983  0.00  0.00     0.166 HD
HETATM   13  C   UNK N   1      32.885  15.940   8.455  0.00  0.00    -0.005 A 
HETATM   14  C   UNK N   1      33.110  17.127   6.385  0.00  0.00     0.033 A 
HETATM   15  C   UNK N   1      33.659  15.203   9.278  0.00  0.00     0.049 A 
HETATM   16  C   UNK N   1      31.520  16.141   8.517  0.00  0.00     0.043 A 
HETATM   17  C   UNK N   1      30.914  16.845   7.474  0.00  0.00     0.043 A 
HETATM   18  C   UNK N   1      31.710  17.349   6.407  0.00  0.00     0.032 A 
BRANCH  17  19
HETATM   19  N   UNK N   1      29.508  16.984   7.494  0.00  0.00    -0.285 N 
HETATM   20  H   UNK N   1      28.967  16.319   7.009  0.00  0.00     0.178 HD
BRANCH  19  21
HETATM   21  S   UNK N   1      28.674  18.273   8.336  0.00  0.00     0.227 S 
HETATM   22  O   UNK N   1      27.765  17.568   9.354  0.00  0.00    -0.206 OA
HETATM   23  O   UNK N   1      29.758  18.880   9.239  0.00  0.00    -0.206 OA
HETATM   24  C   UNK N   1      27.844  19.507   7.303  0.00  0.00     0.186 C 
ENDBRANCH  19  21
ENDBRANCH  17  19
ENDBRANCH   8   9
BRANCH   2  25
HETATM   25  C   UNK N   1      36.244  14.044  14.323  0.00  0.00     0.130 A 
HETATM   26  N   UNK N   1      37.159  14.985  14.689  0.00  0.00    -0.351 N 
HETATM   27  C   UNK N   1      37.368  15.323  15.989  0.00  0.00     0.090 A 
ATOM     28  HN  UNK N   1      37.705  15.452  13.964  1.00  0.00     0.166 HD
HETATM   29  C   UNK N   1      36.639  14.706  17.004  0.00  0.00     0.019 A 
HETATM   30  C   UNK N   1      35.708  13.725  16.678  0.00  0.00     0.034 A 
HETATM   31  C   UNK N   1      35.496  13.372  15.344  0.00  0.00     0.072 A 
BRANCH  31  32
HETATM   32  N   UNK N   1      34.550  12.354  15.019  0.00  0.00    -0.383 N 
HETATM   33  H   UNK N   1      33.604  12.620  14.965  0.00  0.00     0.160 HD
BRANCH  32  34
HETATM   34  C   UNK N   1      34.861  10.966  14.764  0.00  0.00     0.073 C 
HETATM   35  C   UNK N   1      34.626  10.175  16.037  0.00  0.00     0.031 C 
HETATM   36  C   UNK N   1      33.966  10.403  13.677  0.00  0.00     0.031 C 
ENDBRANCH  32  34
ENDBRANCH  31  32
ENDBRANCH   2  25
TORSDOF 6
ENDMDL
MODEL 2
REMARK VINA RESULT:      -8.1      2.134      2.766
REMARK  6 active torsions:
REMARK  status: ('A' for Active; 'I' for Inactive)
REMARK    1  A    between atoms: S_1  and  N_11 
REMARK    2  A    between atoms: N_5  and  C_16 
REMARK       I    between atoms: N_6  and  C_17 
REMARK    3  A    between atoms: N_8  and  C_19 
REMARK    4  A    between atoms: N_8  and  C_23 
REMARK    5  A    between atoms: N_11  and  C_28 
REMARK    6  A    between atoms: C_17  and  C_18 
ROOT
HETATM    1  O   UNK N   1      34.639  15.343   7.131  0.00  0.00    -0.266 OA
HETATM    2  N   UNK N   1      35.237  13.911  11.451  0.00  0.00    -0.362 N 
HETATM    3  N   UNK N   1      35.020  15.609   9.333  0.00  0.00    -0.344 N 
HETATM    4  C   UNK N   1      36.100  13.613  10.302  0.00  0.00     0.144 C 
HETATM    5  C   UNK N   1      34.049  14.674  11.210  0.00  0.00     0.144 C 
HETATM    6  C   UNK N   1      36.250  14.835   9.334  0.00  0.00     0.146 C 
HETATM    7  C   UNK N   1      34.519  15.970  10.623  0.00  0.00     0.146 C 
HETATM    8  C   UNK N   1      34.232  15.745   8.210  0.00  0.00     0.270 C 
ENDROOT
BRANCH   8   9
HETATM    9  C   UNK N   1      32.814  16.236   8.318  0.00  0.00     0.102 A 
HETATM   10  N   UNK N   1      32.435  17.314   9.057  0.00  0.00    -0.351 N 
HETATM   11  C   UNK N   1      31.177  17.588   8.649  0.00  0.00     0.043 A 
HETATM   12  H   UNK N   1      32.962  17.788   9.739  0.00  0.00     0.166 HD
HETATM   13  C   UNK N   1      30.772  16.704   7.698  0.00  0.00    -0.005 A 
HETATM   14  C   UNK N   1      30.367  18.660   9.021  0.00  0.00     0.033 A 
HETATM   15  C   UNK N   1      31.776  15.829   7.482  0.00  0.00     0.049 A 
HETATM   16  C   UNK N   1      29.568  16.806   7.030  0.00  0.00     0.043 A 
HETATM   17  C   UNK N   1      28.732  17.878   7.348  0.00  0.00     0.043 A 
HETATM   18  C   UNK N   1      29.126  18.806   8.353  0.00  0.00     0.032 A 
BRANCH  17  19
HETATM   19  N   UNK N   1      27.537  18.032   6.609  0.00  0.00    -0.285 N 
HETATM   20  H   UNK N   1      26.877  17.301   6.633  0.00  0.00     0.178 HD
BRANCH  19  21
HETATM   21  S   UNK N   1      27.164  19.451   5.655  0.00  0.00     0.227 S 
HETATM   22  O   UNK N   1      28.344  19.605   4.684  0.00  0.00    -0.206 OA
HETATM   23  O   UNK N   1      26.040  18.978   4.721  0.00  0.00    -0.206 OA
HETATM   24  C   UNK N   1      26.735  20.952   6.573  0.00  0.00     0.186 C 
ENDBRANCH  19  21
ENDBRANCH  17  19
ENDBRANCH   8   9
BRANCH   2  25
HETATM   25  C   UNK N   1      35.663  13.697  12.803  0.00  0.00     0.130 A 
HETATM   26  N   UNK N   1      36.528  14.583  13.372  0.00  0.00    -0.351 N 
HETATM   27  C   UNK N   1      36.924  14.476  14.668  0.00  0.00     0.090 A 
ATOM     28  HN  UNK N   1      36.890  15.352  12.807  1.00  0.00     0.166 HD
HETATM   29  C   UNK N   1      36.447  13.439  15.468  0.00  0.00     0.019 A 
HETATM   30  C   UNK N   1      35.577  12.500  14.924  0.00  0.00     0.034 A 
HETATM   31  C   UNK N   1      35.174  12.604  13.590  0.00  0.00     0.072 A 
BRANCH  31  32
HETATM   32  N   UNK N   1      34.293  11.628  13.035  0.00  0.00    -0.383 N 
HETATM   33  H   UNK N   1      33.327  11.774  13.154  0.00  0.00     0.160 HD
BRANCH  32  34
HETATM   34  C   UNK N   1      34.698  10.442  12.314  0.00  0.00     0.073 C 
HETATM   35  C   UNK N   1      35.006   9.347  13.317  0.00  0.00     0.031 C 
HETATM   36  C   UNK N   1      33.586   9.960  11.403  0.00  0.00     0.031 C 
ENDBRANCH  32  34
ENDBRANCH  31  32
ENDBRANCH   2  25
TORSDOF 6
ENDMDL
MODEL 3
REMARK VINA RESULT:      -7.8      8.350     12.415
REMARK  6 active torsions:
REMARK  status: ('A' for Active; 'I' for Inactive)
REMARK    1  A    between atoms: S_1  and  N_11 
REMARK    2  A    between atoms: N_5  and  C_16 
REMARK       I    between atoms: N_6  and  C_17 
REMARK    3  A    between atoms: N_8  and  C_19 
REMARK    4  A    between atoms: N_8  and  C_23 
REMARK    5  A    between atoms: N_11  and  C_28 
REMARK    6  A    between atoms: C_17  and  C_18 
ROOT
HETATM    1  O   UNK N   1      25.213  20.573   1.986  0.00  0.00    -0.266 OA
HETATM    2  N   UNK N   1      27.572  18.573   5.378  0.00  0.00    -0.362 N 
HETATM    3  N   UNK N   1      25.888  20.300   4.116  0.00  0.00    -0.344 N 
HETATM    4  C   UNK N   1      28.132  19.280   4.221  0.00  0.00     0.144 C 
HETATM    5  C   UNK N   1      26.149  18.427   5.443  0.00  0.00     0.144 C 
HETATM    6  C   UNK N   1      27.291  20.541   3.827  0.00  0.00     0.146 C 
HETATM    7  C   UNK N   1      25.604  19.823   5.434  0.00  0.00     0.146 C 
HETATM    8  C   UNK N   1      24.927  20.251   3.129  0.00  0.00     0.270 C 
ENDROOT
BRANCH   8   9
HETATM    9  C   UNK N   1      23.571  19.657   3.402  0.00  0.00     0.102 A 
HETATM   10  N   UNK N   1      22.398  20.227   3.014  0.00  0.00    -0.351 N 
HETATM   11  C   UNK N   1      21.472  19.256   3.175  0.00  0.00     0.043 A 
HETATM   12  H   UNK N   1      22.256  21.144   2.689  0.00  0.00     0.166 HD
HETATM   13  C   UNK N   1      22.040  18.120   3.663  0.00  0.00    -0.005 A 
HETATM   14  C   UNK N   1      20.123  19.289   2.828  0.00  0.00     0.033 A 
HETATM   15  C   UNK N   1      23.360  18.349   3.833  0.00  0.00     0.049 A 
HETATM   16  C   UNK N   1      21.350  16.937   3.829  0.00  0.00     0.043 A 
HETATM   17  C   UNK N   1      20.000  16.911   3.470  0.00  0.00     0.043 A 
HETATM   18  C   UNK N   1      19.379  18.092   2.976  0.00  0.00     0.032 A 
BRANCH  17  19
HETATM   19  N   UNK N   1      19.310  15.680   3.563  0.00  0.00    -0.285 N 
HETATM   20  H   UNK N   1      19.054  15.225   2.728  0.00  0.00     0.178 HD
BRANCH  19  21
HETATM   21  S   UNK N   1      18.888  14.921   5.082  0.00  0.00     0.227 S 
HETATM   22  O   UNK N   1      17.879  15.872   5.743  0.00  0.00    -0.206 OA
HETATM   23  O   UNK N   1      17.993  13.744   4.665  0.00  0.00    -0.206 OA
HETATM   24  C   UNK N   1      20.266  14.418   6.145  0.00  0.00     0.186 C 
ENDBRANCH  19  21
ENDBRANCH  17  19
ENDBRANCH   8   9
BRANCH   2  25
HETATM   25  C   UNK N   1      28.356  18.263   6.538  0.00  0.00     0.130 A 
HETATM   26  N   UNK N   1      28.073  18.889   7.714  0.00  0.00    -0.351 N 
HETATM   27  C   UNK N   1      28.734  18.597   8.866  0.00  0.00     0.090 A 
ATOM     28  HN  UNK N   1      27.340  19.599   7.732  1.00  0.00     0.166 HD
HETATM   29  C   UNK N   1      29.739  17.632   8.877  0.00  0.00     0.019 A 
HETATM   30  C   UNK N   1      30.076  16.981   7.695  0.00  0.00     0.034 A 
HETATM   31  C   UNK N   1      29.402  17.283   6.509  0.00  0.00     0.072 A 
BRANCH  31  32
HETATM   32  N   UNK N   1      29.764  16.622   5.298  0.00  0.00    -0.383 N 
HETATM   33  H   UNK N   1      29.032  16.311   4.718  0.00  0.00     0.160 HD
BRANCH  32  34
HETATM   34  C   UNK N   1      31.114  16.368   4.848  0.00  0.00     0.073 C 
HETATM   35  C   UNK N   1      31.062  15.389   3.691  0.00  0.00     0.031 C 
HETATM   36  C   UNK N   1      31.772  17.646   4.367  0.00  0.00     0.031 C 
ENDBRANCH  32  34
ENDBRANCH  31  32
ENDBRANCH   2  25
TORSDOF 6
ENDMDL
MODEL 4
REMARK VINA RESULT:      -7.8      3.316      9.926
REMARK  6 active torsions:
REMARK  status: ('A' for Active; 'I' for Inactive)
REMARK    1  A    between atoms: S_1  and  N_11 
REMARK    2  A    between atoms: N_5  and  C_16 
REMARK       I    between atoms: N_6  and  C_17 
REMARK    3  A    between atoms: N_8  and  C_19 
REMARK    4  A    between atoms: N_8  and  C_23 
REMARK    5  A    between atoms: N_11  and  C_28 
REMARK    6  A    between atoms: C_17  and  C_18 
ROOT
HETATM    1  O   UNK N   1      34.354  17.987   6.294  0.00  0.00    -0.266 OA
HETATM    2  N   UNK N   1      29.997  16.549   6.171  0.00  0.00    -0.362 N 
HETATM    3  N   UNK N   1      32.697  16.537   5.825  0.00  0.00    -0.344 N 
HETATM    4  C   UNK N   1      30.556  17.710   5.469  0.00  0.00     0.144 C 
HETATM    5  C   UNK N   1      30.869  15.812   7.036  0.00  0.00     0.144 C 
HETATM    6  C   UNK N   1      32.000  17.441   4.926  0.00  0.00     0.146 C 
HETATM    7  C   UNK N   1      31.992  15.340   6.164  0.00  0.00     0.146 C 
HETATM    8  C   UNK N   1      33.819  16.915   6.532  0.00  0.00     0.270 C 
ENDROOT
BRANCH   8   9
HETATM    9  C   UNK N   1      34.303  16.102   7.702  0.00  0.00     0.102 A 
HETATM   10  N   UNK N   1      35.240  15.120   7.611  0.00  0.00    -0.351 N 
HETATM   11  C   UNK N   1      35.600  14.865   8.888  0.00  0.00     0.043 A 
HETATM   12  H   UNK N   1      35.581  14.690   6.795  0.00  0.00     0.166 HD
HETATM   13  C   UNK N   1      34.901  15.648   9.754  0.00  0.00    -0.005 A 
HETATM   14  C   UNK N   1      36.601  14.010   9.346  0.00  0.00     0.033 A 
HETATM   15  C   UNK N   1      34.063  16.425   9.036  0.00  0.00     0.049 A 
HETATM   16  C   UNK N   1      35.135  15.673  11.114  0.00  0.00     0.043 A 
HETATM   17  C   UNK N   1      36.147  14.853  11.619  0.00  0.00     0.043 A 
HETATM   18  C   UNK N   1      36.879  14.011  10.735  0.00  0.00     0.032 A 
BRANCH  17  19
HETATM   19  N   UNK N   1      36.443  14.935  12.999  0.00  0.00    -0.285 N 
HETATM   20  H   UNK N   1      36.870  15.756  13.335  0.00  0.00     0.178 HD
BRANCH  19  21
HETATM   21  S   UNK N   1      36.092  13.657  14.141  0.00  0.00     0.227 S 
HETATM   22  O   UNK N   1      34.661  13.205  13.814  0.00  0.00    -0.206 OA
HETATM   23  O   UNK N   1      36.927  12.472  13.633  0.00  0.00    -0.206 OA
HETATM   24  C   UNK N   1      36.388  14.032  15.889  0.00  0.00     0.186 C 
ENDBRANCH  19  21
ENDBRANCH  17  19
ENDBRANCH   8   9
BRANCH   2  25
HETATM   25  C   UNK N   1      28.721  15.990   5.829  0.00  0.00     0.130 A 
HETATM   26  N   UNK N   1      28.667  14.721   5.336  0.00  0.00    -0.351 N 
HETATM   27  C   UNK N   1      27.488  14.107   5.050  0.00  0.00     0.090 A 
ATOM     28  HN  UNK N   1      29.538  14.215   5.176  1.00  0.00     0.166 HD
HETATM   29  C   UNK N   1      26.279  14.769   5.258  0.00  0.00     0.019 A 
HETATM   30  C   UNK N   1      26.288  16.073   5.741  0.00  0.00     0.034 A 
HETATM   31  C   UNK N   1      27.498  16.709   6.030  0.00  0.00     0.072 A 
BRANCH  31  32
HETATM   32  N   UNK N   1      27.498  18.051   6.511  0.00  0.00    -0.383 N 
HETATM   33  H   UNK N   1      27.871  18.208   7.409  0.00  0.00     0.160 HD
BRANCH  32  34
HETATM   34  C   UNK N   1      26.998  19.203   5.795  0.00  0.00     0.073 C 
HETATM   35  C   UNK N   1      27.538  20.456   6.456  0.00  0.00     0.031 C 
HETATM   36  C   UNK N   1      27.461  19.184   4.351  0.00  0.00     0.031 C 
ENDBRANCH  32  34
ENDBRANCH  31  32
ENDBRANCH   2  25
TORSDOF 6
ENDMDL
MODEL 5
REMARK VINA RESULT:      -7.7      2.847      4.253
REMARK  6 active torsions:
REMARK  status: ('A' for Active; 'I' for Inactive)
REMARK    1  A    between atoms: S_1  and  N_11 
REMARK    2  A    between atoms: N_5  and  C_16 
REMARK       I    between atoms: N_6  and  C_17 
REMARK    3  A    between atoms: N_8  and  C_19 
REMARK    4  A    between atoms: N_8  and  C_23 
REMARK    5  A    between atoms: N_11  and  C_28 
REMARK    6  A    between atoms: C_17  and  C_18 
ROOT
HETATM    1  O   UNK N   1      35.127  18.014   9.182  0.00  0.00    -0.266 OA
HETATM    2  N   UNK N   1      35.881  13.556   9.977  0.00  0.00    -0.362 N 
HETATM    3  N   UNK N   1      34.811  16.047  10.230  0.00  0.00    -0.344 N 
HETATM    4  C   UNK N   1      36.843  14.651  10.146  0.00  0.00     0.144 C 
HETATM    5  C   UNK N   1      34.588  13.882   9.453  0.00  0.00     0.144 C 
HETATM    6  C   UNK N   1      36.177  15.949  10.713  0.00  0.00     0.146 C 
HETATM    7  C   UNK N   1      34.008  14.877  10.411  0.00  0.00     0.146 C 
HETATM    8  C   UNK N   1      34.389  17.066   9.402  0.00  0.00     0.270 C 
ENDROOT
BRANCH   8   9
HETATM    9  C   UNK N   1      33.097  16.954   8.639  0.00  0.00     0.102 A 
HETATM   10  N   UNK N   1      31.891  17.360   9.120  0.00  0.00    -0.351 N 
HETATM   11  C   UNK N   1      31.075  17.370   8.043  0.00  0.00     0.043 A 
HETATM   12  H   UNK N   1      31.663  17.594  10.047  0.00  0.00     0.166 HD
HETATM   13  C   UNK N   1      31.740  16.968   6.927  0.00  0.00    -0.005 A 
HETATM   14  C   UNK N   1      29.752  17.805   7.971  0.00  0.00     0.033 A 
HETATM   15  C   UNK N   1      33.012  16.683   7.275  0.00  0.00     0.049 A 
HETATM   16  C   UNK N   1      31.181  16.979   5.664  0.00  0.00     0.043 A 
HETATM   17  C   UNK N   1      29.866  17.432   5.535  0.00  0.00     0.043 A 
HETATM   18  C   UNK N   1      29.143  17.840   6.692  0.00  0.00     0.032 A 
BRANCH  17  19
HETATM   19  N   UNK N   1      29.318  17.521   4.235  0.00  0.00    -0.285 N 
HETATM   20  H   UNK N   1      29.480  18.342   3.716  0.00  0.00     0.178 HD
BRANCH  19  21
HETATM   21  S   UNK N   1      28.367  16.250   3.498  0.00  0.00     0.227 S 
HETATM   22  O   UNK N   1      29.199  15.765   2.302  0.00  0.00    -0.206 OA
HETATM   23  O   UNK N   1      28.501  15.076   4.480  0.00  0.00    -0.206 OA
HETATM   24  C   UNK N   1      26.644  16.652   3.110  0.00  0.00     0.186 C 
ENDBRANCH  19  21
ENDBRANCH  17  19
ENDBRANCH   8   9
BRANCH   2  25
HETATM   25  C   UNK N   1      36.093  12.256  10.545  0.00  0.00     0.130 A 
HETATM   26  N   UNK N   1      36.435  11.224   9.724  0.00  0.00    -0.351 N 
HETATM   27  C   UNK N   1      36.711   9.982  10.203  0.00  0.00     0.090 A 
ATOM     28  HN  UNK N   1      36.487  11.388   8.719  1.00  0.00     0.166 HD
HETATM   29  C   UNK N   1      36.652   9.724  11.571  0.00  0.00     0.019 A 
HETATM   30  C   UNK N   1      36.287  10.742  12.444  0.00  0.00     0.034 A 
HETATM   31  C   UNK N   1      35.997  12.018  11.955  0.00  0.00     0.072 A 
BRANCH  31  32
HETATM   32  N   UNK N   1      35.609  13.054  12.856  0.00  0.00    -0.383 N 
HETATM   33  H   UNK N   1      34.944  13.705  12.535  0.00  0.00     0.160 HD
BRANCH  32  34
HETATM   34  C   UNK N   1      36.110  13.231  14.201  0.00  0.00     0.073 C 
HETATM   35  C   UNK N   1      36.607  14.656  14.348  0.00  0.00     0.031 C 
HETATM   36  C   UNK N   1      35.012  12.998  15.220  0.00  0.00     0.031 C 
ENDBRANCH  32  34
ENDBRANCH  31  32
ENDBRANCH   2  25
TORSDOF 6
ENDMDL
MODEL 6
REMARK VINA RESULT:      -7.7      3.557      9.289
REMARK  6 active torsions:
REMARK  status: ('A' for Active; 'I' for Inactive)
REMARK    1  A    between atoms: S_1  and  N_11 
REMARK    2  A    between atoms: N_5  and  C_16 
REMARK       I    between atoms: N_6  and  C_17 
REMARK    3  A    between atoms: N_8  and  C_19 
REMARK    4  A    between atoms: N_8  and  C_23 
REMARK    5  A    between atoms: N_11  and  C_28 
REMARK    6  A    between atoms: C_17  and  C_18 
ROOT
HETATM    1  O   UNK N   1      35.741  17.885  10.076  0.00  0.00    -0.266 OA
HETATM    2  N   UNK N   1      31.613  16.916   8.320  0.00  0.00    -0.362 N 
HETATM    3  N   UNK N   1      34.313  16.864   8.668  0.00  0.00    -0.344 N 
HETATM    4  C   UNK N   1      32.283  18.221   8.314  0.00  0.00     0.144 C 
HETATM    5  C   UNK N   1      32.270  15.835   8.991  0.00  0.00     0.144 C 
HETATM    6  C   UNK N   1      33.826  18.099   8.078  0.00  0.00     0.146 C 
HETATM    7  C   UNK N   1      33.593  15.683   8.305  0.00  0.00     0.146 C 
HETATM    8  C   UNK N   1      35.207  16.847   9.717  0.00  0.00     0.270 C 
ENDROOT
BRANCH   8   9
HETATM    9  C   UNK N   1      35.416  15.599  10.532  0.00  0.00     0.102 A 
HETATM   10  N   UNK N   1      36.118  14.517  10.099  0.00  0.00    -0.351 N 
HETATM   11  C   UNK N   1      36.321  13.771  11.208  0.00  0.00     0.043 A 
HETATM   12  H   UNK N   1      36.412  14.320   9.182  0.00  0.00     0.166 HD
HETATM   13  C   UNK N   1      35.752  14.356  12.296  0.00  0.00    -0.005 A 
HETATM   14  C   UNK N   1      37.075  12.605  11.333  0.00  0.00     0.033 A 
HETATM   15  C   UNK N   1      35.159  15.501  11.897  0.00  0.00     0.049 A 
HETATM   16  C   UNK N   1      35.889  13.866  13.580  0.00  0.00     0.043 A 
HETATM   17  C   UNK N   1      36.658  12.714  13.762  0.00  0.00     0.043 A 
HETATM   18  C   UNK N   1      37.247  12.074  12.636  0.00  0.00     0.032 A 
BRANCH  17  19
HETATM   19  N   UNK N   1      36.867  12.256  15.083  0.00  0.00    -0.285 N 
HETATM   20  H   UNK N   1      37.793  12.129  15.391  0.00  0.00     0.178 HD
BRANCH  19  21
HETATM   21  S   UNK N   1      35.568  11.903  16.202  0.00  0.00     0.227 S 
HETATM   22  O   UNK N   1      34.538  11.107  15.387  0.00  0.00    -0.206 OA
HETATM   23  O   UNK N   1      36.159  10.821  17.118  0.00  0.00    -0.206 OA
HETATM   24  C   UNK N   1      34.887  13.310  17.118  0.00  0.00     0.186 C 
ENDBRANCH  19  21
ENDBRANCH  17  19
ENDBRANCH   8   9
BRANCH   2  25
HETATM   25  C   UNK N   1      30.486  16.630   7.480  0.00  0.00     0.130 A 
HETATM   26  N   UNK N   1      29.242  17.002   7.894  0.00  0.00    -0.351 N 
HETATM   27  C   UNK N   1      28.139  16.819   7.121  0.00  0.00     0.090 A 
ATOM     28  HN  UNK N   1      29.135  17.433   8.812  1.00  0.00     0.166 HD
HETATM   29  C   UNK N   1      28.250  16.235   5.860  0.00  0.00     0.019 A 
HETATM   30  C   UNK N   1      29.497  15.821   5.405  0.00  0.00     0.034 A 
HETATM   31  C   UNK N   1      30.632  16.003   6.200  0.00  0.00     0.072 A 
BRANCH  31  32
HETATM   32  N   UNK N   1      31.906  15.562   5.732  0.00  0.00    -0.383 N 
HETATM   33  H   UNK N   1      32.381  14.896   6.279  0.00  0.00     0.160 HD
BRANCH  32  34
HETATM   34  C   UNK N   1      32.560  16.011   4.523  0.00  0.00     0.073 C 
HETATM   35  C   UNK N   1      32.733  17.516   4.597  0.00  0.00     0.031 C 
HETATM   36  C   UNK N   1      33.929  15.376   4.383  0.00  0.00     0.031 C 
ENDBRANCH  32  34
ENDBRANCH  31  32
ENDBRANCH   2  25
TORSDOF 6
ENDMDL
MODEL 7
REMARK VINA RESULT:      -7.6      5.908     11.077
REMARK  6 active torsions:
REMARK  status: ('A' for Active; 'I' for Inactive)
REMARK    1  A    between atoms: S_1  and  N_11 
REMARK    2  A    between atoms: N_5  and  C_16 
REMARK       I    between atoms: N_6  and  C_17 
REMARK    3  A    between atoms: N_8  and  C_19 
REMARK    4  A    between atoms: N_8  and  C_23 
REMARK    5  A    between atoms: N_11  and  C_28 
REMARK    6  A    between atoms: C_17  and  C_18 
ROOT
HETATM    1  O   UNK N   1      25.541  18.243   4.775  0.00  0.00    -0.266 OA
HETATM    2  N   UNK N   1      24.414  14.261   6.762  0.00  0.00    -0.362 N 
HETATM    3  N   UNK N   1      25.725  16.033   5.164  0.00  0.00    -0.344 N 
HETATM    4  C   UNK N   1      23.569  15.067   5.874  0.00  0.00     0.144 C 
HETATM    5  C   UNK N   1      25.704  14.783   7.106  0.00  0.00     0.144 C 
HETATM    6  C   UNK N   1      24.382  15.721   4.707  0.00  0.00     0.146 C 
HETATM    7  C   UNK N   1      26.422  14.962   5.804  0.00  0.00     0.146 C 
HETATM    8  C   UNK N   1      26.197  17.326   5.245  0.00  0.00     0.270 C 
ENDROOT
BRANCH   8   9
HETATM    9  C   UNK N   1      27.432  17.647   6.042  0.00  0.00     0.102 A 
HETATM   10  N   UNK N   1      27.433  18.402   7.174  0.00  0.00    -0.351 N 
HETATM   11  C   UNK N   1      28.649  18.195   7.727  0.00  0.00     0.043 A 
HETATM   12  H   UNK N   1      26.709  18.973   7.514  0.00  0.00     0.166 HD
HETATM   13  C   UNK N   1      29.393  17.352   6.961  0.00  0.00    -0.005 A 
HETATM   14  C   UNK N   1      29.126  18.659   8.952  0.00  0.00     0.033 A 
HETATM   15  C   UNK N   1      28.658  17.004   5.883  0.00  0.00     0.049 A 
HETATM   16  C   UNK N   1      30.637  16.885   7.335  0.00  0.00     0.043 A 
HETATM   17  C   UNK N   1      31.148  17.299   8.567  0.00  0.00     0.043 A 
HETATM   18  C   UNK N   1      30.397  18.196   9.377  0.00  0.00     0.032 A 
BRANCH  17  19
HETATM   19  N   UNK N   1      32.385  16.760   8.989  0.00  0.00    -0.285 N 
HETATM   20  H   UNK N   1      32.381  16.099   9.718  0.00  0.00     0.178 HD
BRANCH  19  21
HETATM   21  S   UNK N   1      33.925  17.204   8.284  0.00  0.00     0.227 S 
HETATM   22  O   UNK N   1      33.687  18.569   7.623  0.00  0.00    -0.206 OA
HETATM   23  O   UNK N   1      34.787  17.580   9.498  0.00  0.00    -0.206 OA
HETATM   24  C   UNK N   1      34.710  15.969   7.217  0.00  0.00     0.186 C 
ENDBRANCH  19  21
ENDBRANCH  17  19
ENDBRANCH   8   9
BRANCH   2  25
HETATM   25  C   UNK N   1      24.111  12.895   7.076  0.00  0.00     0.130 A 
HETATM   26  N   UNK N   1      24.418  11.925   6.170  0.00  0.00    -0.351 N 
HETATM   27  C   UNK N   1      24.216  10.606   6.428  0.00  0.00     0.090 A 
ATOM     28  HN  UNK N   1      24.813  12.197   5.270  1.00  0.00     0.166 HD
HETATM   29  C   UNK N   1      23.680  10.199   7.649  0.00  0.00     0.019 A 
HETATM   30  C   UNK N   1      23.333  11.157   8.596  0.00  0.00     0.034 A 
HETATM   31  C   UNK N   1      23.534  12.514   8.331  0.00  0.00     0.072 A 
BRANCH  31  32
HETATM   32  N   UNK N   1      23.162  13.490   9.303  0.00  0.00    -0.383 N 
HETATM   33  H   UNK N   1      23.890  13.967   9.763  0.00  0.00     0.160 HD
BRANCH  32  34
HETATM   34  C   UNK N   1      21.808  13.839   9.669  0.00  0.00     0.073 C 
HETATM   35  C   UNK N   1      20.968  13.907   8.409  0.00  0.00     0.031 C 
HETATM   36  C   UNK N   1      21.211  12.792  10.589  0.00  0.00     0.031 C 
ENDBRANCH  32  34
ENDBRANCH  31  32
ENDBRANCH   2  25
TORSDOF 6
ENDMDL
MODEL 8
REMARK VINA RESULT:      -7.6      2.697      4.672
REMARK  6 active torsions:
REMARK  status: ('A' for Active; 'I' for Inactive)
REMARK    1  A    between atoms: S_1  and  N_11 
REMARK    2  A    between atoms: N_5  and  C_16 
REMARK       I    between atoms: N_6  and  C_17 
REMARK    3  A    between atoms: N_8  and  C_19 
REMARK    4  A    between atoms: N_8  and  C_23 
REMARK    5  A    between atoms: N_11  and  C_28 
REMARK    6  A    between atoms: C_17  and  C_18 
ROOT
HETATM    1  O   UNK N   1      34.473  17.103   7.159  0.00  0.00    -0.266 OA
HETATM    2  N   UNK N   1      34.507  12.884   8.967  0.00  0.00    -0.362 N 
HETATM    3  N   UNK N   1      34.375  15.600   8.832  0.00  0.00    -0.344 N 
HETATM    4  C   UNK N   1      35.611  13.543   8.261  0.00  0.00     0.144 C 
HETATM    5  C   UNK N   1      33.263  13.588   9.059  0.00  0.00     0.144 C 
HETATM    6  C   UNK N   1      35.706  15.070   8.593  0.00  0.00     0.146 C 
HETATM    7  C   UNK N   1      33.580  14.868   9.769  0.00  0.00     0.146 C 
HETATM    8  C   UNK N   1      33.802  16.555   8.020  0.00  0.00     0.270 C 
ENDROOT
BRANCH   8   9
HETATM    9  C   UNK N   1      32.321  16.821   8.069  0.00  0.00     0.102 A 
HETATM   10  N   UNK N   1      31.706  17.519   9.062  0.00  0.00    -0.351 N 
HETATM   11  C   UNK N   1      30.471  17.786   8.583  0.00  0.00     0.043 A 
HETATM   12  H   UNK N   1      32.078  17.774   9.936  0.00  0.00     0.166 HD
HETATM   13  C   UNK N   1      30.309  17.259   7.340  0.00  0.00    -0.005 A 
HETATM   14  C   UNK N   1      29.472  18.562   9.168  0.00  0.00     0.033 A 
HETATM   15  C   UNK N   1      31.453  16.630   6.997  0.00  0.00     0.049 A 
HETATM   16  C   UNK N   1      29.182  17.464   6.569  0.00  0.00     0.043 A 
HETATM   17  C   UNK N   1      28.162  18.257   7.099  0.00  0.00     0.043 A 
HETATM   18  C   UNK N   1      28.300  18.803   8.407  0.00  0.00     0.032 A 
BRANCH  17  19
HETATM   19  N   UNK N   1      27.042  18.535   6.283  0.00  0.00    -0.285 N 
HETATM   20  H   UNK N   1      26.361  17.833   6.172  0.00  0.00     0.178 HD
BRANCH  19  21
HETATM   21  S   UNK N   1      26.801  20.060   5.458  0.00  0.00     0.227 S 
HETATM   22  O   UNK N   1      27.924  20.136   4.413  0.00  0.00    -0.206 OA
HETATM   23  O   UNK N   1      25.564  19.809   4.581  0.00  0.00    -0.206 OA
HETATM   24  C   UNK N   1      26.637  21.528   6.506  0.00  0.00     0.186 C 
ENDBRANCH  19  21
ENDBRANCH  17  19
ENDBRANCH   8   9
BRANCH   2  25
HETATM   25  C   UNK N   1      34.703  11.711   9.769  0.00  0.00     0.130 A 
HETATM   26  N   UNK N   1      34.123  10.540   9.380  0.00  0.00    -0.351 N 
HETATM   27  C   UNK N   1      34.318   9.378  10.058  0.00  0.00     0.090 A 
ATOM     28  HN  UNK N   1      33.524  10.536   8.555  1.00  0.00     0.166 HD
HETATM   29  C   UNK N   1      35.132   9.349  11.189  0.00  0.00     0.019 A 
HETATM   30  C   UNK N   1      35.728  10.524  11.633  0.00  0.00     0.034 A 
HETATM   31  C   UNK N   1      35.525  11.721  10.943  0.00  0.00     0.072 A 
BRANCH  31  32
HETATM   32  N   UNK N   1      36.128  12.925  11.413  0.00  0.00    -0.383 N 
HETATM   33  H   UNK N   1      36.913  13.258  10.921  0.00  0.00     0.160 HD
BRANCH  32  34
HETATM   34  C   UNK N   1      35.688  13.698  12.552  0.00  0.00     0.073 C 
HETATM   35  C   UNK N   1      36.431  13.215  13.782  0.00  0.00     0.031 C 
HETATM   36  C   UNK N   1      35.992  15.170  12.355  0.00  0.00     0.031 C 
ENDBRANCH  32  34
ENDBRANCH  31  32
ENDBRANCH   2  25
TORSDOF 6
ENDMDL
MODEL 9
REMARK VINA RESULT:      -7.5      2.796      4.241
REMARK  6 active torsions:
REMARK  status: ('A' for Active; 'I' for Inactive)
REMARK    1  A    between atoms: S_1  and  N_11 
REMARK    2  A    between atoms: N_5  and  C_16 
REMARK       I    between atoms: N_6  and  C_17 
REMARK    3  A    between atoms: N_8  and  C_19 
REMARK    4  A    between atoms: N_8  and  C_23 
REMARK    5  A    between atoms: N_11  and  C_28 
REMARK    6  A    between atoms: C_17  and  C_18 
ROOT
HETATM    1  O   UNK N   1      35.661  17.594  10.275  0.00  0.00    -0.266 OA
HETATM    2  N   UNK N   1      35.425  13.026   9.894  0.00  0.00    -0.362 N 
HETATM    3  N   UNK N   1      34.670  15.581  10.457  0.00  0.00    -0.344 N 
HETATM    4  C   UNK N   1      36.338  13.787  10.753  0.00  0.00     0.144 C 
HETATM    5  C   UNK N   1      34.551  13.766   9.032  0.00  0.00     0.144 C 
HETATM    6  C   UNK N   1      35.655  15.048  11.382  0.00  0.00     0.146 C 
HETATM    7  C   UNK N   1      33.733  14.632   9.941  0.00  0.00     0.146 C 
HETATM    8  C   UNK N   1      34.790  16.830   9.886  0.00  0.00     0.270 C 
ENDROOT
BRANCH   8   9
HETATM    9  C   UNK N   1      33.970  17.210   8.683  0.00  0.00     0.102 A 
HETATM   10  N   UNK N   1      34.464  17.283   7.418  0.00  0.00    -0.351 N 
HETATM   11  C   UNK N   1      33.372  17.351   6.624  0.00  0.00     0.043 A 
HETATM   12  H   UNK N   1      35.407  17.286   7.141  0.00  0.00     0.166 HD
HETATM   13  C   UNK N   1      32.232  17.339   7.366  0.00  0.00    -0.005 A 
HETATM   14  C   UNK N   1      33.320  17.342   5.231  0.00  0.00     0.033 A 
HETATM   15  C   UNK N   1      32.578  17.269   8.669  0.00  0.00     0.049 A 
HETATM   16  C   UNK N   1      30.967  17.296   6.814  0.00  0.00     0.043 A 
HETATM   17  C   UNK N   1      30.862  17.259   5.422  0.00  0.00     0.043 A 
HETATM   18  C   UNK N   1      32.040  17.290   4.624  0.00  0.00     0.032 A 
BRANCH  17  19
HETATM   19  N   UNK N   1      29.572  17.134   4.856  0.00  0.00    -0.285 N 
HETATM   20  H   UNK N   1      29.027  17.948   4.753  0.00  0.00     0.178 HD
BRANCH  19  21
HETATM   21  S   UNK N   1      28.892  15.611   4.326  0.00  0.00     0.227 S 
HETATM   22  O   UNK N   1      29.659  14.533   5.107  0.00  0.00    -0.206 OA
HETATM   23  O   UNK N   1      27.512  15.574   5.000  0.00  0.00    -0.206 OA
HETATM   24  C   UNK N   1      28.811  15.341   2.537  0.00  0.00     0.186 C 
ENDBRANCH  19  21
ENDBRANCH  17  19
ENDBRANCH   8   9
BRANCH   2  25
HETATM   25  C   UNK N   1      35.199  11.621  10.071  0.00  0.00     0.130 A 
HETATM   26  N   UNK N   1      35.452  10.775   9.034  0.00  0.00    -0.351 N 
HETATM   27  C   UNK N   1      35.320   9.427   9.152  0.00  0.00     0.090 A 
ATOM     28  HN  UNK N   1      35.751  11.165   8.140  1.00  0.00     0.166 HD
HETATM   29  C   UNK N   1      34.916   8.861  10.360  0.00  0.00     0.019 A 
HETATM   30  C   UNK N   1      34.627   9.688  11.440  0.00  0.00     0.034 A 
HETATM   31  C   UNK N   1      34.756  11.074  11.319  0.00  0.00     0.072 A 
BRANCH  31  32
HETATM   32  N   UNK N   1      34.444  11.916  12.428  0.00  0.00    -0.383 N 
HETATM   33  H   UNK N   1      33.915  12.726  12.244  0.00  0.00     0.160 HD
BRANCH  32  34
HETATM   34  C   UNK N   1      34.838  11.683  13.799  0.00  0.00     0.073 C 
HETATM   35  C   UNK N   1      35.204  13.013  14.429  0.00  0.00     0.031 C 
HETATM   36  C   UNK N   1      33.698  11.074  14.592  0.00  0.00     0.031 C 
ENDBRANCH  32  34
ENDBRANCH  31  32
ENDBRANCH   2  25
TORSDOF 6
ENDMDL
