REMARK  12 active torsions:
REMARK  status: ('A' for Active; 'I' for Inactive)
REMARK    1  A    between atoms: S_1  and  N_8 
REMARK    2  A    between atoms: S_1  and  C_15 
REMARK    3  A    between atoms: O_2  and  C_17 
REMARK    4  A    between atoms: O_2  and  C_20 
REMARK    5  A    between atoms: O_3  and  C_18 
REMARK    6  A    between atoms: O_6  and  C_21 
REMARK    7  A    between atoms: O_6  and  C_27 
REMARK    8  A    between atoms: C_9  and  N_7 
REMARK    9  A    between atoms: N_7  and  C_13 
REMARK   10  A    between atoms: C_9  and  C_10 
REMARK   11  A    between atoms: C_10  and  C_11 
REMARK   12  A    between atoms: C_13  and  C_17 
ROOT
HETATM    1  C   UNK N   1       6.863   1.291  -0.583  0.00  0.00     0.076 C 
HETATM    2  C   UNK N   1       6.530   1.772   0.833  0.00  0.00     0.032 C 
ENDROOT
BRANCH   1   3
HETATM    3  N   UNK N   1       7.403  -0.066  -0.549  0.00  0.00    -0.415 N 
HETATM    4  H   UNK N   1       8.365  -0.326  -0.769  0.00  0.00     0.153 HD
BRANCH   3   5
HETATM    5  C   UNK N   1       6.346  -0.990  -0.150  0.00  0.00     0.141 C 
BRANCH   5   6
HETATM    6  C   UNK N   1       6.594  -1.489   1.261  0.00  0.00     0.195 C 
BRANCH   6   7
HETATM    7  O   UNK N   1       6.812  -2.844   1.202  0.00  0.00    -0.347 OA
BRANCH   7   8
HETATM    8  C   UNK N   1       7.961  -3.386   0.737  0.00  0.00     0.102 A 
HETATM    9  C   UNK N   1       7.953  -4.713   0.297  0.00  0.00     0.102 A 
HETATM   10  C   UNK N   1       9.130  -5.284  -0.213  0.00  0.00     0.039 A 
HETATM   11  C   UNK N   1      10.308  -4.533  -0.278  0.00  0.00     0.003 A 
HETATM   12  C   UNK N   1      10.317  -3.208   0.161  0.00  0.00     0.003 A 
HETATM   13  C   UNK N   1       9.149  -2.633   0.664  0.00  0.00     0.039 A 
BRANCH   9  14
HETATM   14  O   UNK N   1       6.789  -5.408   0.349  0.00  0.00    -0.349 OA
BRANCH  14  15
HETATM   15  C   UNK N   1       6.643  -6.689  -0.128  0.00  0.00     0.171 C 
HETATM   16  C   UNK N   1       5.200  -7.117   0.043  0.00  0.00     0.034 C 
ENDBRANCH  14  15
ENDBRANCH   9  14
ENDBRANCH   7   8
ENDBRANCH   6   7
ENDBRANCH   5   6
ENDBRANCH   3   5
ENDBRANCH   1   3
BRANCH   1  17
HETATM   17  C   UNK N   1       5.738   1.402  -1.637  0.00  0.00     0.062 C 
BRANCH  17  18
HETATM   18  C   UNK N   1       4.522   2.129  -1.174  0.00  0.00    -0.055 A 
HETATM   19  C   UNK N   1       4.607   3.474  -0.817  0.00  0.00     0.035 A 
HETATM   20  C   UNK N   1       3.491   4.151  -0.330  0.00  0.00     0.113 A 
HETATM   21  C   UNK N   1       2.260   3.476  -0.205  0.00  0.00     0.091 A 
HETATM   22  C   UNK N   1       2.178   2.122  -0.582  0.00  0.00     0.039 A 
HETATM   23  C   UNK N   1       3.306   1.452  -1.061  0.00  0.00     0.010 A 
BRANCH  20  24
HETATM   24  S   UNK N   1       3.697   5.868   0.138  0.00  0.00     0.259 S 
HETATM   25  O   UNK N   1       2.486   6.498   0.840  0.00  0.00    -0.201 OA
HETATM   26  O   UNK N   1       4.805   6.042   1.188  0.00  0.00    -0.201 OA
BRANCH  24  27
HETATM   27  N   UNK N   1       4.128   6.992  -1.150  0.00  0.00    -0.324 N 
HETATM   28  H   UNK N   1       4.816   7.102  -1.895  0.00  0.00     0.169 HD
HETATM   29  H   UNK N   1       3.486   7.785  -1.150  0.00  0.00     0.169 HD
ENDBRANCH  24  27
ENDBRANCH  20  24
BRANCH  21  30
HETATM   30  O   UNK N   1       1.176   4.132   0.278  0.00  0.00    -0.354 OA
HETATM   31  C   UNK N   1      -0.053   3.537   0.450  0.00  0.00     0.210 C 
ENDBRANCH  21  30
ENDBRANCH  17  18
ENDBRANCH   1  17
TORSDOF 12
