MODEL 1
REMARK VINA RESULT:      -6.7      0.000      0.000
REMARK  12 active torsions:
REMARK  status: ('A' for Active; 'I' for Inactive)
REMARK    1  A    between atoms: S_1  and  N_8 
REMARK    2  A    between atoms: S_1  and  C_15 
REMARK    3  A    between atoms: O_2  and  C_17 
REMARK    4  A    between atoms: O_2  and  C_20 
REMARK    5  A    between atoms: O_3  and  C_18 
REMARK    6  A    between atoms: O_6  and  C_21 
REMARK    7  A    between atoms: O_6  and  C_27 
REMARK    8  A    between atoms: C_9  and  N_7 
REMARK    9  A    between atoms: N_7  and  C_13 
REMARK   10  A    between atoms: C_9  and  C_10 
REMARK   11  A    between atoms: C_10  and  C_11 
REMARK   12  A    between atoms: C_13  and  C_17 
ROOT
HETATM    1  C   UNK N   1      27.466  19.476   5.135  0.00  0.00     0.076 C 
HETATM    2  C   UNK N   1      27.178  20.909   5.597  0.00  0.00     0.032 C 
ENDROOT
BRANCH   1   3
HETATM    3  N   UNK N   1      27.222  18.529   6.220  0.00  0.00    -0.415 N 
HETATM    4  H   UNK N   1      26.615  18.694   7.024  0.00  0.00     0.153 HD
BRANCH   3   5
HETATM    5  C   UNK N   1      27.984  17.310   5.970  0.00  0.00     0.141 C 
BRANCH   5   6
HETATM    6  C   UNK N   1      29.415  17.656   5.604  0.00  0.00     0.195 C 
BRANCH   6   7
HETATM    7  O   UNK N   1      30.248  16.797   6.280  0.00  0.00    -0.347 OA
BRANCH   7   8
HETATM    8  C   UNK N   1      31.514  17.121   6.629  0.00  0.00     0.102 A 
HETATM    9  C   UNK N   1      31.782  17.462   7.958  0.00  0.00     0.102 A 
HETATM   10  C   UNK N   1      33.095  17.775   8.345  0.00  0.00     0.039 A 
HETATM   11  C   UNK N   1      34.132  17.752   7.406  0.00  0.00     0.003 A 
HETATM   12  C   UNK N   1      33.865  17.412   6.079  0.00  0.00     0.003 A 
HETATM   13  C   UNK N   1      32.563  17.094   5.690  0.00  0.00     0.039 A 
BRANCH   9  14
HETATM   14  O   UNK N   1      30.761  17.451   8.851  0.00  0.00    -0.349 OA
BRANCH  14  15
HETATM   15  C   UNK N   1      30.077  18.578   9.243  0.00  0.00     0.171 C 
HETATM   16  C   UNK N   1      28.624  18.218   9.473  0.00  0.00     0.034 C 
ENDBRANCH  14  15
ENDBRANCH   9  14
ENDBRANCH   7   8
ENDBRANCH   6   7
ENDBRANCH   5   6
ENDBRANCH   3   5
ENDBRANCH   1   3
BRANCH   1  17
HETATM   17  C   UNK N   1      26.765  19.010   3.838  0.00  0.00     0.062 C 
BRANCH  17  18
HETATM   18  C   UNK N   1      25.306  19.306   3.780  0.00  0.00    -0.055 A 
HETATM   19  C   UNK N   1      24.414  18.573   4.563  0.00  0.00     0.035 A 
HETATM   20  C   UNK N   1      23.042  18.801   4.477  0.00  0.00     0.113 A 
HETATM   21  C   UNK N   1      22.548  19.787   3.600  0.00  0.00     0.091 A 
HETATM   22  C   UNK N   1      23.455  20.533   2.824  0.00  0.00     0.039 A 
HETATM   23  C   UNK N   1      24.828  20.290   2.913  0.00  0.00     0.010 A 
BRANCH  20  24
HETATM   24  S   UNK N   1      21.965  17.791   5.492  0.00  0.00     0.259 S 
HETATM   25  O   UNK N   1      22.647  16.591   6.165  0.00  0.00    -0.201 OA
HETATM   26  O   UNK N   1      21.423  18.573   6.698  0.00  0.00    -0.201 OA
BRANCH  24  27
HETATM   27  N   UNK N   1      20.529  17.134   4.709  0.00  0.00    -0.324 N 
HETATM   28  H   UNK N   1      20.245  16.343   4.130  0.00  0.00     0.169 HD
HETATM   29  H   UNK N   1      19.726  17.736   4.892  0.00  0.00     0.169 HD
ENDBRANCH  24  27
ENDBRANCH  20  24
BRANCH  21  30
HETATM   30  O   UNK N   1      21.212  20.002   3.509  0.00  0.00    -0.354 OA
HETATM   31  C   UNK N   1      20.550  20.155   2.312  0.00  0.00     0.210 C 
ENDBRANCH  21  30
ENDBRANCH  17  18
ENDBRANCH   1  17
TORSDOF 12
ENDMDL
MODEL 2
REMARK VINA RESULT:      -6.6      5.307      8.382
REMARK  12 active torsions:
REMARK  status: ('A' for Active; 'I' for Inactive)
REMARK    1  A    between atoms: S_1  and  N_8 
REMARK    2  A    between atoms: S_1  and  C_15 
REMARK    3  A    between atoms: O_2  and  C_17 
REMARK    4  A    between atoms: O_2  and  C_20 
REMARK    5  A    between atoms: O_3  and  C_18 
REMARK    6  A    between atoms: O_6  and  C_21 
REMARK    7  A    between atoms: O_6  and  C_27 
REMARK    8  A    between atoms: C_9  and  N_7 
REMARK    9  A    between atoms: N_7  and  C_13 
REMARK   10  A    between atoms: C_9  and  C_10 
REMARK   11  A    between atoms: C_10  and  C_11 
REMARK   12  A    between atoms: C_13  and  C_17 
ROOT
HETATM    1  C   UNK N   1      34.507  16.913   8.710  0.00  0.00     0.076 C 
HETATM    2  C   UNK N   1      34.331  18.267   8.015  0.00  0.00     0.032 C 
ENDROOT
BRANCH   1   3
HETATM    3  N   UNK N   1      34.635  17.093  10.155  0.00  0.00    -0.415 N 
HETATM    4  H   UNK N   1      34.643  17.990  10.641  0.00  0.00     0.153 HD
BRANCH   3   5
HETATM    5  C   UNK N   1      34.750  15.783  10.789  0.00  0.00     0.141 C 
BRANCH   5   6
HETATM    6  C   UNK N   1      36.201  15.342  10.815  0.00  0.00     0.195 C 
BRANCH   6   7
HETATM    7  O   UNK N   1      36.354  14.438  11.838  0.00  0.00    -0.347 OA
BRANCH   7   8
HETATM    8  C   UNK N   1      35.887  13.169  11.777  0.00  0.00     0.102 A 
HETATM    9  C   UNK N   1      35.146  12.668  12.851  0.00  0.00     0.102 A 
HETATM   10  C   UNK N   1      34.632  11.363  12.793  0.00  0.00     0.039 A 
HETATM   11  C   UNK N   1      34.862  10.563  11.669  0.00  0.00     0.003 A 
HETATM   12  C   UNK N   1      35.602  11.063  10.596  0.00  0.00     0.003 A 
HETATM   13  C   UNK N   1      36.111  12.361  10.645  0.00  0.00     0.039 A 
BRANCH   9  14
HETATM   14  O   UNK N   1      34.918  13.477  13.916  0.00  0.00    -0.349 OA
BRANCH  14  15
HETATM   15  C   UNK N   1      35.354  13.201  15.191  0.00  0.00     0.171 C 
HETATM   16  C   UNK N   1      36.796  13.645  15.325  0.00  0.00     0.034 C 
ENDBRANCH  14  15
ENDBRANCH   9  14
ENDBRANCH   7   8
ENDBRANCH   6   7
ENDBRANCH   5   6
ENDBRANCH   3   5
ENDBRANCH   1   3
BRANCH   1  17
HETATM   17  C   UNK N   1      33.457  15.825   8.389  0.00  0.00     0.062 C 
BRANCH  17  18
HETATM   18  C   UNK N   1      32.200  16.337   7.772  0.00  0.00    -0.055 A 
HETATM   19  C   UNK N   1      31.207  16.896   8.575  0.00  0.00     0.035 A 
HETATM   20  C   UNK N   1      30.005  17.328   8.019  0.00  0.00     0.113 A 
HETATM   21  C   UNK N   1      29.791  17.209   6.631  0.00  0.00     0.091 A 
HETATM   22  C   UNK N   1      30.804  16.658   5.825  0.00  0.00     0.039 A 
HETATM   23  C   UNK N   1      32.002  16.221   6.395  0.00  0.00     0.010 A 
BRANCH  20  24
HETATM   24  S   UNK N   1      28.769  18.001   9.128  0.00  0.00     0.259 S 
HETATM   25  O   UNK N   1      27.887  16.957   9.827  0.00  0.00    -0.201 OA
HETATM   26  O   UNK N   1      29.410  18.730  10.319  0.00  0.00    -0.201 OA
BRANCH  24  27
HETATM   27  N   UNK N   1      27.648  19.176   8.442  0.00  0.00    -0.324 N 
HETATM   28  H   UNK N   1      27.492  20.183   8.410  0.00  0.00     0.169 HD
HETATM   29  H   UNK N   1      26.924  18.696   7.907  0.00  0.00     0.169 HD
ENDBRANCH  24  27
ENDBRANCH  20  24
BRANCH  21  30
HETATM   30  O   UNK N   1      28.617  17.620   6.092  0.00  0.00    -0.354 OA
HETATM   31  C   UNK N   1      27.651  16.754   5.633  0.00  0.00     0.210 C 
ENDBRANCH  21  30
ENDBRANCH  17  18
ENDBRANCH   1  17
TORSDOF 12
ENDMDL
MODEL 3
REMARK VINA RESULT:      -6.5      1.274      2.592
REMARK  12 active torsions:
REMARK  status: ('A' for Active; 'I' for Inactive)
REMARK    1  A    between atoms: S_1  and  N_8 
REMARK    2  A    between atoms: S_1  and  C_15 
REMARK    3  A    between atoms: O_2  and  C_17 
REMARK    4  A    between atoms: O_2  and  C_20 
REMARK    5  A    between atoms: O_3  and  C_18 
REMARK    6  A    between atoms: O_6  and  C_21 
REMARK    7  A    between atoms: O_6  and  C_27 
REMARK    8  A    between atoms: C_9  and  N_7 
REMARK    9  A    between atoms: N_7  and  C_13 
REMARK   10  A    between atoms: C_9  and  C_10 
REMARK   11  A    between atoms: C_10  and  C_11 
REMARK   12  A    between atoms: C_13  and  C_17 
ROOT
HETATM    1  C   UNK N   1      27.526  17.229   4.368  0.00  0.00     0.076 C 
HETATM    2  C   UNK N   1      27.679  16.249   3.200  0.00  0.00     0.032 C 
ENDROOT
BRANCH   1   3
HETATM    3  N   UNK N   1      28.626  17.069   5.317  0.00  0.00    -0.415 N 
HETATM    4  H   UNK N   1      29.367  16.372   5.252  0.00  0.00     0.153 HD
BRANCH   3   5
HETATM    5  C   UNK N   1      28.493  18.069   6.373  0.00  0.00     0.141 C 
BRANCH   5   6
HETATM    6  C   UNK N   1      29.230  17.613   7.618  0.00  0.00     0.195 C 
BRANCH   6   7
HETATM    7  O   UNK N   1      30.251  16.781   7.229  0.00  0.00    -0.347 OA
BRANCH   7   8
HETATM    8  C   UNK N   1      31.556  17.126   7.317  0.00  0.00     0.102 A 
HETATM    9  C   UNK N   1      32.358  17.038   6.175  0.00  0.00     0.102 A 
HETATM   10  C   UNK N   1      33.708  17.416   6.241  0.00  0.00     0.039 A 
HETATM   11  C   UNK N   1      34.254  17.876   7.443  0.00  0.00     0.003 A 
HETATM   12  C   UNK N   1      33.455  17.965   8.584  0.00  0.00     0.003 A 
HETATM   13  C   UNK N   1      32.110  17.596   8.524  0.00  0.00     0.039 A 
BRANCH   9  14
HETATM   14  O   UNK N   1      31.793  16.612   5.017  0.00  0.00    -0.349 OA
BRANCH  14  15
HETATM   15  C   UNK N   1      31.866  17.305   3.832  0.00  0.00     0.171 C 
HETATM   16  C   UNK N   1      32.786  16.564   2.883  0.00  0.00     0.034 C 
ENDBRANCH  14  15
ENDBRANCH   9  14
ENDBRANCH   7   8
ENDBRANCH   6   7
ENDBRANCH   5   6
ENDBRANCH   3   5
ENDBRANCH   1   3
BRANCH   1  17
HETATM   17  C   UNK N   1      27.333  18.718   4.005  0.00  0.00     0.062 C 
BRANCH  17  18
HETATM   18  C   UNK N   1      25.913  19.141   3.846  0.00  0.00    -0.055 A 
HETATM   19  C   UNK N   1      24.902  18.456   4.519  0.00  0.00     0.035 A 
HETATM   20  C   UNK N   1      23.566  18.804   4.337  0.00  0.00     0.113 A 
HETATM   21  C   UNK N   1      23.228  19.865   3.472  0.00  0.00     0.091 A 
HETATM   22  C   UNK N   1      24.255  20.562   2.807  0.00  0.00     0.039 A 
HETATM   23  C   UNK N   1      25.591  20.198   2.992  0.00  0.00     0.010 A 
BRANCH  20  24
HETATM   24  S   UNK N   1      22.329  17.849   5.214  0.00  0.00     0.259 S 
HETATM   25  O   UNK N   1      22.825  16.513   5.783  0.00  0.00    -0.201 OA
HETATM   26  O   UNK N   1      21.840  18.576   6.476  0.00  0.00    -0.201 OA
BRANCH  24  27
HETATM   27  N   UNK N   1      20.855  17.462   4.328  0.00  0.00    -0.324 N 
HETATM   28  H   UNK N   1      19.842  17.541   4.421  0.00  0.00     0.169 HD
HETATM   29  H   UNK N   1      21.089  17.016   3.441  0.00  0.00     0.169 HD
ENDBRANCH  24  27
ENDBRANCH  20  24
BRANCH  21  30
HETATM   30  O   UNK N   1      21.927  20.198   3.287  0.00  0.00    -0.354 OA
HETATM   31  C   UNK N   1      21.351  20.334   2.045  0.00  0.00     0.210 C 
ENDBRANCH  21  30
ENDBRANCH  17  18
ENDBRANCH   1  17
TORSDOF 12
ENDMDL
MODEL 4
REMARK VINA RESULT:      -6.5      4.986      7.343
REMARK  12 active torsions:
REMARK  status: ('A' for Active; 'I' for Inactive)
REMARK    1  A    between atoms: S_1  and  N_8 
REMARK    2  A    between atoms: S_1  and  C_15 
REMARK    3  A    between atoms: O_2  and  C_17 
REMARK    4  A    between atoms: O_2  and  C_20 
REMARK    5  A    between atoms: O_3  and  C_18 
REMARK    6  A    between atoms: O_6  and  C_21 
REMARK    7  A    between atoms: O_6  and  C_27 
REMARK    8  A    between atoms: C_9  and  N_7 
REMARK    9  A    between atoms: N_7  and  C_13 
REMARK   10  A    between atoms: C_9  and  C_10 
REMARK   11  A    between atoms: C_10  and  C_11 
REMARK   12  A    between atoms: C_13  and  C_17 
ROOT
HETATM    1  C   UNK N   1      25.339  15.861   5.161  0.00  0.00     0.076 C 
HETATM    2  C   UNK N   1      26.444  15.992   4.108  0.00  0.00     0.032 C 
ENDROOT
BRANCH   1   3
HETATM    3  N   UNK N   1      25.894  15.396   6.430  0.00  0.00    -0.415 N 
HETATM    4  H   UNK N   1      26.416  15.970   7.094  0.00  0.00     0.153 HD
BRANCH   3   5
HETATM    5  C   UNK N   1      25.584  13.980   6.596  0.00  0.00     0.141 C 
BRANCH   5   6
HETATM    6  C   UNK N   1      25.158  13.703   8.025  0.00  0.00     0.195 C 
BRANCH   6   7
HETATM    7  O   UNK N   1      23.788  13.598   8.049  0.00  0.00    -0.347 OA
BRANCH   7   8
HETATM    8  C   UNK N   1      23.101  13.148   9.124  0.00  0.00     0.102 A 
HETATM    9  C   UNK N   1      21.753  13.492   9.258  0.00  0.00     0.102 A 
HETATM   10  C   UNK N   1      21.018  13.012  10.354  0.00  0.00     0.039 A 
HETATM   11  C   UNK N   1      21.630  12.196  11.311  0.00  0.00     0.003 A 
HETATM   12  C   UNK N   1      22.976  11.852  11.178  0.00  0.00     0.003 A 
HETATM   13  C   UNK N   1      23.711  12.321  10.088  0.00  0.00     0.039 A 
BRANCH   9  14
HETATM   14  O   UNK N   1      21.181  14.264   8.300  0.00  0.00    -0.349 OA
BRANCH  14  15
HETATM   15  C   UNK N   1      20.676  15.521   8.534  0.00  0.00     0.171 C 
HETATM   16  C   UNK N   1      21.108  16.443   7.412  0.00  0.00     0.034 C 
ENDBRANCH  14  15
ENDBRANCH   9  14
ENDBRANCH   7   8
ENDBRANCH   6   7
ENDBRANCH   5   6
ENDBRANCH   3   5
ENDBRANCH   1   3
BRANCH   1  17
HETATM   17  C   UNK N   1      24.440  17.099   5.383  0.00  0.00     0.062 C 
BRANCH  17  18
HETATM   18  C   UNK N   1      23.293  17.211   4.437  0.00  0.00    -0.055 A 
HETATM   19  C   UNK N   1      22.832  18.467   4.045  0.00  0.00     0.035 A 
HETATM   20  C   UNK N   1      21.727  18.587   3.206  0.00  0.00     0.113 A 
HETATM   21  C   UNK N   1      21.072  17.430   2.738  0.00  0.00     0.091 A 
HETATM   22  C   UNK N   1      21.553  16.165   3.125  0.00  0.00     0.039 A 
HETATM   23  C   UNK N   1      22.657  16.058   3.973  0.00  0.00     0.010 A 
BRANCH  20  24
HETATM   24  S   UNK N   1      21.180  20.240   2.781  0.00  0.00     0.259 S 
HETATM   25  O   UNK N   1      20.178  20.863   3.763  0.00  0.00    -0.201 OA
HETATM   26  O   UNK N   1      22.338  21.249   2.817  0.00  0.00    -0.201 OA
BRANCH  24  27
HETATM   27  N   UNK N   1      20.462  20.448   1.185  0.00  0.00    -0.324 N 
HETATM   28  H   UNK N   1      20.225  21.188   0.523  0.00  0.00     0.169 HD
HETATM   29  H   UNK N   1      20.198  19.541   0.800  0.00  0.00     0.169 HD
ENDBRANCH  24  27
ENDBRANCH  20  24
BRANCH  21  30
HETATM   30  O   UNK N   1      19.990  17.548   1.929  0.00  0.00    -0.354 OA
HETATM   31  C   UNK N   1      19.876  16.899   0.720  0.00  0.00     0.210 C 
ENDBRANCH  21  30
ENDBRANCH  17  18
ENDBRANCH   1  17
TORSDOF 12
ENDMDL
MODEL 5
REMARK VINA RESULT:      -6.4      3.989      6.056
REMARK  12 active torsions:
REMARK  status: ('A' for Active; 'I' for Inactive)
REMARK    1  A    between atoms: S_1  and  N_8 
REMARK    2  A    between atoms: S_1  and  C_15 
REMARK    3  A    between atoms: O_2  and  C_17 
REMARK    4  A    between atoms: O_2  and  C_20 
REMARK    5  A    between atoms: O_3  and  C_18 
REMARK    6  A    between atoms: O_6  and  C_21 
REMARK    7  A    between atoms: O_6  and  C_27 
REMARK    8  A    between atoms: C_9  and  N_7 
REMARK    9  A    between atoms: N_7  and  C_13 
REMARK   10  A    between atoms: C_9  and  C_10 
REMARK   11  A    between atoms: C_10  and  C_11 
REMARK   12  A    between atoms: C_13  and  C_17 
ROOT
HETATM    1  C   UNK N   1      30.744  15.886   3.411  0.00  0.00     0.076 C 
HETATM    2  C   UNK N   1      30.757  14.445   2.892  0.00  0.00     0.032 C 
ENDROOT
BRANCH   1   3
HETATM    3  N   UNK N   1      31.614  16.731   2.597  0.00  0.00    -0.415 N 
HETATM    4  H   UNK N   1      31.365  17.144   1.698  0.00  0.00     0.153 HD
BRANCH   3   5
HETATM    5  C   UNK N   1      32.896  16.890   3.276  0.00  0.00     0.141 C 
BRANCH   5   6
HETATM    6  C   UNK N   1      32.763  17.878   4.420  0.00  0.00     0.195 C 
BRANCH   6   7
HETATM    7  O   UNK N   1      33.885  17.775   5.205  0.00  0.00    -0.347 OA
BRANCH   7   8
HETATM    8  C   UNK N   1      33.863  17.267   6.459  0.00  0.00     0.102 A 
HETATM    9  C   UNK N   1      34.648  16.147   6.748  0.00  0.00     0.102 A 
HETATM   10  C   UNK N   1      34.658  15.622   8.051  0.00  0.00     0.039 A 
HETATM   11  C   UNK N   1      33.884  16.213   9.055  0.00  0.00     0.003 A 
HETATM   12  C   UNK N   1      33.100  17.331   8.767  0.00  0.00     0.003 A 
HETATM   13  C   UNK N   1      33.090  17.861   7.476  0.00  0.00     0.039 A 
BRANCH   9  14
HETATM   14  O   UNK N   1      35.408  15.612   5.759  0.00  0.00    -0.349 OA
BRANCH  14  15
HETATM   15  C   UNK N   1      35.376  14.284   5.406  0.00  0.00     0.171 C 
HETATM   16  C   UNK N   1      33.948  13.894   5.082  0.00  0.00     0.034 C 
ENDBRANCH  14  15
ENDBRANCH   9  14
ENDBRANCH   7   8
ENDBRANCH   6   7
ENDBRANCH   5   6
ENDBRANCH   3   5
ENDBRANCH   1   3
BRANCH   1  17
HETATM   17  C   UNK N   1      29.359  16.547   3.593  0.00  0.00     0.062 C 
BRANCH  17  18
HETATM   18  C   UNK N   1      29.114  17.114   4.949  0.00  0.00    -0.055 A 
HETATM   19  C   UNK N   1      28.332  18.259   5.096  0.00  0.00     0.035 A 
HETATM   20  C   UNK N   1      28.140  18.832   6.351  0.00  0.00     0.113 A 
HETATM   21  C   UNK N   1      28.732  18.245   7.488  0.00  0.00     0.091 A 
HETATM   22  C   UNK N   1      29.508  17.081   7.334  0.00  0.00     0.039 A 
HETATM   23  C   UNK N   1      29.700  16.521   6.069  0.00  0.00     0.010 A 
BRANCH  20  24
HETATM   24  S   UNK N   1      27.150  20.322   6.445  0.00  0.00     0.259 S 
HETATM   25  O   UNK N   1      27.900  21.620   6.115  0.00  0.00    -0.201 OA
HETATM   26  O   UNK N   1      26.026  20.324   5.398  0.00  0.00    -0.201 OA
BRANCH  24  27
HETATM   27  N   UNK N   1      26.330  20.631   7.974  0.00  0.00    -0.324 N 
HETATM   28  H   UNK N   1      25.631  21.257   8.375  0.00  0.00     0.169 HD
HETATM   29  H   UNK N   1      26.659  19.978   8.685  0.00  0.00     0.169 HD
ENDBRANCH  24  27
ENDBRANCH  20  24
BRANCH  21  30
HETATM   30  O   UNK N   1      28.554  18.808   8.709  0.00  0.00    -0.354 OA
HETATM   31  C   UNK N   1      29.517  18.803   9.692  0.00  0.00     0.210 C 
ENDBRANCH  21  30
ENDBRANCH  17  18
ENDBRANCH   1  17
TORSDOF 12
ENDMDL
MODEL 6
REMARK VINA RESULT:      -6.3      5.042      7.259
REMARK  12 active torsions:
REMARK  status: ('A' for Active; 'I' for Inactive)
REMARK    1  A    between atoms: S_1  and  N_8 
REMARK    2  A    between atoms: S_1  and  C_15 
REMARK    3  A    between atoms: O_2  and  C_17 
REMARK    4  A    between atoms: O_2  and  C_20 
REMARK    5  A    between atoms: O_3  and  C_18 
REMARK    6  A    between atoms: O_6  and  C_21 
REMARK    7  A    between atoms: O_6  and  C_27 
REMARK    8  A    between atoms: C_9  and  N_7 
REMARK    9  A    between atoms: N_7  and  C_13 
REMARK   10  A    between atoms: C_9  and  C_10 
REMARK   11  A    between atoms: C_10  and  C_11 
REMARK   12  A    between atoms: C_13  and  C_17 
ROOT
HETATM    1  C   UNK N   1      25.446  15.835   4.930  0.00  0.00     0.076 C 
HETATM    2  C   UNK N   1      26.462  16.080   3.809  0.00  0.00     0.032 C 
ENDROOT
BRANCH   1   3
HETATM    3  N   UNK N   1      26.119  15.355   6.135  0.00  0.00    -0.415 N 
HETATM    4  H   UNK N   1      26.688  15.925   6.762  0.00  0.00     0.153 HD
BRANCH   3   5
HETATM    5  C   UNK N   1      25.847  13.930   6.297  0.00  0.00     0.141 C 
BRANCH   5   6
HETATM    6  C   UNK N   1      24.973  13.701   7.516  0.00  0.00     0.195 C 
BRANCH   6   7
HETATM    7  O   UNK N   1      23.683  13.512   7.086  0.00  0.00    -0.347 OA
BRANCH   7   8
HETATM    8  C   UNK N   1      22.605  13.969   7.764  0.00  0.00     0.102 A 
HETATM    9  C   UNK N   1      22.091  13.201   8.813  0.00  0.00     0.102 A 
HETATM   10  C   UNK N   1      20.990  13.671   9.546  0.00  0.00     0.039 A 
HETATM   11  C   UNK N   1      20.404  14.901   9.227  0.00  0.00     0.003 A 
HETATM   12  C   UNK N   1      20.916  15.669   8.180  0.00  0.00     0.003 A 
HETATM   13  C   UNK N   1      22.015  15.209   7.452  0.00  0.00     0.039 A 
BRANCH   9  14
HETATM   14  O   UNK N   1      22.697  12.024   9.115  0.00  0.00    -0.349 OA
BRANCH  14  15
HETATM   15  C   UNK N   1      22.941  11.599  10.399  0.00  0.00     0.171 C 
HETATM   16  C   UNK N   1      24.279  12.143  10.853  0.00  0.00     0.034 C 
ENDBRANCH  14  15
ENDBRANCH   9  14
ENDBRANCH   7   8
ENDBRANCH   6   7
ENDBRANCH   5   6
ENDBRANCH   3   5
ENDBRANCH   1   3
BRANCH   1  17
HETATM   17  C   UNK N   1      24.491  17.002   5.269  0.00  0.00     0.062 C 
BRANCH  17  18
HETATM   18  C   UNK N   1      23.327  17.140   4.348  0.00  0.00    -0.055 A 
HETATM   19  C   UNK N   1      22.874  18.407   3.982  0.00  0.00     0.035 A 
HETATM   20  C   UNK N   1      21.754  18.552   3.167  0.00  0.00     0.113 A 
HETATM   21  C   UNK N   1      21.076  17.410   2.696  0.00  0.00     0.091 A 
HETATM   22  C   UNK N   1      21.549  16.134   3.057  0.00  0.00     0.039 A 
HETATM   23  C   UNK N   1      22.668  16.001   3.882  0.00  0.00     0.010 A 
BRANCH  20  24
HETATM   24  S   UNK N   1      21.219  20.217   2.774  0.00  0.00     0.259 S 
HETATM   25  O   UNK N   1      20.193  20.814   3.747  0.00  0.00    -0.201 OA
HETATM   26  O   UNK N   1      22.377  21.223   2.869  0.00  0.00    -0.201 OA
BRANCH  24  27
HETATM   27  N   UNK N   1      20.543  20.471   1.166  0.00  0.00    -0.324 N 
HETATM   28  H   UNK N   1      20.779  20.322   0.185  0.00  0.00     0.169 HD
HETATM   29  H   UNK N   1      19.623  20.905   1.240  0.00  0.00     0.169 HD
ENDBRANCH  24  27
ENDBRANCH  20  24
BRANCH  21  30
HETATM   30  O   UNK N   1      19.980  17.551   1.910  0.00  0.00    -0.354 OA
HETATM   31  C   UNK N   1      19.835  16.921   0.695  0.00  0.00     0.210 C 
ENDBRANCH  21  30
ENDBRANCH  17  18
ENDBRANCH   1  17
TORSDOF 12
ENDMDL
MODEL 7
REMARK VINA RESULT:      -6.3      1.683      2.929
REMARK  12 active torsions:
REMARK  status: ('A' for Active; 'I' for Inactive)
REMARK    1  A    between atoms: S_1  and  N_8 
REMARK    2  A    between atoms: S_1  and  C_15 
REMARK    3  A    between atoms: O_2  and  C_17 
REMARK    4  A    between atoms: O_2  and  C_20 
REMARK    5  A    between atoms: O_3  and  C_18 
REMARK    6  A    between atoms: O_6  and  C_21 
REMARK    7  A    between atoms: O_6  and  C_27 
REMARK    8  A    between atoms: C_9  and  N_7 
REMARK    9  A    between atoms: N_7  and  C_13 
REMARK   10  A    between atoms: C_9  and  C_10 
REMARK   11  A    between atoms: C_10  and  C_11 
REMARK   12  A    between atoms: C_13  and  C_17 
ROOT
HETATM    1  C   UNK N   1      27.827  19.606   5.558  0.00  0.00     0.076 C 
HETATM    2  C   UNK N   1      27.567  21.072   5.921  0.00  0.00     0.032 C 
ENDROOT
BRANCH   1   3
HETATM    3  N   UNK N   1      27.403  18.727   6.645  0.00  0.00    -0.415 N 
HETATM    4  H   UNK N   1      26.822  19.002   7.437  0.00  0.00     0.153 HD
BRANCH   3   5
HETATM    5  C   UNK N   1      27.945  17.391   6.416  0.00  0.00     0.141 C 
BRANCH   5   6
HETATM    6  C   UNK N   1      29.322  17.272   7.041  0.00  0.00     0.195 C 
BRANCH   6   7
HETATM    7  O   UNK N   1      30.005  16.279   6.382  0.00  0.00    -0.347 OA
BRANCH   7   8
HETATM    8  C   UNK N   1      30.926  16.529   5.422  0.00  0.00     0.102 A 
HETATM    9  C   UNK N   1      30.664  16.121   4.111  0.00  0.00     0.102 A 
HETATM   10  C   UNK N   1      31.596  16.395   3.098  0.00  0.00     0.039 A 
HETATM   11  C   UNK N   1      32.784  17.071   3.395  0.00  0.00     0.003 A 
HETATM   12  C   UNK N   1      33.046  17.479   4.704  0.00  0.00     0.003 A 
HETATM   13  C   UNK N   1      32.121  17.214   5.715  0.00  0.00     0.039 A 
BRANCH   9  14
HETATM   14  O   UNK N   1      29.492  15.491   3.849  0.00  0.00    -0.349 OA
BRANCH  14  15
HETATM   15  C   UNK N   1      28.908  15.451   2.604  0.00  0.00     0.171 C 
HETATM   16  C   UNK N   1      27.431  15.755   2.743  0.00  0.00     0.034 C 
ENDBRANCH  14  15
ENDBRANCH   9  14
ENDBRANCH   7   8
ENDBRANCH   6   7
ENDBRANCH   5   6
ENDBRANCH   3   5
ENDBRANCH   1   3
BRANCH   1  17
HETATM   17  C   UNK N   1      27.260  19.113   4.207  0.00  0.00     0.062 C 
BRANCH  17  18
HETATM   18  C   UNK N   1      25.805  19.373   4.013  0.00  0.00    -0.055 A 
HETATM   19  C   UNK N   1      24.862  18.612   4.702  0.00  0.00     0.035 A 
HETATM   20  C   UNK N   1      23.499  18.806   4.489  0.00  0.00     0.113 A 
HETATM   21  C   UNK N   1      23.065  19.787   3.575  0.00  0.00     0.091 A 
HETATM   22  C   UNK N   1      24.023  20.563   2.893  0.00  0.00     0.039 A 
HETATM   23  C   UNK N   1      25.386  20.353   3.110  0.00  0.00     0.010 A 
BRANCH  20  24
HETATM   24  S   UNK N   1      22.357  17.761   5.390  0.00  0.00     0.259 S 
HETATM   25  O   UNK N   1      21.446  18.500   6.380  0.00  0.00    -0.201 OA
HETATM   26  O   UNK N   1      21.340  17.091   4.454  0.00  0.00    -0.201 OA
BRANCH  24  27
HETATM   27  N   UNK N   1      23.060  16.429   6.306  0.00  0.00    -0.324 N 
HETATM   28  H   UNK N   1      22.782  15.558   6.760  0.00  0.00     0.169 HD
HETATM   29  H   UNK N   1      24.063  16.575   6.420  0.00  0.00     0.169 HD
ENDBRANCH  24  27
ENDBRANCH  20  24
BRANCH  21  30
HETATM   30  O   UNK N   1      21.739  19.970   3.359  0.00  0.00    -0.354 OA
HETATM   31  C   UNK N   1      21.239  20.787   2.371  0.00  0.00     0.210 C 
ENDBRANCH  21  30
ENDBRANCH  17  18
ENDBRANCH   1  17
TORSDOF 12
ENDMDL
MODEL 8
REMARK VINA RESULT:      -6.1     11.729     13.965
REMARK  12 active torsions:
REMARK  status: ('A' for Active; 'I' for Inactive)
REMARK    1  A    between atoms: S_1  and  N_8 
REMARK    2  A    between atoms: S_1  and  C_15 
REMARK    3  A    between atoms: O_2  and  C_17 
REMARK    4  A    between atoms: O_2  and  C_20 
REMARK    5  A    between atoms: O_3  and  C_18 
REMARK    6  A    between atoms: O_6  and  C_21 
REMARK    7  A    between atoms: O_6  and  C_27 
REMARK    8  A    between atoms: C_9  and  N_7 
REMARK    9  A    between atoms: N_7  and  C_13 
REMARK   10  A    between atoms: C_9  and  C_10 
REMARK   11  A    between atoms: C_10  and  C_11 
REMARK   12  A    between atoms: C_13  and  C_17 
ROOT
HETATM    1  C   UNK N   1      25.975  26.270  -5.118  0.00  0.00     0.076 C 
HETATM    2  C   UNK N   1      24.838  26.966  -5.873  0.00  0.00     0.032 C 
ENDROOT
BRANCH   1   3
HETATM    3  N   UNK N   1      26.263  26.970  -3.868  0.00  0.00    -0.415 N 
HETATM    4  H   UNK N   1      26.765  26.576  -3.072  0.00  0.00     0.153 HD
BRANCH   3   5
HETATM    5  C   UNK N   1      25.720  28.322  -3.943  0.00  0.00     0.141 C 
BRANCH   5   6
HETATM    6  C   UNK N   1      26.661  29.301  -3.266  0.00  0.00     0.195 C 
BRANCH   6   7
HETATM    7  O   UNK N   1      27.871  29.247  -3.915  0.00  0.00    -0.347 OA
BRANCH   7   8
HETATM    8  C   UNK N   1      29.053  29.171  -3.262  0.00  0.00     0.102 A 
HETATM    9  C   UNK N   1      29.850  28.035  -3.436  0.00  0.00     0.102 A 
HETATM   10  C   UNK N   1      31.092  27.950  -2.788  0.00  0.00     0.039 A 
HETATM   11  C   UNK N   1      31.532  28.993  -1.967  0.00  0.00     0.003 A 
HETATM   12  C   UNK N   1      30.738  30.128  -1.792  0.00  0.00     0.003 A 
HETATM   13  C   UNK N   1      29.504  30.220  -2.439  0.00  0.00     0.039 A 
BRANCH   9  14
HETATM   14  O   UNK N   1      29.407  27.051  -4.259  0.00  0.00    -0.349 OA
BRANCH  14  15
HETATM   15  C   UNK N   1      30.043  26.684  -5.421  0.00  0.00     0.171 C 
HETATM   16  C   UNK N   1      29.126  26.964  -6.594  0.00  0.00     0.034 C 
ENDBRANCH  14  15
ENDBRANCH   9  14
ENDBRANCH   7   8
ENDBRANCH   6   7
ENDBRANCH   5   6
ENDBRANCH   3   5
ENDBRANCH   1   3
BRANCH   1  17
HETATM   17  C   UNK N   1      25.815  24.753  -4.867  0.00  0.00     0.062 C 
BRANCH  17  18
HETATM   18  C   UNK N   1      27.061  23.957  -5.059  0.00  0.00    -0.055 A 
HETATM   19  C   UNK N   1      28.013  23.896  -4.043  0.00  0.00     0.035 A 
HETATM   20  C   UNK N   1      29.206  23.201  -4.230  0.00  0.00     0.113 A 
HETATM   21  C   UNK N   1      29.452  22.545  -5.452  0.00  0.00     0.091 A 
HETATM   22  C   UNK N   1      28.479  22.599  -6.469  0.00  0.00     0.039 A 
HETATM   23  C   UNK N   1      27.291  23.305  -6.272  0.00  0.00     0.010 A 
BRANCH  20  24
HETATM   24  S   UNK N   1      30.390  23.202  -2.884  0.00  0.00     0.259 S 
HETATM   25  O   UNK N   1      31.127  24.531  -2.671  0.00  0.00    -0.201 OA
HETATM   26  O   UNK N   1      29.705  22.990  -1.525  0.00  0.00    -0.201 OA
BRANCH  24  27
HETATM   27  N   UNK N   1      31.651  21.971  -2.941  0.00  0.00    -0.324 N 
HETATM   28  H   UNK N   1      32.643  21.858  -2.733  0.00  0.00     0.169 HD
HETATM   29  H   UNK N   1      31.267  21.095  -3.294  0.00  0.00     0.169 HD
ENDBRANCH  24  27
ENDBRANCH  20  24
BRANCH  21  30
HETATM   30  O   UNK N   1      30.618  21.877  -5.638  0.00  0.00    -0.354 OA
HETATM   31  C   UNK N   1      31.504  22.170  -6.649  0.00  0.00     0.210 C 
ENDBRANCH  21  30
ENDBRANCH  17  18
ENDBRANCH   1  17
TORSDOF 12
ENDMDL
MODEL 9
REMARK VINA RESULT:      -6.1      6.025      9.187
REMARK  12 active torsions:
REMARK  status: ('A' for Active; 'I' for Inactive)
REMARK    1  A    between atoms: S_1  and  N_8 
REMARK    2  A    between atoms: S_1  and  C_15 
REMARK    3  A    between atoms: O_2  and  C_17 
REMARK    4  A    between atoms: O_2  and  C_20 
REMARK    5  A    between atoms: O_3  and  C_18 
REMARK    6  A    between atoms: O_6  and  C_21 
REMARK    7  A    between atoms: O_6  and  C_27 
REMARK    8  A    between atoms: C_9  and  N_7 
REMARK    9  A    between atoms: N_7  and  C_13 
REMARK   10  A    between atoms: C_9  and  C_10 
REMARK   11  A    between atoms: C_10  and  C_11 
REMARK   12  A    between atoms: C_13  and  C_17 
ROOT
HETATM    1  C   UNK N   1      33.587  15.259   9.539  0.00  0.00     0.076 C 
HETATM    2  C   UNK N   1      34.059  13.836   9.225  0.00  0.00     0.032 C 
ENDROOT
BRANCH   1   3
HETATM    3  N   UNK N   1      34.258  15.769  10.733  0.00  0.00    -0.415 N 
HETATM    4  H   UNK N   1      33.946  16.563  11.293  0.00  0.00     0.153 HD
BRANCH   3   5
HETATM    5  C   UNK N   1      35.444  14.960  10.996  0.00  0.00     0.141 C 
BRANCH   5   6
HETATM    6  C   UNK N   1      35.689  14.864  12.490  0.00  0.00     0.195 C 
BRANCH   6   7
HETATM    7  O   UNK N   1      34.980  13.791  12.970  0.00  0.00    -0.347 OA
BRANCH   7   8
HETATM    8  C   UNK N   1      35.474  12.934  13.893  0.00  0.00     0.102 A 
HETATM    9  C   UNK N   1      36.213  11.828  13.460  0.00  0.00     0.102 A 
HETATM   10  C   UNK N   1      36.756  10.942  14.404  0.00  0.00     0.039 A 
HETATM   11  C   UNK N   1      36.558  11.159  15.772  0.00  0.00     0.003 A 
HETATM   12  C   UNK N   1      35.820  12.262  16.204  0.00  0.00     0.003 A 
HETATM   13  C   UNK N   1      35.282  13.150  15.271  0.00  0.00     0.039 A 
BRANCH   9  14
HETATM   14  O   UNK N   1      36.410  11.658  12.129  0.00  0.00    -0.349 OA
BRANCH  14  15
HETATM   15  C   UNK N   1      37.606  11.262  11.579  0.00  0.00     0.171 C 
HETATM   16  C   UNK N   1      37.602  11.593  10.101  0.00  0.00     0.034 C 
ENDBRANCH  14  15
ENDBRANCH   9  14
ENDBRANCH   7   8
ENDBRANCH   6   7
ENDBRANCH   5   6
ENDBRANCH   3   5
ENDBRANCH   1   3
BRANCH   1  17
HETATM   17  C   UNK N   1      33.669  16.288   8.388  0.00  0.00     0.062 C 
BRANCH  17  18
HETATM   18  C   UNK N   1      32.359  16.627   7.764  0.00  0.00    -0.055 A 
HETATM   19  C   UNK N   1      31.328  17.149   8.544  0.00  0.00     0.035 A 
HETATM   20  C   UNK N   1      30.081  17.418   7.985  0.00  0.00     0.113 A 
HETATM   21  C   UNK N   1      29.858  17.172   6.615  0.00  0.00     0.091 A 
HETATM   22  C   UNK N   1      30.909  16.659   5.830  0.00  0.00     0.039 A 
HETATM   23  C   UNK N   1      32.152  16.386   6.404  0.00  0.00     0.010 A 
BRANCH  20  24
HETATM   24  S   UNK N   1      28.803  18.054   9.067  0.00  0.00     0.259 S 
HETATM   25  O   UNK N   1      27.919  16.985   9.724  0.00  0.00    -0.201 OA
HETATM   26  O   UNK N   1      29.397  18.776  10.286  0.00  0.00    -0.201 OA
BRANCH  24  27
HETATM   27  N   UNK N   1      27.682  19.220   8.366  0.00  0.00    -0.324 N 
HETATM   28  H   UNK N   1      26.679  19.389   8.281  0.00  0.00     0.169 HD
HETATM   29  H   UNK N   1      28.200  19.962   7.894  0.00  0.00     0.169 HD
ENDBRANCH  24  27
ENDBRANCH  20  24
BRANCH  21  30
HETATM   30  O   UNK N   1      28.642  17.425   6.072  0.00  0.00    -0.354 OA
HETATM   31  C   UNK N   1      28.453  18.264   4.997  0.00  0.00     0.210 C 
ENDBRANCH  21  30
ENDBRANCH  17  18
ENDBRANCH   1  17
TORSDOF 12
ENDMDL
