REMARK  8 active torsions:
REMARK  status: ('A' for Active; 'I' for Inactive)
REMARK    1  A    between atoms: O_2  and  C_11 
REMARK    2  A    between atoms: N_4  and  C_12 
REMARK    3  A    between atoms: N_5  and  C_6 
REMARK    4  A    between atoms: N_5  and  C_13 
REMARK       I    between atoms: N_5  and  C_14 
REMARK    5  A    between atoms: C_6  and  C_11 
REMARK    6  A    between atoms: C_12  and  C_15 
REMARK    7  A    between atoms: C_14  and  C_16 
REMARK    8  A    between atoms: C_15  and  C_19 
ROOT
HETATM    1  N   UNK N   1       2.193  -1.286   0.460  0.00  0.00     0.088 N 
HETATM    2  C   UNK N   1       3.228   1.359  -0.018  0.00  0.00     0.065 C 
HETATM    3  C   UNK N   1       1.890   1.231   0.747  0.00  0.00     0.064 C 
HETATM    4  C   UNK N   1       4.135   0.284   0.645  0.00  0.00     0.064 C 
HETATM    5  C   UNK N   1       1.238  -0.163   0.541  0.00  0.00     0.275 C 
HETATM    6  C   UNK N   1       3.448  -0.997   1.152  0.00  0.00     0.275 C 
ENDROOT
BRANCH   2   7
HETATM    7  N   UNK N   1       3.921   2.682   0.054  0.00  0.00    -0.306 N 
HETATM    8  C   UNK N   1       3.215   3.852   0.312  0.00  0.00     0.224 C 
HETATM    9  O   UNK N   1       2.028   3.825   0.587  0.00  0.00    -0.273 OA
BRANCH   7  10
HETATM   10  C   UNK N   1       5.343   2.724  -0.272  0.00  0.00     0.038 A 
HETATM   11  C   UNK N   1       6.178   3.762   0.192  0.00  0.00     0.030 A 
HETATM   12  C   UNK N   1       7.554   3.750  -0.051  0.00  0.00     0.002 A 
HETATM   13  C   UNK N   1       8.131   2.696  -0.757  0.00  0.00     0.000 A 
HETATM   14  C   UNK N   1       7.332   1.656  -1.227  0.00  0.00     0.002 A 
HETATM   15  C   UNK N   1       5.958   1.669  -0.982  0.00  0.00     0.030 A 
ENDBRANCH   7  10
BRANCH   8  16
HETATM   16  C   UNK N   1       3.839   5.214   0.129  0.00  0.00     0.099 C 
HETATM   17  C   UNK N   1       3.843   6.013   1.414  0.00  0.00     0.014 C 
ENDBRANCH   8  16
ENDBRANCH   2   7
BRANCH   2  18
HETATM   18  C   UNK N   1       3.004   1.071  -1.524  0.00  0.00     0.198 C 
BRANCH  18  19
HETATM   19  O   UNK N   1       1.691   1.355  -1.945  0.00  0.00    -0.393 OA
HETATM   20  C   UNK N   1       1.676   2.691  -2.345  0.00  0.00     0.201 C 
ENDBRANCH  18  19
ENDBRANCH   2  18
BRANCH   1  21
HETATM   21  C   UNK N   1       2.491  -1.650  -0.928  0.00  0.00     0.277 C 
BRANCH  21  22
HETATM   22  C   UNK N   1       1.840  -2.958  -1.344  0.00  0.00     0.076 C 
BRANCH  22  23
HETATM   23  C   UNK N   1       2.099  -4.029  -0.346  0.00  0.00    -0.016 A 
HETATM   24  S   UNK N   1       3.569  -4.575   0.176  0.00  0.00    -0.106 SA
HETATM   25  C   UNK N   1       3.071  -5.691   1.299  0.00  0.00     0.050 A 
HETATM   26  C   UNK N   1       1.668  -5.655   1.281  0.00  0.00     0.008 A 
HETATM   27  C   UNK N   1       1.122  -4.719   0.359  0.00  0.00     0.015 A 
ENDBRANCH  22  23
ENDBRANCH  21  22
ENDBRANCH   1  21
TORSDOF 8
