MODEL 1
REMARK VINA RESULT:      -5.9      0.000      0.000
REMARK  8 active torsions:
REMARK  status: ('A' for Active; 'I' for Inactive)
REMARK    1  A    between atoms: O_2  and  C_11 
REMARK    2  A    between atoms: N_4  and  C_12 
REMARK    3  A    between atoms: N_5  and  C_6 
REMARK    4  A    between atoms: N_5  and  C_13 
REMARK       I    between atoms: N_5  and  C_14 
REMARK    5  A    between atoms: C_6  and  C_11 
REMARK    6  A    between atoms: C_12  and  C_15 
REMARK    7  A    between atoms: C_14  and  C_16 
REMARK    8  A    between atoms: C_15  and  C_19 
ROOT
HETATM    1  N   UNK N   1      32.506  16.165   3.958  0.00  0.00     0.088 N 
HETATM    2  C   UNK N   1      29.962  16.770   5.165  0.00  0.00     0.065 C 
HETATM    3  C   UNK N   1      30.751  17.931   4.515  0.00  0.00     0.064 C 
HETATM    4  C   UNK N   1      30.067  15.624   4.119  0.00  0.00     0.064 C 
HETATM    5  C   UNK N   1      32.249  17.573   4.320  0.00  0.00     0.275 C 
HETATM    6  C   UNK N   1      31.362  15.547   3.290  0.00  0.00     0.275 C 
ENDROOT
BRANCH   2   7
HETATM    7  N   UNK N   1      28.518  17.020   5.460  0.00  0.00    -0.306 N 
HETATM    8  C   UNK N   1      27.634  15.968   5.674  0.00  0.00     0.224 C 
HETATM    9  O   UNK N   1      28.026  14.815   5.727  0.00  0.00    -0.273 OA
BRANCH   7  10
HETATM   10  C   UNK N   1      28.039  18.397   5.400  0.00  0.00     0.038 A 
HETATM   11  C   UNK N   1      27.564  18.964   4.199  0.00  0.00     0.030 A 
HETATM   12  C   UNK N   1      27.027  20.253   4.167  0.00  0.00     0.002 A 
HETATM   13  C   UNK N   1      26.944  21.006   5.337  0.00  0.00     0.000 A 
HETATM   14  C   UNK N   1      27.404  20.473   6.539  0.00  0.00     0.002 A 
HETATM   15  C   UNK N   1      27.939  19.184   6.569  0.00  0.00     0.030 A 
ENDBRANCH   7  10
BRANCH   8  16
HETATM   16  C   UNK N   1      26.140  16.179   5.710  0.00  0.00     0.099 C 
HETATM   17  C   UNK N   1      25.486  15.830   4.390  0.00  0.00     0.014 C 
ENDBRANCH   8  16
ENDBRANCH   2   7
BRANCH   2  18
HETATM   18  C   UNK N   1      30.617  16.378   6.514  0.00  0.00     0.198 C 
BRANCH  18  19
HETATM   19  O   UNK N   1      30.733  17.464   7.401  0.00  0.00    -0.393 OA
HETATM   20  C   UNK N   1      30.842  16.928   8.684  0.00  0.00     0.201 C 
ENDBRANCH  18  19
ENDBRANCH   2  18
BRANCH   1  21
HETATM   21  C   UNK N   1      32.865  15.357   5.127  0.00  0.00     0.277 C 
BRANCH  21  22
HETATM   22  C   UNK N   1      34.304  15.567   5.565  0.00  0.00     0.076 C 
BRANCH  22  23
HETATM   23  C   UNK N   1      34.370  16.211   6.904  0.00  0.00    -0.016 A 
HETATM   24  S   UNK N   1      34.628  15.470   8.358  0.00  0.00    -0.106 SA
HETATM   25  C   UNK N   1      34.635  16.798   9.353  0.00  0.00     0.050 A 
HETATM   26  C   UNK N   1      34.421  17.905   8.517  0.00  0.00     0.008 A 
HETATM   27  C   UNK N   1      34.275  17.576   7.141  0.00  0.00     0.015 A 
ENDBRANCH  22  23
ENDBRANCH  21  22
ENDBRANCH   1  21
TORSDOF 8
ENDMDL
MODEL 2
REMARK VINA RESULT:      -5.7      6.509     10.880
REMARK  8 active torsions:
REMARK  status: ('A' for Active; 'I' for Inactive)
REMARK    1  A    between atoms: O_2  and  C_11 
REMARK    2  A    between atoms: N_4  and  C_12 
REMARK    3  A    between atoms: N_5  and  C_6 
REMARK    4  A    between atoms: N_5  and  C_13 
REMARK       I    between atoms: N_5  and  C_14 
REMARK    5  A    between atoms: C_6  and  C_11 
REMARK    6  A    between atoms: C_12  and  C_15 
REMARK    7  A    between atoms: C_14  and  C_16 
REMARK    8  A    between atoms: C_15  and  C_19 
ROOT
HETATM    1  N   UNK N   1      35.567  14.932  10.208  0.00  0.00     0.088 N 
HETATM    2  C   UNK N   1      36.186  13.255  12.466  0.00  0.00     0.065 C 
HETATM    3  C   UNK N   1      37.087  13.147  11.214  0.00  0.00     0.064 C 
HETATM    4  C   UNK N   1      36.017  14.788  12.667  0.00  0.00     0.064 C 
HETATM    5  C   UNK N   1      36.399  13.739   9.954  0.00  0.00     0.275 C 
HETATM    6  C   UNK N   1      35.994  15.662  11.400  0.00  0.00     0.275 C 
ENDROOT
BRANCH   2   7
HETATM    7  N   UNK N   1      36.717  12.661  13.731  0.00  0.00    -0.306 N 
HETATM    8  C   UNK N   1      37.506  11.517  13.714  0.00  0.00     0.224 C 
HETATM    9  O   UNK N   1      37.874  11.020  12.664  0.00  0.00    -0.273 OA
BRANCH   7  10
HETATM   10  C   UNK N   1      36.284  13.251  14.994  0.00  0.00     0.038 A 
HETATM   11  C   UNK N   1      35.166  12.755  15.697  0.00  0.00     0.030 A 
HETATM   12  C   UNK N   1      34.809  13.268  16.947  0.00  0.00     0.002 A 
HETATM   13  C   UNK N   1      35.565  14.284  17.529  0.00  0.00     0.000 A 
HETATM   14  C   UNK N   1      36.675  14.793  16.859  0.00  0.00     0.002 A 
HETATM   15  C   UNK N   1      37.031  14.279  15.612  0.00  0.00     0.030 A 
ENDBRANCH   7  10
BRANCH   8  16
HETATM   16  C   UNK N   1      37.830  10.755  14.976  0.00  0.00     0.099 C 
HETATM   17  C   UNK N   1      36.949   9.536  15.144  0.00  0.00     0.014 C 
ENDBRANCH   8  16
ENDBRANCH   2   7
BRANCH   2  18
HETATM   18  C   UNK N   1      34.827  12.559  12.200  0.00  0.00     0.198 C 
BRANCH  18  19
HETATM   19  O   UNK N   1      34.972  11.275  11.641  0.00  0.00    -0.393 OA
HETATM   20  C   UNK N   1      34.129  10.426  12.358  0.00  0.00     0.201 C 
ENDBRANCH  18  19
ENDBRANCH   2  18
BRANCH   1  21
HETATM   21  C   UNK N   1      34.149  14.589  10.346  0.00  0.00     0.277 C 
BRANCH  21  22
HETATM   22  C   UNK N   1      33.436  14.491   9.008  0.00  0.00     0.076 C 
BRANCH  22  23
HETATM   23  C   UNK N   1      33.517  15.774   8.260  0.00  0.00    -0.016 A 
HETATM   24  S   UNK N   1      34.249  16.036   6.801  0.00  0.00    -0.106 SA
HETATM   25  C   UNK N   1      33.878  17.639   6.586  0.00  0.00     0.050 A 
HETATM   26  C   UNK N   1      33.138  18.018   7.716  0.00  0.00     0.008 A 
HETATM   27  C   UNK N   1      32.932  16.969   8.655  0.00  0.00     0.015 A 
ENDBRANCH  22  23
ENDBRANCH  21  22
ENDBRANCH   1  21
TORSDOF 8
ENDMDL
MODEL 3
REMARK VINA RESULT:      -5.7      3.345      5.744
REMARK  8 active torsions:
REMARK  status: ('A' for Active; 'I' for Inactive)
REMARK    1  A    between atoms: O_2  and  C_11 
REMARK    2  A    between atoms: N_4  and  C_12 
REMARK    3  A    between atoms: N_5  and  C_6 
REMARK    4  A    between atoms: N_5  and  C_13 
REMARK       I    between atoms: N_5  and  C_14 
REMARK    5  A    between atoms: C_6  and  C_11 
REMARK    6  A    between atoms: C_12  and  C_15 
REMARK    7  A    between atoms: C_14  and  C_16 
REMARK    8  A    between atoms: C_15  and  C_19 
ROOT
HETATM    1  N   UNK N   1      34.477  15.480  10.338  0.00  0.00     0.088 N 
HETATM    2  C   UNK N   1      33.278  15.774   7.736  0.00  0.00     0.065 C 
HETATM    3  C   UNK N   1      32.349  15.455   8.930  0.00  0.00     0.064 C 
HETATM    4  C   UNK N   1      34.214  16.888   8.284  0.00  0.00     0.064 C 
HETATM    5  C   UNK N   1      33.139  14.888  10.141  0.00  0.00     0.275 C 
HETATM    6  C   UNK N   1      34.574  16.827   9.780  0.00  0.00     0.275 C 
ENDROOT
BRANCH   2   7
HETATM    7  N   UNK N   1      32.623  16.269   6.486  0.00  0.00    -0.306 N 
HETATM    8  C   UNK N   1      33.374  16.777   5.432  0.00  0.00     0.224 C 
HETATM    9  O   UNK N   1      34.592  16.742   5.450  0.00  0.00    -0.273 OA
BRANCH   7  10
HETATM   10  C   UNK N   1      31.164  16.314   6.454  0.00  0.00     0.038 A 
HETATM   11  C   UNK N   1      30.444  17.383   7.027  0.00  0.00     0.030 A 
HETATM   12  C   UNK N   1      29.053  17.462   6.917  0.00  0.00     0.002 A 
HETATM   13  C   UNK N   1      28.349  16.479   6.225  0.00  0.00     0.000 A 
HETATM   14  C   UNK N   1      29.033  15.411   5.648  0.00  0.00     0.002 A 
HETATM   15  C   UNK N   1      30.422  15.334   5.757  0.00  0.00     0.030 A 
ENDBRANCH   7  10
BRANCH   8  16
HETATM   16  C   UNK N   1      32.733  17.520   4.284  0.00  0.00     0.099 C 
HETATM   17  C   UNK N   1      32.673  16.678   3.028  0.00  0.00     0.014 C 
ENDBRANCH   8  16
ENDBRANCH   2   7
BRANCH   2  18
HETATM   18  C   UNK N   1      34.072  14.505   7.332  0.00  0.00     0.198 C 
BRANCH  18  19
HETATM   19  O   UNK N   1      33.241  13.461   6.882  0.00  0.00    -0.393 OA
HETATM   20  C   UNK N   1      33.756  12.279   7.413  0.00  0.00     0.201 C 
ENDBRANCH  18  19
ENDBRANCH   2  18
BRANCH   1  21
HETATM   21  C   UNK N   1      35.533  14.648   9.754  0.00  0.00     0.277 C 
BRANCH  21  22
HETATM   22  C   UNK N   1      36.650  14.343  10.738  0.00  0.00     0.076 C 
BRANCH  22  23
HETATM   23  C   UNK N   1      36.113  13.770  12.000  0.00  0.00    -0.016 A 
HETATM   24  S   UNK N   1      35.289  12.349  12.182  0.00  0.00    -0.106 SA
HETATM   25  C   UNK N   1      35.085  12.352  13.829  0.00  0.00     0.050 A 
HETATM   26  C   UNK N   1      35.689  13.533  14.289  0.00  0.00     0.008 A 
HETATM   27  C   UNK N   1      36.270  14.327  13.262  0.00  0.00     0.015 A 
ENDBRANCH  22  23
ENDBRANCH  21  22
ENDBRANCH   1  21
TORSDOF 8
ENDMDL
MODEL 4
REMARK VINA RESULT:      -5.6      3.386      5.588
REMARK  8 active torsions:
REMARK  status: ('A' for Active; 'I' for Inactive)
REMARK    1  A    between atoms: O_2  and  C_11 
REMARK    2  A    between atoms: N_4  and  C_12 
REMARK    3  A    between atoms: N_5  and  C_6 
REMARK    4  A    between atoms: N_5  and  C_13 
REMARK       I    between atoms: N_5  and  C_14 
REMARK    5  A    between atoms: C_6  and  C_11 
REMARK    6  A    between atoms: C_12  and  C_15 
REMARK    7  A    between atoms: C_14  and  C_16 
REMARK    8  A    between atoms: C_15  and  C_19 
ROOT
HETATM    1  N   UNK N   1      34.690  13.352   8.945  0.00  0.00     0.088 N 
HETATM    2  C   UNK N   1      33.081  15.428   7.763  0.00  0.00     0.065 C 
HETATM    3  C   UNK N   1      33.984  14.590   6.829  0.00  0.00     0.064 C 
HETATM    4  C   UNK N   1      32.415  14.365   8.682  0.00  0.00     0.064 C 
HETATM    5  C   UNK N   1      35.098  13.848   7.616  0.00  0.00     0.275 C 
HETATM    6  C   UNK N   1      33.249  13.119   9.032  0.00  0.00     0.275 C 
ENDROOT
BRANCH   2   7
HETATM    7  N   UNK N   1      32.007  16.239   7.112  0.00  0.00    -0.306 N 
HETATM    8  C   UNK N   1      30.964  16.783   7.854  0.00  0.00     0.224 C 
HETATM    9  O   UNK N   1      30.946  16.701   9.070  0.00  0.00    -0.273 OA
BRANCH   7  10
HETATM   10  C   UNK N   1      32.021  16.344   5.656  0.00  0.00     0.038 A 
HETATM   11  C   UNK N   1      31.327  15.426   4.841  0.00  0.00     0.030 A 
HETATM   12  C   UNK N   1      31.274  15.583   3.454  0.00  0.00     0.002 A 
HETATM   13  C   UNK N   1      31.907  16.666   2.847  0.00  0.00     0.000 A 
HETATM   14  C   UNK N   1      32.600  17.590   3.626  0.00  0.00     0.002 A 
HETATM   15  C   UNK N   1      32.651  17.432   5.012  0.00  0.00     0.030 A 
ENDBRANCH   7  10
BRANCH   8  16
HETATM   16  C   UNK N   1      29.741  17.373   7.195  0.00  0.00     0.099 C 
HETATM   17  C   UNK N   1      28.913  18.188   8.163  0.00  0.00     0.014 C 
ENDBRANCH   8  16
ENDBRANCH   2   7
BRANCH   2  18
HETATM   18  C   UNK N   1      33.944  16.427   8.574  0.00  0.00     0.198 C 
BRANCH  18  19
HETATM   19  O   UNK N   1      34.766  17.227   7.758  0.00  0.00    -0.393 OA
HETATM   20  C   UNK N   1      34.594  18.545   8.180  0.00  0.00     0.201 C 
ENDBRANCH  18  19
ENDBRANCH   2  18
BRANCH   1  21
HETATM   21  C   UNK N   1      35.085  14.272  10.015  0.00  0.00     0.277 C 
BRANCH  21  22
HETATM   22  C   UNK N   1      36.264  13.759  10.825  0.00  0.00     0.076 C 
BRANCH  22  23
HETATM   23  C   UNK N   1      35.842  13.355  12.192  0.00  0.00    -0.016 A 
HETATM   24  S   UNK N   1      36.199  14.117  13.614  0.00  0.00    -0.106 SA
HETATM   25  C   UNK N   1      35.355  13.153  14.668  0.00  0.00     0.050 A 
HETATM   26  C   UNK N   1      34.748  12.161  13.881  0.00  0.00     0.008 A 
HETATM   27  C   UNK N   1      35.020  12.277  12.490  0.00  0.00     0.015 A 
ENDBRANCH  22  23
ENDBRANCH  21  22
ENDBRANCH   1  21
TORSDOF 8
ENDMDL
MODEL 5
REMARK VINA RESULT:      -5.6     11.944     14.879
REMARK  8 active torsions:
REMARK  status: ('A' for Active; 'I' for Inactive)
REMARK    1  A    between atoms: O_2  and  C_11 
REMARK    2  A    between atoms: N_4  and  C_12 
REMARK    3  A    between atoms: N_5  and  C_6 
REMARK    4  A    between atoms: N_5  and  C_13 
REMARK       I    between atoms: N_5  and  C_14 
REMARK    5  A    between atoms: C_6  and  C_11 
REMARK    6  A    between atoms: C_12  and  C_15 
REMARK    7  A    between atoms: C_14  and  C_16 
REMARK    8  A    between atoms: C_15  and  C_19 
ROOT
HETATM    1  N   UNK N   1      25.766  24.913  -4.947  0.00  0.00     0.088 N 
HETATM    2  C   UNK N   1      28.505  24.033  -4.796  0.00  0.00     0.065 C 
HETATM    3  C   UNK N   1      27.710  24.159  -3.476  0.00  0.00     0.064 C 
HETATM    4  C   UNK N   1      27.514  23.312  -5.754  0.00  0.00     0.064 C 
HETATM    5  C   UNK N   1      26.448  25.047  -3.644  0.00  0.00     0.275 C 
HETATM    6  C   UNK N   1      26.016  23.615  -5.571  0.00  0.00     0.275 C 
ENDROOT
BRANCH   2   7
HETATM    7  N   UNK N   1      29.777  23.250  -4.744  0.00  0.00    -0.306 N 
HETATM    8  C   UNK N   1      30.658  23.377  -3.676  0.00  0.00     0.224 C 
HETATM    9  O   UNK N   1      30.375  24.052  -2.701  0.00  0.00    -0.273 OA
BRANCH   7  10
HETATM   10  C   UNK N   1      30.124  22.437  -5.906  0.00  0.00     0.038 A 
HETATM   11  C   UNK N   1      30.760  22.993  -7.035  0.00  0.00     0.030 A 
HETATM   12  C   UNK N   1      31.167  22.193  -8.106  0.00  0.00     0.002 A 
HETATM   13  C   UNK N   1      30.955  20.816  -8.072  0.00  0.00     0.000 A 
HETATM   14  C   UNK N   1      30.330  20.238  -6.970  0.00  0.00     0.002 A 
HETATM   15  C   UNK N   1      29.926  21.038  -5.900  0.00  0.00     0.030 A 
ENDBRANCH   7  10
BRANCH   8  16
HETATM   16  C   UNK N   1      32.055  22.807  -3.725  0.00  0.00     0.099 C 
HETATM   17  C   UNK N   1      32.175  21.530  -2.922  0.00  0.00     0.014 C 
ENDBRANCH   8  16
ENDBRANCH   2   7
BRANCH   2  18
HETATM   18  C   UNK N   1      28.886  25.441  -5.318  0.00  0.00     0.198 C 
BRANCH  18  19
HETATM   19  O   UNK N   1      29.178  26.347  -4.281  0.00  0.00    -0.393 OA
HETATM   20  C   UNK N   1      30.356  27.003  -4.639  0.00  0.00     0.201 C 
ENDBRANCH  18  19
ENDBRANCH   2  18
BRANCH   1  21
HETATM   21  C   UNK N   1      26.161  25.971  -5.880  0.00  0.00     0.277 C 
BRANCH  21  22
HETATM   22  C   UNK N   1      25.438  27.282  -5.621  0.00  0.00     0.076 C 
BRANCH  22  23
HETATM   23  C   UNK N   1      26.396  28.368  -5.287  0.00  0.00    -0.016 A 
HETATM   24  S   UNK N   1      26.509  29.198  -3.862  0.00  0.00    -0.106 SA
HETATM   25  C   UNK N   1      27.809  30.170  -4.207  0.00  0.00     0.050 A 
HETATM   26  C   UNK N   1      28.196  29.846  -5.516  0.00  0.00     0.008 A 
HETATM   27  C   UNK N   1      27.404  28.831  -6.122  0.00  0.00     0.015 A 
ENDBRANCH  22  23
ENDBRANCH  21  22
ENDBRANCH   1  21
TORSDOF 8
ENDMDL
MODEL 6
REMARK VINA RESULT:      -5.5      8.669     10.754
REMARK  8 active torsions:
REMARK  status: ('A' for Active; 'I' for Inactive)
REMARK    1  A    between atoms: O_2  and  C_11 
REMARK    2  A    between atoms: N_4  and  C_12 
REMARK    3  A    between atoms: N_5  and  C_6 
REMARK    4  A    between atoms: N_5  and  C_13 
REMARK       I    between atoms: N_5  and  C_14 
REMARK    5  A    between atoms: C_6  and  C_11 
REMARK    6  A    between atoms: C_12  and  C_15 
REMARK    7  A    between atoms: C_14  and  C_16 
REMARK    8  A    between atoms: C_15  and  C_19 
ROOT
HETATM    1  N   UNK N   1      20.672  16.575   6.756  0.00  0.00     0.088 N 
HETATM    2  C   UNK N   1      21.101  15.156   4.287  0.00  0.00     0.065 C 
HETATM    3  C   UNK N   1      19.698  15.751   4.547  0.00  0.00     0.064 C 
HETATM    4  C   UNK N   1      22.068  16.303   4.696  0.00  0.00     0.064 C 
HETATM    5  C   UNK N   1      19.477  16.074   6.050  0.00  0.00     0.275 C 
HETATM    6  C   UNK N   1      21.622  17.218   5.850  0.00  0.00     0.275 C 
ENDROOT
BRANCH   2   7
HETATM    7  N   UNK N   1      21.409  14.746   2.883  0.00  0.00    -0.306 N 
HETATM    8  C   UNK N   1      22.642  14.199   2.546  0.00  0.00     0.224 C 
HETATM    9  O   UNK N   1      23.473  13.942   3.400  0.00  0.00    -0.273 OA
BRANCH   7  10
HETATM   10  C   UNK N   1      20.419  15.047   1.853  0.00  0.00     0.038 A 
HETATM   11  C   UNK N   1      20.393  16.295   1.195  0.00  0.00     0.030 A 
HETATM   12  C   UNK N   1      19.498  16.546   0.151  0.00  0.00     0.002 A 
HETATM   13  C   UNK N   1      18.614  15.553  -0.267  0.00  0.00     0.000 A 
HETATM   14  C   UNK N   1      18.618  14.310   0.363  0.00  0.00     0.002 A 
HETATM   15  C   UNK N   1      19.513  14.061   1.405  0.00  0.00     0.030 A 
ENDBRANCH   7  10
BRANCH   8  16
HETATM   16  C   UNK N   1      23.070  14.025   1.109  0.00  0.00     0.099 C 
HETATM   17  C   UNK N   1      24.505  14.452   0.889  0.00  0.00     0.014 C 
ENDBRANCH   8  16
ENDBRANCH   2   7
BRANCH   2  18
HETATM   18  C   UNK N   1      21.309  13.892   5.160  0.00  0.00     0.198 C 
BRANCH  18  19
HETATM   19  O   UNK N   1      20.396  12.864   4.858  0.00  0.00    -0.393 OA
HETATM   20  C   UNK N   1      20.497  11.922   5.882  0.00  0.00     0.201 C 
ENDBRANCH  18  19
ENDBRANCH   2  18
BRANCH   1  21
HETATM   21  C   UNK N   1      21.362  15.508   7.486  0.00  0.00     0.277 C 
BRANCH  21  22
HETATM   22  C   UNK N   1      20.683  15.161   8.800  0.00  0.00     0.076 C 
BRANCH  22  23
HETATM   23  C   UNK N   1      21.315  13.976   9.436  0.00  0.00    -0.016 A 
HETATM   24  S   UNK N   1      22.842  13.398   9.179  0.00  0.00    -0.106 SA
HETATM   25  C   UNK N   1      22.850  12.136  10.256  0.00  0.00     0.050 A 
HETATM   26  C   UNK N   1      21.587  12.144  10.868  0.00  0.00     0.008 A 
HETATM   27  C   UNK N   1      20.726  13.180  10.409  0.00  0.00     0.015 A 
ENDBRANCH  22  23
ENDBRANCH  21  22
ENDBRANCH   1  21
TORSDOF 8
ENDMDL
MODEL 7
REMARK VINA RESULT:      -5.5     11.829     13.888
REMARK  8 active torsions:
REMARK  status: ('A' for Active; 'I' for Inactive)
REMARK    1  A    between atoms: O_2  and  C_11 
REMARK    2  A    between atoms: N_4  and  C_12 
REMARK    3  A    between atoms: N_5  and  C_6 
REMARK    4  A    between atoms: N_5  and  C_13 
REMARK       I    between atoms: N_5  and  C_14 
REMARK    5  A    between atoms: C_6  and  C_11 
REMARK    6  A    between atoms: C_12  and  C_15 
REMARK    7  A    between atoms: C_14  and  C_16 
REMARK    8  A    between atoms: C_15  and  C_19 
ROOT
HETATM    1  N   UNK N   1      31.751  24.350  -4.676  0.00  0.00     0.088 N 
HETATM    2  C   UNK N   1      28.970  25.030  -4.991  0.00  0.00     0.065 C 
HETATM    3  C   UNK N   1      29.846  25.951  -4.111  0.00  0.00     0.064 C 
HETATM    4  C   UNK N   1      29.849  24.776  -6.248  0.00  0.00     0.064 C 
HETATM    5  C   UNK N   1      31.157  25.248  -3.666  0.00  0.00     0.275 C 
HETATM    6  C   UNK N   1      31.373  24.722  -6.038  0.00  0.00     0.275 C 
ENDROOT
BRANCH   2   7
HETATM    7  N   UNK N   1      27.649  25.576  -5.431  0.00  0.00    -0.306 N 
HETATM    8  C   UNK N   1      26.862  24.900  -6.357  0.00  0.00     0.224 C 
HETATM    9  O   UNK N   1      27.175  23.793  -6.762  0.00  0.00    -0.273 OA
BRANCH   7  10
HETATM   10  C   UNK N   1      27.266  26.900  -4.950  0.00  0.00     0.038 A 
HETATM   11  C   UNK N   1      27.652  28.074  -5.629  0.00  0.00     0.030 A 
HETATM   12  C   UNK N   1      27.210  29.332  -5.212  0.00  0.00     0.002 A 
HETATM   13  C   UNK N   1      26.363  29.447  -4.111  0.00  0.00     0.000 A 
HETATM   14  C   UNK N   1      25.963  28.304  -3.421  0.00  0.00     0.002 A 
HETATM   15  C   UNK N   1      26.405  27.049  -3.840  0.00  0.00     0.030 A 
ENDBRANCH   7  10
BRANCH   8  16
HETATM   16  C   UNK N   1      25.667  25.549  -7.010  0.00  0.00     0.099 C 
HETATM   17  C   UNK N   1      25.993  26.082  -8.388  0.00  0.00     0.014 C 
ENDBRANCH   8  16
ENDBRANCH   2   7
BRANCH   2  18
HETATM   18  C   UNK N   1      28.661  23.715  -4.232  0.00  0.00     0.198 C 
BRANCH  18  19
HETATM   19  O   UNK N   1      27.939  23.927  -3.042  0.00  0.00    -0.393 OA
HETATM   20  C   UNK N   1      28.522  23.119  -2.067  0.00  0.00     0.201 C 
ENDBRANCH  18  19
ENDBRANCH   2  18
BRANCH   1  21
HETATM   21  C   UNK N   1      31.379  22.951  -4.447  0.00  0.00     0.277 C 
BRANCH  21  22
HETATM   22  C   UNK N   1      32.307  21.975  -5.151  0.00  0.00     0.076 C 
BRANCH  22  23
HETATM   23  C   UNK N   1      31.559  21.111  -6.101  0.00  0.00    -0.016 A 
HETATM   24  S   UNK N   1      32.192  20.125  -7.267  0.00  0.00    -0.106 SA
HETATM   25  C   UNK N   1      30.793  19.455  -7.857  0.00  0.00     0.050 A 
HETATM   26  C   UNK N   1      29.749  20.025  -7.112  0.00  0.00     0.008 A 
HETATM   27  C   UNK N   1      30.180  20.953  -6.123  0.00  0.00     0.015 A 
ENDBRANCH  22  23
ENDBRANCH  21  22
ENDBRANCH   1  21
TORSDOF 8
ENDMDL
MODEL 8
REMARK VINA RESULT:      -5.5      1.895      3.862
REMARK  8 active torsions:
REMARK  status: ('A' for Active; 'I' for Inactive)
REMARK    1  A    between atoms: O_2  and  C_11 
REMARK    2  A    between atoms: N_4  and  C_12 
REMARK    3  A    between atoms: N_5  and  C_6 
REMARK    4  A    between atoms: N_5  and  C_13 
REMARK       I    between atoms: N_5  and  C_14 
REMARK    5  A    between atoms: C_6  and  C_11 
REMARK    6  A    between atoms: C_12  and  C_15 
REMARK    7  A    between atoms: C_14  and  C_16 
REMARK    8  A    between atoms: C_15  and  C_19 
ROOT
HETATM    1  N   UNK N   1      31.538  16.313   7.347  0.00  0.00     0.088 N 
HETATM    2  C   UNK N   1      29.596  16.929   5.312  0.00  0.00     0.065 C 
HETATM    3  C   UNK N   1      29.880  15.440   5.616  0.00  0.00     0.064 C 
HETATM    4  C   UNK N   1      29.468  17.574   6.721  0.00  0.00     0.064 C 
HETATM    5  C   UNK N   1      31.223  15.251   6.372  0.00  0.00     0.275 C 
HETATM    6  C   UNK N   1      30.337  16.982   7.845  0.00  0.00     0.275 C 
ENDROOT
BRANCH   2   7
HETATM    7  N   UNK N   1      28.358  17.233   4.531  0.00  0.00    -0.306 N 
HETATM    8  C   UNK N   1      27.887  18.535   4.403  0.00  0.00     0.224 C 
HETATM    9  O   UNK N   1      28.522  19.481   4.837  0.00  0.00    -0.273 OA
BRANCH   7  10
HETATM   10  C   UNK N   1      27.591  16.107   4.005  0.00  0.00     0.038 A 
HETATM   11  C   UNK N   1      26.579  15.483   4.764  0.00  0.00     0.030 A 
HETATM   12  C   UNK N   1      25.792  14.463   4.223  0.00  0.00     0.002 A 
HETATM   13  C   UNK N   1      25.991  14.048   2.908  0.00  0.00     0.000 A 
HETATM   14  C   UNK N   1      26.982  14.646   2.134  0.00  0.00     0.002 A 
HETATM   15  C   UNK N   1      27.767  15.666   2.675  0.00  0.00     0.030 A 
ENDBRANCH   7  10
BRANCH   8  16
HETATM   16  C   UNK N   1      26.514  18.835   3.852  0.00  0.00     0.099 C 
HETATM   17  C   UNK N   1      26.405  20.255   3.342  0.00  0.00     0.014 C 
ENDBRANCH   8  16
ENDBRANCH   2   7
BRANCH   2  18
HETATM   18  C   UNK N   1      30.773  17.537   4.508  0.00  0.00     0.198 C 
BRANCH  18  19
HETATM   19  O   UNK N   1      31.033  16.843   3.311  0.00  0.00    -0.393 OA
HETATM   20  C   UNK N   1      32.398  16.977   3.056  0.00  0.00     0.201 C 
ENDBRANCH  18  19
ENDBRANCH   2  18
BRANCH   1  21
HETATM   21  C   UNK N   1      32.442  17.320   6.785  0.00  0.00     0.277 C 
BRANCH  21  22
HETATM   22  C   UNK N   1      33.869  16.816   6.649  0.00  0.00     0.076 C 
BRANCH  22  23
HETATM   23  C   UNK N   1      34.435  16.440   7.970  0.00  0.00    -0.016 A 
HETATM   24  S   UNK N   1      35.078  14.980   8.404  0.00  0.00    -0.106 SA
HETATM   25  C   UNK N   1      35.546  15.330   9.957  0.00  0.00     0.050 A 
HETATM   26  C   UNK N   1      35.185  16.669  10.176  0.00  0.00     0.008 A 
HETATM   27  C   UNK N   1      34.563  17.293   9.058  0.00  0.00     0.015 A 
ENDBRANCH  22  23
ENDBRANCH  21  22
ENDBRANCH   1  21
TORSDOF 8
ENDMDL
MODEL 9
REMARK VINA RESULT:      -5.4      7.094     10.619
REMARK  8 active torsions:
REMARK  status: ('A' for Active; 'I' for Inactive)
REMARK    1  A    between atoms: O_2  and  C_11 
REMARK    2  A    between atoms: N_4  and  C_12 
REMARK    3  A    between atoms: N_5  and  C_6 
REMARK    4  A    between atoms: N_5  and  C_13 
REMARK       I    between atoms: N_5  and  C_14 
REMARK    5  A    between atoms: C_6  and  C_11 
REMARK    6  A    between atoms: C_12  and  C_15 
REMARK    7  A    between atoms: C_14  and  C_16 
REMARK    8  A    between atoms: C_15  and  C_19 
ROOT
HETATM    1  N   UNK N   1      20.647  15.846   5.990  0.00  0.00     0.088 N 
HETATM    2  C   UNK N   1      22.357  13.744   6.967  0.00  0.00     0.065 C 
HETATM    3  C   UNK N   1      21.837  14.788   7.984  0.00  0.00     0.064 C 
HETATM    4  C   UNK N   1      21.097  13.387   6.130  0.00  0.00     0.064 C 
HETATM    5  C   UNK N   1      21.328  16.075   7.280  0.00  0.00     0.275 C 
HETATM    6  C   UNK N   1      20.067  14.507   5.899  0.00  0.00     0.275 C 
ENDROOT
BRANCH   2   7
HETATM    7  N   UNK N   1      22.932  12.484   7.531  0.00  0.00    -0.306 N 
HETATM    8  C   UNK N   1      23.215  11.394   6.715  0.00  0.00     0.224 C 
HETATM    9  O   UNK N   1      23.097  11.464   5.504  0.00  0.00    -0.273 OA
BRANCH   7  10
HETATM   10  C   UNK N   1      23.078  12.391   8.980  0.00  0.00     0.038 A 
HETATM   11  C   UNK N   1      21.965  12.192   9.824  0.00  0.00     0.030 A 
HETATM   12  C   UNK N   1      22.121  12.017  11.201  0.00  0.00     0.002 A 
HETATM   13  C   UNK N   1      23.394  12.028  11.769  0.00  0.00     0.000 A 
HETATM   14  C   UNK N   1      24.513  12.221  10.960  0.00  0.00     0.002 A 
HETATM   15  C   UNK N   1      24.355  12.395   9.584  0.00  0.00     0.030 A 
ENDBRANCH   7  10
BRANCH   8  16
HETATM   16  C   UNK N   1      23.541  10.036   7.288  0.00  0.00     0.099 C 
HETATM   17  C   UNK N   1      23.138   8.915   6.355  0.00  0.00     0.014 C 
ENDBRANCH   8  16
ENDBRANCH   2   7
BRANCH   2  18
HETATM   18  C   UNK N   1      23.470  14.372   6.090  0.00  0.00     0.198 C 
BRANCH  18  19
HETATM   19  O   UNK N   1      24.568  14.827   6.844  0.00  0.00    -0.393 OA
HETATM   20  C   UNK N   1      25.716  14.343   6.218  0.00  0.00     0.201 C 
ENDBRANCH  18  19
ENDBRANCH   2  18
BRANCH   1  21
HETATM   21  C   UNK N   1      21.551  16.048   4.854  0.00  0.00     0.277 C 
BRANCH  21  22
HETATM   22  C   UNK N   1      20.811  16.372   3.567  0.00  0.00     0.076 C 
BRANCH  22  23
HETATM   23  C   UNK N   1      21.000  17.795   3.181  0.00  0.00    -0.016 A 
HETATM   24  S   UNK N   1      22.158  18.836   3.735  0.00  0.00    -0.106 SA
HETATM   25  C   UNK N   1      21.785  20.177   2.831  0.00  0.00     0.050 A 
HETATM   26  C   UNK N   1      20.685  19.813   2.038  0.00  0.00     0.008 A 
HETATM   27  C   UNK N   1      20.246  18.473   2.233  0.00  0.00     0.015 A 
ENDBRANCH  22  23
ENDBRANCH  21  22
ENDBRANCH   1  21
TORSDOF 8
ENDMDL
