MODEL 1
REMARK VINA RESULT:      -5.2      0.000      0.000
REMARK  4 active torsions:
REMARK  status: ('A' for Active; 'I' for Inactive)
REMARK    1  A    between atoms: O_3  and  C_12 
REMARK    2  A    between atoms: C_9  and  N_5 
REMARK    3  A    between atoms: N_8  and  C_16 
REMARK    4  A    between atoms: C_11  and  C_12 
ROOT
HETATM    1  O   UNK N   1      29.231  18.590   9.845  0.00  0.00    -0.246 OA
HETATM    2  N   UNK N   1      29.800  17.845   7.786  0.00  0.00    -0.281 N 
HETATM    3  N   UNK N   1      27.830  19.134   8.188  0.00  0.00    -0.295 N 
ATOM      4  HN  UNK N   1      27.220  19.626   8.838  1.00  0.00     0.172 HD
HETATM    5  C   UNK N   1      29.482  17.795   6.459  0.00  0.00     0.102 A 
HETATM    6  C   UNK N   1      28.965  18.523   8.657  0.00  0.00     0.330 A 
HETATM    7  C   UNK N   1      28.332  18.416   5.977  0.00  0.00     0.065 A 
HETATM    8  C   UNK N   1      27.510  19.092   6.871  0.00  0.00     0.103 A 
ENDROOT
BRANCH   2   9
HETATM    9  C   UNK N   1      31.049  17.232   8.268  0.00  0.00     0.242 C 
HETATM   10  O   UNK N   1      32.108  18.147   8.326  0.00  0.00    -0.348 OA
HETATM   11  C   UNK N   1      33.230  17.397   8.723  0.00  0.00     0.209 C 
HETATM   12  S   UNK N   1      33.087  15.667   8.138  0.00  0.00    -0.131 SA
HETATM   13  C   UNK N   1      31.508  16.092   7.400  0.00  0.00     0.131 C 
BRANCH  11  14
HETATM   14  C   UNK N   1      34.479  18.024   8.128  0.00  0.00     0.207 C 
BRANCH  14  15
HETATM   15  O   UNK N   1      34.458  17.896   6.739  0.00  0.00    -0.398 OA
HETATM   16  H   UNK N   1      34.519  18.670   6.158  0.00  0.00     0.209 HD
ENDBRANCH  14  15
ENDBRANCH  11  14
ENDBRANCH   2   9
BRANCH   8  17
HETATM   17  N   UNK N   1      26.349  19.743   6.409  0.00  0.00    -0.385 N 
HETATM   18  H   UNK N   1      26.401  20.374   5.655  0.00  0.00     0.157 HD
HETATM   19  H   UNK N   1      25.482  19.566   6.841  0.00  0.00     0.157 HD
ENDBRANCH   8  17
TORSDOF 4
ENDMDL
MODEL 2
REMARK VINA RESULT:      -5.2      5.676      8.019
REMARK  4 active torsions:
REMARK  status: ('A' for Active; 'I' for Inactive)
REMARK    1  A    between atoms: O_3  and  C_12 
REMARK    2  A    between atoms: C_9  and  N_5 
REMARK    3  A    between atoms: N_8  and  C_16 
REMARK    4  A    between atoms: C_11  and  C_12 
ROOT
HETATM    1  O   UNK N   1      37.576  14.142   9.458  0.00  0.00    -0.246 OA
HETATM    2  N   UNK N   1      35.585  14.563  10.448  0.00  0.00    -0.281 N 
HETATM    3  N   UNK N   1      37.418  13.575  11.616  0.00  0.00    -0.295 N 
ATOM      4  HN  UNK N   1      38.376  13.227  11.615  1.00  0.00     0.172 HD
HETATM    5  C   UNK N   1      34.841  14.506  11.591  0.00  0.00     0.102 A 
HETATM    6  C   UNK N   1      36.887  14.093  10.463  0.00  0.00     0.330 A 
HETATM    7  C   UNK N   1      35.377  13.982  12.765  0.00  0.00     0.065 A 
HETATM    8  C   UNK N   1      36.687  13.518  12.756  0.00  0.00     0.103 A 
ENDROOT
BRANCH   2   9
HETATM    9  C   UNK N   1      35.021  15.173   9.231  0.00  0.00     0.242 C 
HETATM   10  O   UNK N   1      35.278  16.548   9.152  0.00  0.00    -0.348 OA
HETATM   11  C   UNK N   1      34.615  16.986   7.991  0.00  0.00     0.209 C 
HETATM   12  S   UNK N   1      33.134  15.957   7.669  0.00  0.00    -0.131 SA
HETATM   13  C   UNK N   1      33.530  15.004   9.136  0.00  0.00     0.131 C 
BRANCH  11  14
HETATM   14  C   UNK N   1      34.188  18.431   8.182  0.00  0.00     0.207 C 
BRANCH  14  15
HETATM   15  O   UNK N   1      35.298  19.215   8.496  0.00  0.00    -0.398 OA
HETATM   16  H   UNK N   1      35.310  20.170   8.326  0.00  0.00     0.209 HD
ENDBRANCH  14  15
ENDBRANCH  11  14
ENDBRANCH   2   9
BRANCH   8  17
HETATM   17  N   UNK N   1      37.259  12.998  13.933  0.00  0.00    -0.385 N 
HETATM   18  H   UNK N   1      37.563  12.062  13.966  0.00  0.00     0.157 HD
HETATM   19  H   UNK N   1      37.358  13.573  14.727  0.00  0.00     0.157 HD
ENDBRANCH   8  17
TORSDOF 4
ENDMDL
MODEL 3
REMARK VINA RESULT:      -5.1      9.321     10.760
REMARK  4 active torsions:
REMARK  status: ('A' for Active; 'I' for Inactive)
REMARK    1  A    between atoms: O_3  and  C_12 
REMARK    2  A    between atoms: C_9  and  N_5 
REMARK    3  A    between atoms: N_8  and  C_16 
REMARK    4  A    between atoms: C_11  and  C_12 
ROOT
HETATM    1  O   UNK N   1      20.009  16.757   1.993  0.00  0.00    -0.246 OA
HETATM    2  N   UNK N   1      21.257  18.159   3.255  0.00  0.00    -0.281 N 
HETATM    3  N   UNK N   1      20.238  18.838   1.206  0.00  0.00    -0.295 N 
ATOM      4  HN  UNK N   1      19.671  18.612   0.390  1.00  0.00     0.172 HD
HETATM    5  C   UNK N   1      21.767  19.417   3.404  0.00  0.00     0.102 A 
HETATM    6  C   UNK N   1      20.483  17.869   2.145  0.00  0.00     0.330 A 
HETATM    7  C   UNK N   1      21.518  20.405   2.454  0.00  0.00     0.065 A 
HETATM    8  C   UNK N   1      20.737  20.090   1.348  0.00  0.00     0.103 A 
ENDROOT
BRANCH   2   9
HETATM    9  C   UNK N   1      21.483  17.144   4.299  0.00  0.00     0.242 C 
HETATM   10  O   UNK N   1      20.567  17.246   5.353  0.00  0.00    -0.348 OA
HETATM   11  C   UNK N   1      20.963  16.272   6.289  0.00  0.00     0.209 C 
HETATM   12  S   UNK N   1      22.773  16.003   6.210  0.00  0.00    -0.131 SA
HETATM   13  C   UNK N   1      22.856  17.233   4.907  0.00  0.00     0.131 C 
BRANCH  11  14
HETATM   14  C   UNK N   1      20.587  16.744   7.682  0.00  0.00     0.207 C 
BRANCH  14  15
HETATM   15  O   UNK N   1      20.642  18.137   7.741  0.00  0.00    -0.398 OA
HETATM   16  H   UNK N   1      19.855  18.667   7.943  0.00  0.00     0.209 HD
ENDBRANCH  14  15
ENDBRANCH  11  14
ENDBRANCH   2   9
BRANCH   8  17
HETATM   17  N   UNK N   1      20.456  21.074   0.380  0.00  0.00    -0.385 N 
HETATM   18  H   UNK N   1      21.190  21.561  -0.061  0.00  0.00     0.157 HD
HETATM   19  H   UNK N   1      19.522  21.275   0.142  0.00  0.00     0.157 HD
ENDBRANCH   8  17
TORSDOF 4
ENDMDL
MODEL 4
REMARK VINA RESULT:      -5.1     10.155     11.529
REMARK  4 active torsions:
REMARK  status: ('A' for Active; 'I' for Inactive)
REMARK    1  A    between atoms: O_3  and  C_12 
REMARK    2  A    between atoms: C_9  and  N_5 
REMARK    3  A    between atoms: N_8  and  C_16 
REMARK    4  A    between atoms: C_11  and  C_12 
ROOT
HETATM    1  O   UNK N   1      19.332  14.174   9.932  0.00  0.00    -0.246 OA
HETATM    2  N   UNK N   1      21.263  14.261   8.757  0.00  0.00    -0.281 N 
HETATM    3  N   UNK N   1      20.958  12.801  10.620  0.00  0.00    -0.295 N 
ATOM      4  HN  UNK N   1      20.367  12.446  11.371  1.00  0.00     0.172 HD
HETATM    5  C   UNK N   1      22.530  13.778   8.600  0.00  0.00     0.102 A 
HETATM    6  C   UNK N   1      20.470  13.766   9.777  0.00  0.00     0.330 A 
HETATM    7  C   UNK N   1      23.029  12.796   9.453  0.00  0.00     0.065 A 
HETATM    8  C   UNK N   1      22.214  12.313  10.470  0.00  0.00     0.103 A 
ENDROOT
BRANCH   2   9
HETATM    9  C   UNK N   1      20.732  15.258   7.810  0.00  0.00     0.242 C 
HETATM   10  O   UNK N   1      19.817  14.704   6.906  0.00  0.00    -0.348 OA
HETATM   11  C   UNK N   1      19.470  15.752   6.035  0.00  0.00     0.209 C 
HETATM   12  S   UNK N   1      20.862  16.930   5.860  0.00  0.00    -0.131 SA
HETATM   13  C   UNK N   1      21.811  15.910   6.989  0.00  0.00     0.131 C 
BRANCH  11  14
HETATM   14  C   UNK N   1      19.132  15.171   4.673  0.00  0.00     0.207 C 
BRANCH  14  15
HETATM   15  O   UNK N   1      18.180  14.161   4.812  0.00  0.00    -0.398 OA
HETATM   16  H   UNK N   1      17.334  14.320   5.260  0.00  0.00     0.209 HD
ENDBRANCH  14  15
ENDBRANCH  11  14
ENDBRANCH   2   9
BRANCH   8  17
HETATM   17  N   UNK N   1      22.686  11.309  11.337  0.00  0.00    -0.385 N 
HETATM   18  H   UNK N   1      22.268  10.417  11.338  0.00  0.00     0.157 HD
HETATM   19  H   UNK N   1      23.438  11.498  11.944  0.00  0.00     0.157 HD
ENDBRANCH   8  17
TORSDOF 4
ENDMDL
MODEL 5
REMARK VINA RESULT:      -5.0     12.506     13.964
REMARK  4 active torsions:
REMARK  status: ('A' for Active; 'I' for Inactive)
REMARK    1  A    between atoms: O_3  and  C_12 
REMARK    2  A    between atoms: C_9  and  N_5 
REMARK    3  A    between atoms: N_8  and  C_16 
REMARK    4  A    between atoms: C_11  and  C_12 
ROOT
HETATM    1  O   UNK N   1      30.449  23.102  -1.657  0.00  0.00    -0.246 OA
HETATM    2  N   UNK N   1      29.680  22.995  -3.782  0.00  0.00    -0.281 N 
HETATM    3  N   UNK N   1      31.222  21.405  -2.892  0.00  0.00    -0.295 N 
ATOM      4  HN  UNK N   1      31.790  21.072  -2.114  1.00  0.00     0.172 HD
HETATM    5  C   UNK N   1      29.695  22.325  -4.973  0.00  0.00     0.102 A 
HETATM    6  C   UNK N   1      30.451  22.528  -2.733  0.00  0.00     0.330 A 
HETATM    7  C   UNK N   1      30.475  21.183  -5.138  0.00  0.00     0.065 A 
HETATM    8  C   UNK N   1      31.240  20.732  -4.069  0.00  0.00     0.103 A 
ENDROOT
BRANCH   2   9
HETATM    9  C   UNK N   1      28.805  24.167  -3.608  0.00  0.00     0.242 C 
HETATM   10  O   UNK N   1      27.506  23.942  -4.079  0.00  0.00    -0.348 OA
HETATM   11  C   UNK N   1      26.830  25.164  -3.915  0.00  0.00     0.209 C 
HETATM   12  S   UNK N   1      27.998  26.569  -4.055  0.00  0.00    -0.131 SA
HETATM   13  C   UNK N   1      29.320  25.386  -4.323  0.00  0.00     0.131 C 
BRANCH  11  14
HETATM   14  C   UNK N   1      25.766  25.289  -4.991  0.00  0.00     0.207 C 
BRANCH  14  15
HETATM   15  O   UNK N   1      25.442  24.026  -5.486  0.00  0.00    -0.398 OA
HETATM   16  H   UNK N   1      25.842  23.683  -6.300  0.00  0.00     0.209 HD
ENDBRANCH  14  15
ENDBRANCH  11  14
ENDBRANCH   2   9
BRANCH   8  17
HETATM   17  N   UNK N   1      32.025  19.571  -4.203  0.00  0.00    -0.385 N 
HETATM   18  H   UNK N   1      32.059  19.091  -5.062  0.00  0.00     0.157 HD
HETATM   19  H   UNK N   1      32.543  19.237  -3.435  0.00  0.00     0.157 HD
ENDBRANCH   8  17
TORSDOF 4
ENDMDL
MODEL 6
REMARK VINA RESULT:      -5.0      4.371      6.972
REMARK  4 active torsions:
REMARK  status: ('A' for Active; 'I' for Inactive)
REMARK    1  A    between atoms: O_3  and  C_12 
REMARK    2  A    between atoms: C_9  and  N_5 
REMARK    3  A    between atoms: N_8  and  C_16 
REMARK    4  A    between atoms: C_11  and  C_12 
ROOT
HETATM    1  O   UNK N   1      35.653  17.543  10.167  0.00  0.00    -0.246 OA
HETATM    2  N   UNK N   1      34.581  15.558  10.000  0.00  0.00    -0.281 N 
HETATM    3  N   UNK N   1      36.140  16.034  11.744  0.00  0.00    -0.295 N 
ATOM      4  HN  UNK N   1      36.794  16.678  12.187  1.00  0.00     0.172 HD
HETATM    5  C   UNK N   1      34.385  14.315  10.530  0.00  0.00     0.102 A 
HETATM    6  C   UNK N   1      35.468  16.425  10.615  0.00  0.00     0.330 A 
HETATM    7  C   UNK N   1      35.065  13.914  11.678  0.00  0.00     0.065 A 
HETATM    8  C   UNK N   1      35.948  14.803  12.279  0.00  0.00     0.103 A 
ENDROOT
BRANCH   2   9
HETATM    9  C   UNK N   1      33.811  15.985   8.819  0.00  0.00     0.242 C 
HETATM   10  O   UNK N   1      32.816  16.918   9.136  0.00  0.00    -0.348 OA
HETATM   11  C   UNK N   1      32.131  17.160   7.932  0.00  0.00     0.209 C 
HETATM   12  S   UNK N   1      32.174  15.675   6.859  0.00  0.00    -0.131 SA
HETATM   13  C   UNK N   1      33.125  14.838   8.128  0.00  0.00     0.131 C 
BRANCH  11  14
HETATM   14  C   UNK N   1      30.686  17.508   8.246  0.00  0.00     0.207 C 
BRANCH  14  15
HETATM   15  O   UNK N   1      30.598  18.043   9.531  0.00  0.00    -0.398 OA
HETATM   16  H   UNK N   1      30.213  17.539  10.265  0.00  0.00     0.209 HD
ENDBRANCH  14  15
ENDBRANCH  11  14
ENDBRANCH   2   9
BRANCH   8  17
HETATM   17  N   UNK N   1      36.637  14.430  13.450  0.00  0.00    -0.385 N 
HETATM   18  H   UNK N   1      36.264  13.742  14.048  0.00  0.00     0.157 HD
HETATM   19  H   UNK N   1      37.495  14.859  13.673  0.00  0.00     0.157 HD
ENDBRANCH   8  17
TORSDOF 4
ENDMDL
MODEL 7
REMARK VINA RESULT:      -4.9      2.059      2.840
REMARK  4 active torsions:
REMARK  status: ('A' for Active; 'I' for Inactive)
REMARK    1  A    between atoms: O_3  and  C_12 
REMARK    2  A    between atoms: C_9  and  N_5 
REMARK    3  A    between atoms: N_8  and  C_16 
REMARK    4  A    between atoms: C_11  and  C_12 
ROOT
HETATM    1  O   UNK N   1      30.198  16.886   5.656  0.00  0.00    -0.246 OA
HETATM    2  N   UNK N   1      30.752  17.277   7.815  0.00  0.00    -0.281 N 
HETATM    3  N   UNK N   1      28.791  18.191   6.806  0.00  0.00    -0.295 N 
ATOM      4  HN  UNK N   1      28.193  18.301   5.988  1.00  0.00     0.172 HD
HETATM    5  C   UNK N   1      30.420  17.889   8.989  0.00  0.00     0.102 A 
HETATM    6  C   UNK N   1      29.928  17.430   6.714  0.00  0.00     0.330 A 
HETATM    7  C   UNK N   1      29.264  18.661   9.088  0.00  0.00     0.065 A 
HETATM    8  C   UNK N   1      28.451  18.799   7.969  0.00  0.00     0.103 A 
ENDROOT
BRANCH   2   9
HETATM    9  C   UNK N   1      31.947  16.418   7.745  0.00  0.00     0.242 C 
HETATM   10  O   UNK N   1      32.100  15.618   8.884  0.00  0.00    -0.348 OA
HETATM   11  C   UNK N   1      33.311  14.927   8.698  0.00  0.00     0.209 C 
HETATM   12  S   UNK N   1      34.471  15.923   7.689  0.00  0.00    -0.131 SA
HETATM   13  C   UNK N   1      33.219  17.205   7.594  0.00  0.00     0.131 C 
BRANCH  11  14
HETATM   14  C   UNK N   1      33.936  14.651  10.054  0.00  0.00     0.207 C 
BRANCH  14  15
HETATM   15  O   UNK N   1      33.066  15.052  11.067  0.00  0.00    -0.398 OA
HETATM   16  H   UNK N   1      33.077  14.632  11.941  0.00  0.00     0.209 HD
ENDBRANCH  14  15
ENDBRANCH  11  14
ENDBRANCH   2   9
BRANCH   8  17
HETATM   17  N   UNK N   1      27.269  19.561   8.045  0.00  0.00    -0.385 N 
HETATM   18  H   UNK N   1      26.424  19.203   7.686  0.00  0.00     0.157 HD
HETATM   19  H   UNK N   1      27.286  20.454   8.459  0.00  0.00     0.157 HD
ENDBRANCH   8  17
TORSDOF 4
ENDMDL
MODEL 8
REMARK VINA RESULT:      -4.8      9.881     11.604
REMARK  4 active torsions:
REMARK  status: ('A' for Active; 'I' for Inactive)
REMARK    1  A    between atoms: O_3  and  C_12 
REMARK    2  A    between atoms: C_9  and  N_5 
REMARK    3  A    between atoms: N_8  and  C_16 
REMARK    4  A    between atoms: C_11  and  C_12 
ROOT
HETATM    1  O   UNK N   1      35.759  10.140  16.654  0.00  0.00    -0.246 OA
HETATM    2  N   UNK N   1      35.452  12.353  16.300  0.00  0.00    -0.281 N 
HETATM    3  N   UNK N   1      35.454  11.389  18.484  0.00  0.00    -0.295 N 
ATOM      4  HN  UNK N   1      35.531  10.567  19.082  1.00  0.00     0.172 HD
HETATM    5  C   UNK N   1      35.239  13.583  16.856  0.00  0.00     0.102 A 
HETATM    6  C   UNK N   1      35.561  11.247  17.125  0.00  0.00     0.330 A 
HETATM    7  C   UNK N   1      35.132  13.732  18.237  0.00  0.00     0.065 A 
HETATM    8  C   UNK N   1      35.247  12.607  19.044  0.00  0.00     0.103 A 
ENDROOT
BRANCH   2   9
HETATM    9  C   UNK N   1      35.619  12.223  14.842  0.00  0.00     0.242 C 
HETATM   10  O   UNK N   1      35.899  13.447  14.223  0.00  0.00    -0.348 OA
HETATM   11  C   UNK N   1      35.951  13.168  12.845  0.00  0.00     0.209 C 
HETATM   12  S   UNK N   1      34.845  11.767  12.432  0.00  0.00    -0.131 SA
HETATM   13  C   UNK N   1      34.397  11.664  14.166  0.00  0.00     0.131 C 
BRANCH  11  14
HETATM   14  C   UNK N   1      35.509  14.399  12.074  0.00  0.00     0.207 C 
BRANCH  14  15
HETATM   15  O   UNK N   1      34.148  14.311  11.781  0.00  0.00    -0.398 OA
HETATM   16  H   UNK N   1      33.711  14.954  11.202  0.00  0.00     0.209 HD
ENDBRANCH  14  15
ENDBRANCH  11  14
ENDBRANCH   2   9
BRANCH   8  17
HETATM   17  N   UNK N   1      35.159  12.731  20.444  0.00  0.00    -0.385 N 
HETATM   18  H   UNK N   1      34.890  13.586  20.851  0.00  0.00     0.157 HD
HETATM   19  H   UNK N   1      35.367  11.959  21.019  0.00  0.00     0.157 HD
ENDBRANCH   8  17
TORSDOF 4
ENDMDL
MODEL 9
REMARK VINA RESULT:      -4.8      3.048      5.966
REMARK  4 active torsions:
REMARK  status: ('A' for Active; 'I' for Inactive)
REMARK    1  A    between atoms: O_3  and  C_12 
REMARK    2  A    between atoms: C_9  and  N_5 
REMARK    3  A    between atoms: N_8  and  C_16 
REMARK    4  A    between atoms: C_11  and  C_12 
ROOT
HETATM    1  O   UNK N   1      33.866  18.314   7.384  0.00  0.00    -0.246 OA
HETATM    2  N   UNK N   1      32.588  16.680   8.286  0.00  0.00    -0.281 N 
HETATM    3  N   UNK N   1      34.917  16.900   8.762  0.00  0.00    -0.295 N 
ATOM      4  HN  UNK N   1      35.800  17.390   8.622  1.00  0.00     0.172 HD
HETATM    5  C   UNK N   1      32.533  15.595   9.115  0.00  0.00     0.102 A 
HETATM    6  C   UNK N   1      33.793  17.338   8.111  0.00  0.00     0.330 A 
HETATM    7  C   UNK N   1      33.673  15.149   9.781  0.00  0.00     0.065 A 
HETATM    8  C   UNK N   1      34.871  15.827   9.590  0.00  0.00     0.103 A 
ENDROOT
BRANCH   2   9
HETATM    9  C   UNK N   1      31.362  17.172   7.636  0.00  0.00     0.242 C 
HETATM   10  O   UNK N   1      30.313  17.364   8.544  0.00  0.00    -0.348 OA
HETATM   11  C   UNK N   1      29.208  17.753   7.764  0.00  0.00     0.209 C 
HETATM   12  S   UNK N   1      29.310  17.015   6.091  0.00  0.00    -0.131 SA
HETATM   13  C   UNK N   1      30.851  16.235   6.576  0.00  0.00     0.131 C 
BRANCH  11  14
HETATM   14  C   UNK N   1      27.934  17.282   8.443  0.00  0.00     0.207 C 
BRANCH  14  15
HETATM   15  O   UNK N   1      27.509  18.235   9.368  0.00  0.00    -0.398 OA
HETATM   16  H   UNK N   1      27.803  18.212  10.292  0.00  0.00     0.209 HD
ENDBRANCH  14  15
ENDBRANCH  11  14
ENDBRANCH   2   9
BRANCH   8  17
HETATM   17  N   UNK N   1      36.034  15.408  10.263  0.00  0.00    -0.385 N 
HETATM   18  H   UNK N   1      35.967  14.846  11.069  0.00  0.00     0.157 HD
HETATM   19  H   UNK N   1      36.920  15.676   9.926  0.00  0.00     0.157 HD
ENDBRANCH   8  17
TORSDOF 4
ENDMDL
