MODEL 1
REMARK VINA RESULT:      -5.2      0.000      0.000
REMARK  14 active torsions:
REMARK  status: ('A' for Active; 'I' for Inactive)
REMARK    1  A    between atoms: P_1  and  O_4 
REMARK    2  A    between atoms: P_1  and  O_5 
REMARK    3  A    between atoms: P_1  and  C_11 
REMARK    4  A    between atoms: P_2  and  O_6 
REMARK    5  A    between atoms: P_2  and  O_7 
REMARK    6  A    between atoms: P_2  and  C_11 
REMARK    7  A    between atoms: O_3  and  C_11 
REMARK    8  A    between atoms: N_10  and  C_13 
REMARK    9  A    between atoms: N_10  and  C_14 
REMARK   10  A    between atoms: C_11  and  C_12 
REMARK   11  A    between atoms: C_12  and  C_13 
REMARK   12  A    between atoms: C_14  and  C_15 
REMARK   13  A    between atoms: C_15  and  C_16 
REMARK   14  A    between atoms: C_16  and  C_18 
ROOT
HETATM    1  C   UNK N   1      32.492  16.567   8.045  0.00  0.00     0.253 C 
ENDROOT
BRANCH   1   2
HETATM    2  P   UNK N   1      33.029  15.092   9.060  0.00  0.00     0.283 P 
HETATM    3  O   UNK N   1      34.576  14.963   9.121  0.00  0.00    -0.651 OA
BRANCH   2   4
HETATM    4  O   UNK N   1      32.497  13.563   8.435  0.00  0.00    -0.327 OA
HETATM    5  H   UNK N   1      32.188  13.389   7.533  0.00  0.00     0.220 HD
ENDBRANCH   2   4
BRANCH   2   6
HETATM    6  O   UNK N   1      32.540  15.142  10.724  0.00  0.00    -0.327 OA
HETATM    7  H   UNK N   1      31.746  14.695  11.056  0.00  0.00     0.220 HD
ENDBRANCH   2   6
ENDBRANCH   1   2
BRANCH   1   8
HETATM    8  P   UNK N   1      33.925  17.231   7.044  0.00  0.00     0.283 P 
HETATM    9  O   UNK N   1      33.434  17.807   5.690  0.00  0.00    -0.651 OA
BRANCH   8  10
HETATM   10  O   UNK N   1      35.097  16.035   6.587  0.00  0.00    -0.327 OA
HETATM   11  H   UNK N   1      36.047  16.105   6.407  0.00  0.00     0.220 HD
ENDBRANCH   8  10
BRANCH   8  12
HETATM   12  O   UNK N   1      34.807  18.542   7.767  0.00  0.00    -0.327 OA
HETATM   13  H   UNK N   1      35.304  19.359   7.602  0.00  0.00     0.220 HD
ENDBRANCH   8  12
ENDBRANCH   1   8
BRANCH   1  14
HETATM   14  O   UNK N   1      32.068  17.564   8.925  0.00  0.00    -0.368 OA
HETATM   15  H   UNK N   1      31.623  17.768   9.761  0.00  0.00     0.212 HD
ENDBRANCH   1  14
BRANCH   1  16
HETATM   16  C   UNK N   1      31.321  16.196   7.132  0.00  0.00     0.094 C 
BRANCH  16  17
HETATM   17  C   UNK N   1      30.262  17.290   7.068  0.00  0.00     0.276 C 
BRANCH  17  18
HETATM   18  N   UNK N   1      29.840  17.504   5.697  0.00  0.00     0.084 N 
HETATM   19  C   UNK N   1      29.956  16.223   5.023  0.00  0.00     0.309 C 
BRANCH  18  20
HETATM   20  C   UNK N   1      28.426  17.839   5.748  0.00  0.00     0.271 C 
BRANCH  20  21
HETATM   21  C   UNK N   1      28.027  18.606   4.499  0.00  0.00     0.030 C 
BRANCH  21  22
HETATM   22  C   UNK N   1      27.937  20.093   4.792  0.00  0.00     0.001 C 
BRANCH  22  23
HETATM   23  C   UNK N   1      27.520  20.324   6.232  0.00  0.00    -0.005 C 
HETATM   24  C   UNK N   1      26.790  21.644   6.341  0.00  0.00     0.005 C 
ENDBRANCH  22  23
ENDBRANCH  21  22
ENDBRANCH  20  21
ENDBRANCH  18  20
ENDBRANCH  17  18
ENDBRANCH  16  17
ENDBRANCH   1  16
TORSDOF 14
ENDMDL
MODEL 2
REMARK VINA RESULT:      -5.2      2.213      3.908
REMARK  14 active torsions:
REMARK  status: ('A' for Active; 'I' for Inactive)
REMARK    1  A    between atoms: P_1  and  O_4 
REMARK    2  A    between atoms: P_1  and  O_5 
REMARK    3  A    between atoms: P_1  and  C_11 
REMARK    4  A    between atoms: P_2  and  O_6 
REMARK    5  A    between atoms: P_2  and  O_7 
REMARK    6  A    between atoms: P_2  and  C_11 
REMARK    7  A    between atoms: O_3  and  C_11 
REMARK    8  A    between atoms: N_10  and  C_13 
REMARK    9  A    between atoms: N_10  and  C_14 
REMARK   10  A    between atoms: C_11  and  C_12 
REMARK   11  A    between atoms: C_12  and  C_13 
REMARK   12  A    between atoms: C_14  and  C_15 
REMARK   13  A    between atoms: C_15  and  C_16 
REMARK   14  A    between atoms: C_16  and  C_18 
ROOT
HETATM    1  C   UNK N   1      34.165  15.974   8.364  0.00  0.00     0.253 C 
ENDROOT
BRANCH   1   2
HETATM    2  P   UNK N   1      34.062  17.777   7.881  0.00  0.00     0.283 P 
HETATM    3  O   UNK N   1      32.710  18.414   8.303  0.00  0.00    -0.651 OA
BRANCH   2   4
HETATM    4  O   UNK N   1      34.156  18.065   6.172  0.00  0.00    -0.327 OA
HETATM    5  H   UNK N   1      34.963  18.064   5.634  0.00  0.00     0.220 HD
ENDBRANCH   2   4
BRANCH   2   6
HETATM    6  O   UNK N   1      35.260  18.793   8.618  0.00  0.00    -0.327 OA
HETATM    7  H   UNK N   1      36.209  18.596   8.593  0.00  0.00     0.220 HD
ENDBRANCH   2   6
ENDBRANCH   1   2
BRANCH   1   8
HETATM    8  P   UNK N   1      34.663  15.804  10.159  0.00  0.00     0.283 P 
HETATM    9  O   UNK N   1      35.927  14.915  10.300  0.00  0.00    -0.651 OA
BRANCH   8  10
HETATM   10  O   UNK N   1      33.485  15.013  11.158  0.00  0.00    -0.327 OA
HETATM   11  H   UNK N   1      33.553  14.237  11.735  0.00  0.00     0.220 HD
ENDBRANCH   8  10
BRANCH   8  12
HETATM   12  O   UNK N   1      35.091  17.280  10.966  0.00  0.00    -0.327 OA
HETATM   13  H   UNK N   1      34.814  17.948  11.615  0.00  0.00     0.220 HD
ENDBRANCH   8  12
ENDBRANCH   1   8
BRANCH   1  14
HETATM   14  O   UNK N   1      35.146  15.371   7.575  0.00  0.00    -0.368 OA
HETATM   15  H   UNK N   1      36.079  15.360   7.314  0.00  0.00     0.212 HD
ENDBRANCH   1  14
BRANCH   1  16
HETATM   16  C   UNK N   1      32.832  15.269   8.104  0.00  0.00     0.094 C 
BRANCH  16  17
HETATM   17  C   UNK N   1      32.798  14.565   6.752  0.00  0.00     0.276 C 
BRANCH  17  18
HETATM   18  N   UNK N   1      31.793  15.165   5.896  0.00  0.00     0.084 N 
HETATM   19  C   UNK N   1      31.083  14.069   5.260  0.00  0.00     0.309 C 
BRANCH  18  20
HETATM   20  C   UNK N   1      30.851  15.839   6.774  0.00  0.00     0.271 C 
BRANCH  20  21
HETATM   21  C   UNK N   1      30.095  16.910   6.006  0.00  0.00     0.030 C 
BRANCH  21  22
HETATM   22  C   UNK N   1      29.334  17.813   6.959  0.00  0.00     0.001 C 
BRANCH  22  23
HETATM   23  C   UNK N   1      29.387  17.258   8.370  0.00  0.00    -0.005 C 
HETATM   24  C   UNK N   1      28.572  18.139   9.291  0.00  0.00     0.005 C 
ENDBRANCH  22  23
ENDBRANCH  21  22
ENDBRANCH  20  21
ENDBRANCH  18  20
ENDBRANCH  17  18
ENDBRANCH  16  17
ENDBRANCH   1  16
TORSDOF 14
ENDMDL
MODEL 3
REMARK VINA RESULT:      -5.2      1.480      3.273
REMARK  14 active torsions:
REMARK  status: ('A' for Active; 'I' for Inactive)
REMARK    1  A    between atoms: P_1  and  O_4 
REMARK    2  A    between atoms: P_1  and  O_5 
REMARK    3  A    between atoms: P_1  and  C_11 
REMARK    4  A    between atoms: P_2  and  O_6 
REMARK    5  A    between atoms: P_2  and  O_7 
REMARK    6  A    between atoms: P_2  and  C_11 
REMARK    7  A    between atoms: O_3  and  C_11 
REMARK    8  A    between atoms: N_10  and  C_13 
REMARK    9  A    between atoms: N_10  and  C_14 
REMARK   10  A    between atoms: C_11  and  C_12 
REMARK   11  A    between atoms: C_12  and  C_13 
REMARK   12  A    between atoms: C_14  and  C_15 
REMARK   13  A    between atoms: C_15  and  C_16 
REMARK   14  A    between atoms: C_16  and  C_18 
ROOT
HETATM    1  C   UNK N   1      32.595  16.491   7.955  0.00  0.00     0.253 C 
ENDROOT
BRANCH   1   2
HETATM    2  P   UNK N   1      33.799  17.132   6.676  0.00  0.00     0.283 P 
HETATM    3  O   UNK N   1      34.618  18.341   7.206  0.00  0.00    -0.651 OA
BRANCH   2   4
HETATM    4  O   UNK N   1      33.052  17.724   5.226  0.00  0.00    -0.327 OA
HETATM    5  H   UNK N   1      32.691  18.614   5.089  0.00  0.00     0.220 HD
ENDBRANCH   2   4
BRANCH   2   6
HETATM    6  O   UNK N   1      35.003  15.987   6.178  0.00  0.00    -0.327 OA
HETATM    7  H   UNK N   1      34.807  15.223   5.613  0.00  0.00     0.220 HD
ENDBRANCH   2   6
ENDBRANCH   1   2
BRANCH   1   8
HETATM    8  P   UNK N   1      33.510  15.866   9.461  0.00  0.00     0.283 P 
HETATM    9  O   UNK N   1      34.491  14.726   9.079  0.00  0.00    -0.651 OA
BRANCH   8  10
HETATM   10  O   UNK N   1      32.493  15.150  10.672  0.00  0.00    -0.327 OA
HETATM   11  H   UNK N   1      31.826  14.449  10.615  0.00  0.00     0.220 HD
ENDBRANCH   8  10
BRANCH   8  12
HETATM   12  O   UNK N   1      34.509  17.031  10.274  0.00  0.00    -0.327 OA
HETATM   13  H   UNK N   1      34.866  17.933  10.253  0.00  0.00     0.220 HD
ENDBRANCH   8  12
ENDBRANCH   1   8
BRANCH   1  14
HETATM   14  O   UNK N   1      31.894  15.425   7.391  0.00  0.00    -0.368 OA
HETATM   15  H   UNK N   1      31.948  14.599   6.886  0.00  0.00     0.212 HD
ENDBRANCH   1  14
BRANCH   1  16
HETATM   16  C   UNK N   1      31.592  17.579   8.344  0.00  0.00     0.094 C 
BRANCH  16  17
HETATM   17  C   UNK N   1      30.226  17.372   7.699  0.00  0.00     0.276 C 
BRANCH  17  18
HETATM   18  N   UNK N   1      29.170  17.707   8.635  0.00  0.00     0.084 N 
HETATM   19  C   UNK N   1      29.806  18.389   9.750  0.00  0.00     0.309 C 
BRANCH  18  20
HETATM   20  C   UNK N   1      28.317  18.675   7.966  0.00  0.00     0.271 C 
BRANCH  20  21
HETATM   21  C   UNK N   1      28.348  18.448   6.464  0.00  0.00     0.030 C 
BRANCH  21  22
HETATM   22  C   UNK N   1      27.207  19.189   5.790  0.00  0.00     0.001 C 
BRANCH  22  23
HETATM   23  C   UNK N   1      27.646  20.585   5.390  0.00  0.00    -0.005 C 
HETATM   24  C   UNK N   1      26.968  21.602   6.281  0.00  0.00     0.005 C 
ENDBRANCH  22  23
ENDBRANCH  21  22
ENDBRANCH  20  21
ENDBRANCH  18  20
ENDBRANCH  17  18
ENDBRANCH  16  17
ENDBRANCH   1  16
TORSDOF 14
ENDMDL
MODEL 4
REMARK VINA RESULT:      -5.2      5.268      8.314
REMARK  14 active torsions:
REMARK  status: ('A' for Active; 'I' for Inactive)
REMARK    1  A    between atoms: P_1  and  O_4 
REMARK    2  A    between atoms: P_1  and  O_5 
REMARK    3  A    between atoms: P_1  and  C_11 
REMARK    4  A    between atoms: P_2  and  O_6 
REMARK    5  A    between atoms: P_2  and  O_7 
REMARK    6  A    between atoms: P_2  and  C_11 
REMARK    7  A    between atoms: O_3  and  C_11 
REMARK    8  A    between atoms: N_10  and  C_13 
REMARK    9  A    between atoms: N_10  and  C_14 
REMARK   10  A    between atoms: C_11  and  C_12 
REMARK   11  A    between atoms: C_12  and  C_13 
REMARK   12  A    between atoms: C_14  and  C_15 
REMARK   13  A    between atoms: C_15  and  C_16 
REMARK   14  A    between atoms: C_16  and  C_18 
ROOT
HETATM    1  C   UNK N   1      34.358  16.402   9.239  0.00  0.00     0.253 C 
ENDROOT
BRANCH   1   2
HETATM    2  P   UNK N   1      34.236  17.893   8.119  0.00  0.00     0.283 P 
HETATM    3  O   UNK N   1      32.822  18.536   8.162  0.00  0.00    -0.651 OA
BRANCH   2   4
HETATM    4  O   UNK N   1      34.498  17.549   6.439  0.00  0.00    -0.327 OA
HETATM    5  H   UNK N   1      33.888  17.744   5.712  0.00  0.00     0.220 HD
ENDBRANCH   2   4
BRANCH   2   6
HETATM    6  O   UNK N   1      35.307  19.195   8.529  0.00  0.00    -0.327 OA
HETATM    7  H   UNK N   1      36.055  19.462   7.970  0.00  0.00     0.220 HD
ENDBRANCH   2   6
ENDBRANCH   1   2
BRANCH   1   8
HETATM    8  P   UNK N   1      32.815  15.353   9.105  0.00  0.00     0.283 P 
HETATM    9  O   UNK N   1      33.167  13.902   8.683  0.00  0.00    -0.651 OA
BRANCH   8  10
HETATM   10  O   UNK N   1      31.694  15.879   7.888  0.00  0.00    -0.327 OA
HETATM   11  H   UNK N   1      30.935  15.433   7.482  0.00  0.00     0.220 HD
ENDBRANCH   8  10
BRANCH   8  12
HETATM   12  O   UNK N   1      31.905  15.159  10.571  0.00  0.00    -0.327 OA
HETATM   13  H   UNK N   1      31.876  15.337  11.525  0.00  0.00     0.220 HD
ENDBRANCH   8  12
ENDBRANCH   1   8
BRANCH   1  14
HETATM   14  O   UNK N   1      34.469  16.857  10.553  0.00  0.00    -0.368 OA
HETATM   15  H   UNK N   1      34.412  17.616  11.153  0.00  0.00     0.212 HD
ENDBRANCH   1  14
BRANCH   1  16
HETATM   16  C   UNK N   1      35.602  15.577   8.904  0.00  0.00     0.094 C 
BRANCH  16  17
HETATM   17  C   UNK N   1      36.350  15.116  10.150  0.00  0.00     0.276 C 
BRANCH  17  18
HETATM   18  N   UNK N   1      36.579  13.685  10.101  0.00  0.00     0.084 N 
HETATM   19  C   UNK N   1      37.890  13.495   9.505  0.00  0.00     0.309 C 
BRANCH  18  20
HETATM   20  C   UNK N   1      36.663  13.233  11.481  0.00  0.00     0.271 C 
BRANCH  20  21
HETATM   21  C   UNK N   1      36.202  14.335  12.420  0.00  0.00     0.030 C 
BRANCH  21  22
HETATM   22  C   UNK N   1      35.571  13.742  13.667  0.00  0.00     0.001 C 
BRANCH  22  23
HETATM   23  C   UNK N   1      36.536  13.818  14.835  0.00  0.00    -0.005 C 
HETATM   24  C   UNK N   1      36.188  12.749  15.848  0.00  0.00     0.005 C 
ENDBRANCH  22  23
ENDBRANCH  21  22
ENDBRANCH  20  21
ENDBRANCH  18  20
ENDBRANCH  17  18
ENDBRANCH  16  17
ENDBRANCH   1  16
TORSDOF 14
ENDMDL
MODEL 5
REMARK VINA RESULT:      -5.2      9.917     11.414
REMARK  14 active torsions:
REMARK  status: ('A' for Active; 'I' for Inactive)
REMARK    1  A    between atoms: P_1  and  O_4 
REMARK    2  A    between atoms: P_1  and  O_5 
REMARK    3  A    between atoms: P_1  and  C_11 
REMARK    4  A    between atoms: P_2  and  O_6 
REMARK    5  A    between atoms: P_2  and  O_7 
REMARK    6  A    between atoms: P_2  and  C_11 
REMARK    7  A    between atoms: O_3  and  C_11 
REMARK    8  A    between atoms: N_10  and  C_13 
REMARK    9  A    between atoms: N_10  and  C_14 
REMARK   10  A    between atoms: C_11  and  C_12 
REMARK   11  A    between atoms: C_12  and  C_13 
REMARK   12  A    between atoms: C_14  and  C_15 
REMARK   13  A    between atoms: C_15  and  C_16 
REMARK   14  A    between atoms: C_16  and  C_18 
ROOT
HETATM    1  C   UNK N   1      21.135  18.961   3.419  0.00  0.00     0.253 C 
ENDROOT
BRANCH   1   2
HETATM    2  P   UNK N   1      21.508  20.294   2.164  0.00  0.00     0.283 P 
HETATM    3  O   UNK N   1      23.029  20.402   1.867  0.00  0.00    -0.651 OA
BRANCH   2   4
HETATM    4  O   UNK N   1      21.055  21.893   2.664  0.00  0.00    -0.327 OA
HETATM    5  H   UNK N   1      20.221  22.343   2.459  0.00  0.00     0.220 HD
ENDBRANCH   2   4
BRANCH   2   6
HETATM    6  O   UNK N   1      20.787  20.042   0.605  0.00  0.00    -0.327 OA
HETATM    7  H   UNK N   1      21.278  20.135  -0.227  0.00  0.00     0.220 HD
ENDBRANCH   2   6
ENDBRANCH   1   2
BRANCH   1   8
HETATM    8  P   UNK N   1      19.660  17.946   2.879  0.00  0.00     0.283 P 
HETATM    9  O   UNK N   1      20.014  17.067   1.650  0.00  0.00    -0.651 OA
BRANCH   8  10
HETATM   10  O   UNK N   1      18.302  18.883   2.341  0.00  0.00    -0.327 OA
HETATM   11  H   UNK N   1      18.252  19.683   1.796  0.00  0.00     0.220 HD
ENDBRANCH   8  10
BRANCH   8  12
HETATM   12  O   UNK N   1      19.054  16.814   4.048  0.00  0.00    -0.327 OA
HETATM   13  H   UNK N   1      19.252  16.023   4.575  0.00  0.00     0.220 HD
ENDBRANCH   8  12
ENDBRANCH   1   8
BRANCH   1  14
HETATM   14  O   UNK N   1      20.823  19.582   4.629  0.00  0.00    -0.368 OA
HETATM   15  H   UNK N   1      21.052  20.280   5.262  0.00  0.00     0.212 HD
ENDBRANCH   1  14
BRANCH   1  16
HETATM   16  C   UNK N   1      22.357  18.066   3.635  0.00  0.00     0.094 C 
BRANCH  16  17
HETATM   17  C   UNK N   1      22.869  18.113   5.070  0.00  0.00     0.276 C 
BRANCH  17  18
HETATM   18  N   UNK N   1      24.225  17.602   5.139  0.00  0.00     0.084 N 
HETATM   19  C   UNK N   1      24.123  16.215   5.560  0.00  0.00     0.309 C 
BRANCH  18  20
HETATM   20  C   UNK N   1      24.737  17.604   3.779  0.00  0.00     0.271 C 
BRANCH  20  21
HETATM   21  C   UNK N   1      26.116  18.240   3.741  0.00  0.00     0.030 C 
BRANCH  21  22
HETATM   22  C   UNK N   1      26.010  19.729   3.464  0.00  0.00     0.001 C 
BRANCH  22  23
HETATM   23  C   UNK N   1      26.427  20.526   4.685  0.00  0.00    -0.005 C 
HETATM   24  C   UNK N   1      27.857  20.188   5.045  0.00  0.00     0.005 C 
ENDBRANCH  22  23
ENDBRANCH  21  22
ENDBRANCH  20  21
ENDBRANCH  18  20
ENDBRANCH  17  18
ENDBRANCH  16  17
ENDBRANCH   1  16
TORSDOF 14
ENDMDL
MODEL 6
REMARK VINA RESULT:      -5.2      7.334      9.925
REMARK  14 active torsions:
REMARK  status: ('A' for Active; 'I' for Inactive)
REMARK    1  A    between atoms: P_1  and  O_4 
REMARK    2  A    between atoms: P_1  and  O_5 
REMARK    3  A    between atoms: P_1  and  C_11 
REMARK    4  A    between atoms: P_2  and  O_6 
REMARK    5  A    between atoms: P_2  and  O_7 
REMARK    6  A    between atoms: P_2  and  C_11 
REMARK    7  A    between atoms: O_3  and  C_11 
REMARK    8  A    between atoms: N_10  and  C_13 
REMARK    9  A    between atoms: N_10  and  C_14 
REMARK   10  A    between atoms: C_11  and  C_12 
REMARK   11  A    between atoms: C_12  and  C_13 
REMARK   12  A    between atoms: C_14  and  C_15 
REMARK   13  A    between atoms: C_15  and  C_16 
REMARK   14  A    between atoms: C_16  and  C_18 
ROOT
HETATM    1  C   UNK N   1      36.239  15.132  11.146  0.00  0.00     0.253 C 
ENDROOT
BRANCH   1   2
HETATM    2  P   UNK N   1      37.107  13.668  10.372  0.00  0.00     0.283 P 
HETATM    3  O   UNK N   1      37.716  14.020   8.988  0.00  0.00    -0.651 OA
BRANCH   2   4
HETATM    4  O   UNK N   1      36.072  12.313  10.052  0.00  0.00    -0.327 OA
HETATM    5  H   UNK N   1      36.297  11.378  10.175  0.00  0.00     0.220 HD
ENDBRANCH   2   4
BRANCH   2   6
HETATM    6  O   UNK N   1      38.450  13.057  11.286  0.00  0.00    -0.327 OA
HETATM    7  H   UNK N   1      38.607  13.288  12.215  0.00  0.00     0.220 HD
ENDBRANCH   2   6
ENDBRANCH   1   2
BRANCH   1   8
HETATM    8  P   UNK N   1      34.578  15.414  10.334  0.00  0.00     0.283 P 
HETATM    9  O   UNK N   1      34.499  14.683   8.967  0.00  0.00    -0.651 OA
BRANCH   8  10
HETATM   10  O   UNK N   1      34.245  17.071   9.938  0.00  0.00    -0.327 OA
HETATM   11  H   UNK N   1      33.995  17.491   9.101  0.00  0.00     0.220 HD
ENDBRANCH   8  10
BRANCH   8  12
HETATM   12  O   UNK N   1      33.200  14.824  11.210  0.00  0.00    -0.327 OA
HETATM   13  H   UNK N   1      32.437  15.066  11.760  0.00  0.00     0.220 HD
ENDBRANCH   8  12
ENDBRANCH   1   8
BRANCH   1  14
HETATM   14  O   UNK N   1      37.030  16.263  10.935  0.00  0.00    -0.368 OA
HETATM   15  H   UNK N   1      37.813  16.763  11.210  0.00  0.00     0.212 HD
ENDBRANCH   1  14
BRANCH   1  16
HETATM   16  C   UNK N   1      36.076  14.928  12.653  0.00  0.00     0.094 C 
BRANCH  16  17
HETATM   17  C   UNK N   1      35.919  13.459  13.029  0.00  0.00     0.276 C 
BRANCH  17  18
HETATM   18  N   UNK N   1      35.073  13.325  14.199  0.00  0.00     0.084 N 
HETATM   19  C   UNK N   1      34.574  11.961  14.196  0.00  0.00     0.309 C 
BRANCH  18  20
HETATM   20  C   UNK N   1      35.942  13.465  15.356  0.00  0.00     0.271 C 
BRANCH  20  21
HETATM   21  C   UNK N   1      35.349  12.730  16.546  0.00  0.00     0.030 C 
BRANCH  21  22
HETATM   22  C   UNK N   1      35.188  13.670  17.727  0.00  0.00     0.001 C 
BRANCH  22  23
HETATM   23  C   UNK N   1      35.203  12.893  19.029  0.00  0.00    -0.005 C 
HETATM   24  C   UNK N   1      35.405  11.422  18.737  0.00  0.00     0.005 C 
ENDBRANCH  22  23
ENDBRANCH  21  22
ENDBRANCH  20  21
ENDBRANCH  18  20
ENDBRANCH  17  18
ENDBRANCH  16  17
ENDBRANCH   1  16
TORSDOF 14
ENDMDL
MODEL 7
REMARK VINA RESULT:      -5.1      7.752     10.128
REMARK  14 active torsions:
REMARK  status: ('A' for Active; 'I' for Inactive)
REMARK    1  A    between atoms: P_1  and  O_4 
REMARK    2  A    between atoms: P_1  and  O_5 
REMARK    3  A    between atoms: P_1  and  C_11 
REMARK    4  A    between atoms: P_2  and  O_6 
REMARK    5  A    between atoms: P_2  and  O_7 
REMARK    6  A    between atoms: P_2  and  C_11 
REMARK    7  A    between atoms: O_3  and  C_11 
REMARK    8  A    between atoms: N_10  and  C_13 
REMARK    9  A    between atoms: N_10  and  C_14 
REMARK   10  A    between atoms: C_11  and  C_12 
REMARK   11  A    between atoms: C_12  and  C_13 
REMARK   12  A    between atoms: C_14  and  C_15 
REMARK   13  A    between atoms: C_15  and  C_16 
REMARK   14  A    between atoms: C_16  and  C_18 
ROOT
HETATM    1  C   UNK N   1      36.019  14.190  11.549  0.00  0.00     0.253 C 
ENDROOT
BRANCH   1   2
HETATM    2  P   UNK N   1      37.367  13.698  10.352  0.00  0.00     0.283 P 
HETATM    3  O   UNK N   1      38.230  12.528  10.899  0.00  0.00    -0.651 OA
BRANCH   2   4
HETATM    4  O   UNK N   1      38.515  14.954  10.014  0.00  0.00    -0.327 OA
HETATM    5  H   UNK N   1      38.719  15.325   9.141  0.00  0.00     0.220 HD
ENDBRANCH   2   4
BRANCH   2   6
HETATM    6  O   UNK N   1      36.798  13.125   8.816  0.00  0.00    -0.327 OA
HETATM    7  H   UNK N   1      36.568  13.716   8.082  0.00  0.00     0.220 HD
ENDBRANCH   2   6
ENDBRANCH   1   2
BRANCH   1   8
HETATM    8  P   UNK N   1      34.783  15.320  10.716  0.00  0.00     0.283 P 
HETATM    9  O   UNK N   1      34.863  15.184   9.172  0.00  0.00    -0.651 OA
BRANCH   8  10
HETATM   10  O   UNK N   1      35.052  17.011  11.000  0.00  0.00    -0.327 OA
HETATM   11  H   UNK N   1      34.726  17.797  10.535  0.00  0.00     0.220 HD
ENDBRANCH   8  10
BRANCH   8  12
HETATM   12  O   UNK N   1      33.113  15.013  11.083  0.00  0.00    -0.327 OA
HETATM   13  H   UNK N   1      32.395  15.151  11.722  0.00  0.00     0.220 HD
ENDBRANCH   8  12
ENDBRANCH   1   8
BRANCH   1  14
HETATM   14  O   UNK N   1      36.611  14.885  12.604  0.00  0.00    -0.368 OA
HETATM   15  H   UNK N   1      37.369  15.412  12.900  0.00  0.00     0.212 HD
ENDBRANCH   1  14
BRANCH   1  16
HETATM   16  C   UNK N   1      35.322  12.951  12.115  0.00  0.00     0.094 C 
BRANCH  16  17
HETATM   17  C   UNK N   1      35.676  12.699  13.577  0.00  0.00     0.276 C 
BRANCH  17  18
HETATM   18  N   UNK N   1      36.234  11.371  13.739  0.00  0.00     0.084 N 
HETATM   19  C   UNK N   1      37.635  11.550  14.082  0.00  0.00     0.309 C 
BRANCH  18  20
HETATM   20  C   UNK N   1      35.578  10.786  14.897  0.00  0.00     0.271 C 
BRANCH  20  21
HETATM   21  C   UNK N   1      36.263  11.245  16.173  0.00  0.00     0.030 C 
BRANCH  21  22
HETATM   22  C   UNK N   1      35.235  11.630  17.222  0.00  0.00     0.001 C 
BRANCH  22  23
HETATM   23  C   UNK N   1      34.945  13.117  17.158  0.00  0.00    -0.005 C 
HETATM   24  C   UNK N   1      35.198  13.740  18.514  0.00  0.00     0.005 C 
ENDBRANCH  22  23
ENDBRANCH  21  22
ENDBRANCH  20  21
ENDBRANCH  18  20
ENDBRANCH  17  18
ENDBRANCH  16  17
ENDBRANCH   1  16
TORSDOF 14
ENDMDL
MODEL 8
REMARK VINA RESULT:      -5.1     11.323     12.641
REMARK  14 active torsions:
REMARK  status: ('A' for Active; 'I' for Inactive)
REMARK    1  A    between atoms: P_1  and  O_4 
REMARK    2  A    between atoms: P_1  and  O_5 
REMARK    3  A    between atoms: P_1  and  C_11 
REMARK    4  A    between atoms: P_2  and  O_6 
REMARK    5  A    between atoms: P_2  and  O_7 
REMARK    6  A    between atoms: P_2  and  C_11 
REMARK    7  A    between atoms: O_3  and  C_11 
REMARK    8  A    between atoms: N_10  and  C_13 
REMARK    9  A    between atoms: N_10  and  C_14 
REMARK   10  A    between atoms: C_11  and  C_12 
REMARK   11  A    between atoms: C_12  and  C_13 
REMARK   12  A    between atoms: C_14  and  C_15 
REMARK   13  A    between atoms: C_15  and  C_16 
REMARK   14  A    between atoms: C_16  and  C_18 
ROOT
HETATM    1  C   UNK N   1      20.355  16.962   2.745  0.00  0.00     0.253 C 
ENDROOT
BRANCH   1   2
HETATM    2  P   UNK N   1      19.917  18.778   2.669  0.00  0.00     0.283 P 
HETATM    3  O   UNK N   1      20.631  19.498   1.493  0.00  0.00    -0.651 OA
BRANCH   2   4
HETATM    4  O   UNK N   1      20.386  19.684   4.073  0.00  0.00    -0.327 OA
HETATM    5  H   UNK N   1      20.534  19.328   4.962  0.00  0.00     0.220 HD
ENDBRANCH   2   4
BRANCH   2   6
HETATM    6  O   UNK N   1      18.233  19.106   2.411  0.00  0.00    -0.327 OA
HETATM    7  H   UNK N   1      17.547  18.906   3.067  0.00  0.00     0.220 HD
ENDBRANCH   2   6
ENDBRANCH   1   2
BRANCH   1   8
HETATM    8  P   UNK N   1      20.232  16.187   1.047  0.00  0.00     0.283 P 
HETATM    9  O   UNK N   1      21.460  15.282   0.762  0.00  0.00    -0.651 OA
BRANCH   8  10
HETATM   10  O   UNK N   1      20.242  17.325  -0.263  0.00  0.00    -0.327 OA
HETATM   11  H   UNK N   1      19.536  17.871  -0.642  0.00  0.00     0.220 HD
ENDBRANCH   8  10
BRANCH   8  12
HETATM   12  O   UNK N   1      18.867  15.143   0.791  0.00  0.00    -0.327 OA
HETATM   13  H   UNK N   1      18.184  14.859   0.163  0.00  0.00     0.220 HD
ENDBRANCH   8  12
ENDBRANCH   1   8
BRANCH   1  14
HETATM   14  O   UNK N   1      19.436  16.331   3.585  0.00  0.00    -0.368 OA
HETATM   15  H   UNK N   1      18.532  16.324   3.933  0.00  0.00     0.212 HD
ENDBRANCH   1  14
BRANCH   1  16
HETATM   16  C   UNK N   1      21.757  16.769   3.327  0.00  0.00     0.094 C 
BRANCH  16  17
HETATM   17  C   UNK N   1      21.797  15.696   4.408  0.00  0.00     0.276 C 
BRANCH  17  18
HETATM   18  N   UNK N   1      22.504  16.183   5.577  0.00  0.00     0.084 N 
HETATM   19  C   UNK N   1      23.031  17.491   5.226  0.00  0.00     0.309 C 
BRANCH  18  20
HETATM   20  C   UNK N   1      21.503  16.384   6.612  0.00  0.00     0.271 C 
BRANCH  20  21
HETATM   21  C   UNK N   1      21.555  15.245   7.616  0.00  0.00     0.030 C 
BRANCH  21  22
HETATM   22  C   UNK N   1      20.557  15.477   8.737  0.00  0.00     0.001 C 
BRANCH  22  23
HETATM   23  C   UNK N   1      20.452  14.245   9.616  0.00  0.00    -0.005 C 
HETATM   24  C   UNK N   1      21.833  13.675   9.853  0.00  0.00     0.005 C 
ENDBRANCH  22  23
ENDBRANCH  21  22
ENDBRANCH  20  21
ENDBRANCH  18  20
ENDBRANCH  17  18
ENDBRANCH  16  17
ENDBRANCH   1  16
TORSDOF 14
ENDMDL
MODEL 9
REMARK VINA RESULT:      -5.0     10.669     11.945
REMARK  14 active torsions:
REMARK  status: ('A' for Active; 'I' for Inactive)
REMARK    1  A    between atoms: P_1  and  O_4 
REMARK    2  A    between atoms: P_1  and  O_5 
REMARK    3  A    between atoms: P_1  and  C_11 
REMARK    4  A    between atoms: P_2  and  O_6 
REMARK    5  A    between atoms: P_2  and  O_7 
REMARK    6  A    between atoms: P_2  and  C_11 
REMARK    7  A    between atoms: O_3  and  C_11 
REMARK    8  A    between atoms: N_10  and  C_13 
REMARK    9  A    between atoms: N_10  and  C_14 
REMARK   10  A    between atoms: C_11  and  C_12 
REMARK   11  A    between atoms: C_12  and  C_13 
REMARK   12  A    between atoms: C_14  and  C_15 
REMARK   13  A    between atoms: C_15  and  C_16 
REMARK   14  A    between atoms: C_16  and  C_18 
ROOT
HETATM    1  C   UNK N   1      20.321  17.014   2.667  0.00  0.00     0.253 C 
ENDROOT
BRANCH   1   2
HETATM    2  P   UNK N   1      19.744  18.787   2.523  0.00  0.00     0.283 P 
HETATM    3  O   UNK N   1      20.050  19.602   3.808  0.00  0.00    -0.651 OA
BRANCH   2   4
HETATM    4  O   UNK N   1      18.033  18.965   2.300  0.00  0.00    -0.327 OA
HETATM    5  H   UNK N   1      17.368  18.264   2.383  0.00  0.00     0.220 HD
ENDBRANCH   2   4
BRANCH   2   6
HETATM    6  O   UNK N   1      20.504  19.694   1.253  0.00  0.00    -0.327 OA
HETATM    7  H   UNK N   1      20.569  20.662   1.259  0.00  0.00     0.220 HD
ENDBRANCH   2   6
ENDBRANCH   1   2
BRANCH   1   8
HETATM    8  P   UNK N   1      20.224  16.156   1.008  0.00  0.00     0.283 P 
HETATM    9  O   UNK N   1      20.294  17.185  -0.152  0.00  0.00    -0.651 OA
BRANCH   8  10
HETATM   10  O   UNK N   1      18.734  15.311   0.724  0.00  0.00    -0.327 OA
HETATM   11  H   UNK N   1      18.214  14.723   1.292  0.00  0.00     0.220 HD
ENDBRANCH   8  10
BRANCH   8  12
HETATM   12  O   UNK N   1      21.506  15.038   0.660  0.00  0.00    -0.327 OA
HETATM   13  H   UNK N   1      22.410  14.936   0.321  0.00  0.00     0.220 HD
ENDBRANCH   8  12
ENDBRANCH   1   8
BRANCH   1  14
HETATM   14  O   UNK N   1      19.471  16.355   3.555  0.00  0.00    -0.368 OA
HETATM   15  H   UNK N   1      19.207  15.506   3.940  0.00  0.00     0.212 HD
ENDBRANCH   1  14
BRANCH   1  16
HETATM   16  C   UNK N   1      21.746  16.954   3.223  0.00  0.00     0.094 C 
BRANCH  16  17
HETATM   17  C   UNK N   1      21.774  16.743   4.732  0.00  0.00     0.276 C 
BRANCH  17  18
HETATM   18  N   UNK N   1      23.108  16.982   5.250  0.00  0.00     0.084 N 
HETATM   19  C   UNK N   1      23.418  15.864   6.125  0.00  0.00     0.309 C 
BRANCH  18  20
HETATM   20  C   UNK N   1      24.012  16.905   4.114  0.00  0.00     0.271 C 
BRANCH  20  21
HETATM   21  C   UNK N   1      25.091  17.968   4.234  0.00  0.00     0.030 C 
BRANCH  21  22
HETATM   22  C   UNK N   1      24.531  19.337   3.895  0.00  0.00     0.001 C 
BRANCH  22  23
HETATM   23  C   UNK N   1      25.474  20.081   2.969  0.00  0.00    -0.005 C 
HETATM   24  C   UNK N   1      26.848  20.153   3.598  0.00  0.00     0.005 C 
ENDBRANCH  22  23
ENDBRANCH  21  22
ENDBRANCH  20  21
ENDBRANCH  18  20
ENDBRANCH  17  18
ENDBRANCH  16  17
ENDBRANCH   1  16
TORSDOF 14
ENDMDL
