MODEL 1
REMARK VINA RESULT:      -4.6      0.000      0.000
REMARK  2 active torsions:
REMARK  status: ('A' for Active; 'I' for Inactive)
REMARK       I    between atoms: N_2  and  C_9 
REMARK       I    between atoms: N_4  and  C_9 
REMARK    1  A    between atoms: N_4  and  C_11 
REMARK    2  A    between atoms: N_4  and  C_12 
ROOT
HETATM    1  O   UNK N   1      34.197  17.950   6.132  0.00  0.00    -0.247 OA
HETATM    2  N   UNK N   1      33.374  16.818   7.879  0.00  0.00    -0.331 N 
HETATM    3  N   UNK N   1      33.954  15.484  10.280  0.00  0.00     0.087 N 
HETATM    4  N   UNK N   1      32.198  17.018   5.749  0.00  0.00    -0.335 N 
HETATM    5  C   UNK N   1      34.519  17.223   8.679  0.00  0.00     0.157 C 
HETATM    6  C   UNK N   1      32.346  16.035   8.547  0.00  0.00     0.157 C 
HETATM    7  C   UNK N   1      35.048  16.043   9.491  0.00  0.00     0.291 C 
HETATM    8  C   UNK N   1      32.986  14.906   9.353  0.00  0.00     0.291 C 
HETATM    9  C   UNK N   1      33.278  17.266   6.575  0.00  0.00     0.320 C 
HETATM   10  C   UNK N   1      34.491  14.417  11.104  0.00  0.00     0.310 C 
ENDROOT
BRANCH   4  11
HETATM   11  C   UNK N   1      32.198  17.620   4.418  0.00  0.00     0.123 C 
HETATM   12  C   UNK N   1      32.571  16.665   3.288  0.00  0.00     0.026 C 
ENDBRANCH   4  11
BRANCH   4  13
HETATM   13  C   UNK N   1      31.053  16.228   6.166  0.00  0.00     0.123 C 
HETATM   14  C   UNK N   1      29.777  17.039   6.019  0.00  0.00     0.026 C 
ENDBRANCH   4  13
TORSDOF 2
ENDMDL
MODEL 2
REMARK VINA RESULT:      -4.4      8.337     10.802
REMARK  2 active torsions:
REMARK  status: ('A' for Active; 'I' for Inactive)
REMARK       I    between atoms: N_2  and  C_9 
REMARK       I    between atoms: N_4  and  C_9 
REMARK    1  A    between atoms: N_4  and  C_11 
REMARK    2  A    between atoms: N_4  and  C_12 
ROOT
HETATM    1  O   UNK N   1      23.229  21.401   2.901  0.00  0.00    -0.247 OA
HETATM    2  N   UNK N   1      24.128  19.527   3.730  0.00  0.00    -0.331 N 
HETATM    3  N   UNK N   1      26.495  18.131   4.310  0.00  0.00     0.087 N 
HETATM    4  N   UNK N   1      21.843  19.643   2.882  0.00  0.00    -0.335 N 
HETATM    5  C   UNK N   1      25.343  20.256   4.057  0.00  0.00     0.157 C 
HETATM    6  C   UNK N   1      24.073  18.127   4.122  0.00  0.00     0.157 C 
HETATM    7  C   UNK N   1      26.576  19.441   3.672  0.00  0.00     0.291 C 
HETATM    8  C   UNK N   1      25.366  17.417   3.719  0.00  0.00     0.291 C 
HETATM    9  C   UNK N   1      23.072  20.209   3.157  0.00  0.00     0.320 C 
HETATM   10  C   UNK N   1      27.709  17.400   3.999  0.00  0.00     0.310 C 
ENDROOT
BRANCH   4  11
HETATM   11  C   UNK N   1      20.792  20.506   2.346  0.00  0.00     0.123 C 
HETATM   12  C   UNK N   1      20.780  20.623   0.825  0.00  0.00     0.026 C 
ENDBRANCH   4  11
BRANCH   4  13
HETATM   13  C   UNK N   1      21.542  18.248   3.146  0.00  0.00     0.123 C 
HETATM   14  C   UNK N   1      20.049  18.066   3.363  0.00  0.00     0.026 C 
ENDBRANCH   4  13
TORSDOF 2
ENDMDL
MODEL 3
REMARK VINA RESULT:      -4.3      4.067      7.980
REMARK  2 active torsions:
REMARK  status: ('A' for Active; 'I' for Inactive)
REMARK       I    between atoms: N_2  and  C_9 
REMARK       I    between atoms: N_4  and  C_9 
REMARK    1  A    between atoms: N_4  and  C_11 
REMARK    2  A    between atoms: N_4  and  C_12 
ROOT
HETATM    1  O   UNK N   1      36.656  14.829  14.204  0.00  0.00    -0.247 OA
HETATM    2  N   UNK N   1      35.658  14.459  12.236  0.00  0.00    -0.331 N 
HETATM    3  N   UNK N   1      34.713  15.594   9.847  0.00  0.00     0.087 N 
HETATM    4  N   UNK N   1      35.447  12.946  14.139  0.00  0.00    -0.335 N 
HETATM    5  C   UNK N   1      36.296  15.647  11.691  0.00  0.00     0.157 C 
HETATM    6  C   UNK N   1      34.844  13.670  11.324  0.00  0.00     0.157 C 
HETATM    7  C   UNK N   1      35.300  16.459  10.867  0.00  0.00     0.291 C 
HETATM    8  C   UNK N   1      33.910  14.583  10.530  0.00  0.00     0.291 C 
HETATM    9  C   UNK N   1      35.925  14.097  13.542  0.00  0.00     0.320 C 
HETATM   10  C   UNK N   1      33.831  16.399   9.024  0.00  0.00     0.310 C 
ENDROOT
BRANCH   4  11
HETATM   11  C   UNK N   1      35.875  12.651  15.505  0.00  0.00     0.123 C 
HETATM   12  C   UNK N   1      34.878  13.060  16.586  0.00  0.00     0.026 C 
ENDBRANCH   4  11
BRANCH   4  13
HETATM   13  C   UNK N   1      34.580  12.005  13.453  0.00  0.00     0.123 C 
HETATM   14  C   UNK N   1      34.885  10.588  13.906  0.00  0.00     0.026 C 
ENDBRANCH   4  13
TORSDOF 2
ENDMDL
MODEL 4
REMARK VINA RESULT:      -4.3      2.259      5.416
REMARK  2 active torsions:
REMARK  status: ('A' for Active; 'I' for Inactive)
REMARK       I    between atoms: N_2  and  C_9 
REMARK       I    between atoms: N_4  and  C_9 
REMARK    1  A    between atoms: N_4  and  C_11 
REMARK    2  A    between atoms: N_4  and  C_12 
ROOT
HETATM    1  O   UNK N   1      35.356  17.464  10.203  0.00  0.00    -0.247 OA
HETATM    2  N   UNK N   1      33.899  16.613   8.734  0.00  0.00    -0.331 N 
HETATM    3  N   UNK N   1      31.543  17.040   7.266  0.00  0.00     0.087 N 
HETATM    4  N   UNK N   1      35.365  15.228  10.107  0.00  0.00    -0.335 N 
HETATM    5  C   UNK N   1      33.531  17.958   8.321  0.00  0.00     0.157 C 
HETATM    6  C   UNK N   1      33.270  15.510   8.024  0.00  0.00     0.157 C 
HETATM    7  C   UNK N   1      32.015  18.078   8.178  0.00  0.00     0.291 C 
HETATM    8  C   UNK N   1      31.764  15.749   7.910  0.00  0.00     0.291 C 
HETATM    9  C   UNK N   1      34.875  16.453   9.698  0.00  0.00     0.320 C 
HETATM   10  C   UNK N   1      30.116  17.219   7.079  0.00  0.00     0.310 C 
ENDROOT
BRANCH   4  11
HETATM   11  C   UNK N   1      36.454  15.213  11.081  0.00  0.00     0.123 C 
HETATM   12  C   UNK N   1      36.041  14.801  12.491  0.00  0.00     0.026 C 
ENDBRANCH   4  11
BRANCH   4  13
HETATM   13  C   UNK N   1      34.877  13.967   9.577  0.00  0.00     0.123 C 
HETATM   14  C   UNK N   1      36.034  13.143   9.039  0.00  0.00     0.026 C 
ENDBRANCH   4  13
TORSDOF 2
ENDMDL
MODEL 5
REMARK VINA RESULT:      -4.3      3.438      4.924
REMARK  2 active torsions:
REMARK  status: ('A' for Active; 'I' for Inactive)
REMARK       I    between atoms: N_2  and  C_9 
REMARK       I    between atoms: N_4  and  C_9 
REMARK    1  A    between atoms: N_4  and  C_11 
REMARK    2  A    between atoms: N_4  and  C_12 
ROOT
HETATM    1  O   UNK N   1      28.064  19.035   8.406  0.00  0.00    -0.247 OA
HETATM    2  N   UNK N   1      29.483  17.740   7.258  0.00  0.00    -0.331 N 
HETATM    3  N   UNK N   1      31.885  16.286   7.315  0.00  0.00     0.087 N 
HETATM    4  N   UNK N   1      27.904  19.260   6.184  0.00  0.00    -0.335 N 
HETATM    5  C   UNK N   1      29.947  17.148   8.503  0.00  0.00     0.157 C 
HETATM    6  C   UNK N   1      30.047  17.211   6.025  0.00  0.00     0.157 C 
HETATM    7  C   UNK N   1      31.470  17.027   8.502  0.00  0.00     0.291 C 
HETATM    8  C   UNK N   1      31.567  17.102   6.147  0.00  0.00     0.291 C 
HETATM    9  C   UNK N   1      28.483  18.692   7.303  0.00  0.00     0.320 C 
HETATM   10  C   UNK N   1      33.324  16.112   7.372  0.00  0.00     0.310 C 
ENDROOT
BRANCH   4  11
HETATM   11  C   UNK N   1      26.802  20.198   6.381  0.00  0.00     0.123 C 
HETATM   12  C   UNK N   1      27.169  21.664   6.169  0.00  0.00     0.026 C 
ENDBRANCH   4  11
BRANCH   4  13
HETATM   13  C   UNK N   1      28.314  18.929   4.831  0.00  0.00     0.123 C 
HETATM   14  C   UNK N   1      27.105  18.540   3.999  0.00  0.00     0.026 C 
ENDBRANCH   4  13
TORSDOF 2
ENDMDL
MODEL 6
REMARK VINA RESULT:      -4.2      2.340      3.619
REMARK  2 active torsions:
REMARK  status: ('A' for Active; 'I' for Inactive)
REMARK       I    between atoms: N_2  and  C_9 
REMARK       I    between atoms: N_4  and  C_9 
REMARK    1  A    between atoms: N_4  and  C_11 
REMARK    2  A    between atoms: N_4  and  C_12 
ROOT
HETATM    1  O   UNK N   1      32.370  13.901   8.647  0.00  0.00    -0.247 OA
HETATM    2  N   UNK N   1      34.097  14.817   9.736  0.00  0.00    -0.331 N 
HETATM    3  N   UNK N   1      35.899  14.579  11.876  0.00  0.00     0.087 N 
HETATM    4  N   UNK N   1      32.581  16.106   8.323  0.00  0.00    -0.335 N 
HETATM    5  C   UNK N   1      34.492  13.501  10.213  0.00  0.00     0.157 C 
HETATM    6  C   UNK N   1      34.956  15.935  10.096  0.00  0.00     0.157 C 
HETATM    7  C   UNK N   1      34.870  13.559  11.692  0.00  0.00     0.291 C 
HETATM    8  C   UNK N   1      35.297  15.877  11.585  0.00  0.00     0.291 C 
HETATM    9  C   UNK N   1      32.998  14.925   8.905  0.00  0.00     0.320 C 
HETATM   10  C   UNK N   1      36.303  14.565  13.269  0.00  0.00     0.310 C 
ENDROOT
BRANCH   4  11
HETATM   11  C   UNK N   1      31.447  16.057   7.403  0.00  0.00     0.123 C 
HETATM   12  C   UNK N   1      30.297  16.995   7.760  0.00  0.00     0.026 C 
ENDBRANCH   4  11
BRANCH   4  13
HETATM   13  C   UNK N   1      33.248  17.375   8.552  0.00  0.00     0.123 C 
HETATM   14  C   UNK N   1      33.848  17.892   7.256  0.00  0.00     0.026 C 
ENDBRANCH   4  13
TORSDOF 2
ENDMDL
MODEL 7
REMARK VINA RESULT:      -4.2     11.380     13.010
REMARK  2 active torsions:
REMARK  status: ('A' for Active; 'I' for Inactive)
REMARK       I    between atoms: N_2  and  C_9 
REMARK       I    between atoms: N_4  and  C_9 
REMARK    1  A    between atoms: N_4  and  C_11 
REMARK    2  A    between atoms: N_4  and  C_12 
ROOT
HETATM    1  O   UNK N   1      19.905  13.891  10.067  0.00  0.00    -0.247 OA
HETATM    2  N   UNK N   1      20.990  14.923   8.404  0.00  0.00    -0.331 N 
HETATM    3  N   UNK N   1      20.766  16.549   6.126  0.00  0.00     0.087 N 
HETATM    4  N   UNK N   1      21.914  13.014   9.612  0.00  0.00    -0.335 N 
HETATM    5  C   UNK N   1      19.910  15.893   8.304  0.00  0.00     0.157 C 
HETATM    6  C   UNK N   1      22.137  15.120   7.531  0.00  0.00     0.157 C 
HETATM    7  C   UNK N   1      19.557  16.150   6.840  0.00  0.00     0.291 C 
HETATM    8  C   UNK N   1      21.668  15.402   6.103  0.00  0.00     0.291 C 
HETATM    9  C   UNK N   1      20.914  13.935   9.367  0.00  0.00     0.320 C 
HETATM   10  C   UNK N   1      20.398  16.867   4.759  0.00  0.00     0.310 C 
ENDROOT
BRANCH   4  11
HETATM   11  C   UNK N   1      21.729  12.075  10.716  0.00  0.00     0.123 C 
HETATM   12  C   UNK N   1      22.851  12.081  11.750  0.00  0.00     0.026 C 
ENDBRANCH   4  11
BRANCH   4  13
HETATM   13  C   UNK N   1      23.150  12.975   8.852  0.00  0.00     0.123 C 
HETATM   14  C   UNK N   1      23.268  11.652   8.114  0.00  0.00     0.026 C 
ENDBRANCH   4  13
TORSDOF 2
ENDMDL
MODEL 8
REMARK VINA RESULT:      -4.1     12.270     13.593
REMARK  2 active torsions:
REMARK  status: ('A' for Active; 'I' for Inactive)
REMARK       I    between atoms: N_2  and  C_9 
REMARK       I    between atoms: N_4  and  C_9 
REMARK    1  A    between atoms: N_4  and  C_11 
REMARK    2  A    between atoms: N_4  and  C_12 
ROOT
HETATM    1  O   UNK N   1      21.023  18.688   6.876  0.00  0.00    -0.247 OA
HETATM    2  N   UNK N   1      20.997  17.361   5.074  0.00  0.00    -0.331 N 
HETATM    3  N   UNK N   1      20.850  17.229   2.273  0.00  0.00     0.087 N 
HETATM    4  N   UNK N   1      20.389  16.585   7.307  0.00  0.00    -0.335 N 
HETATM    5  C   UNK N   1      21.518  18.451   4.265  0.00  0.00     0.157 C 
HETATM    6  C   UNK N   1      20.808  16.079   4.412  0.00  0.00     0.157 C 
HETATM    7  C   UNK N   1      20.776  18.530   2.932  0.00  0.00     0.291 C 
HETATM    8  C   UNK N   1      20.089  16.279   3.078  0.00  0.00     0.291 C 
HETATM    9  C   UNK N   1      20.797  17.567   6.426  0.00  0.00     0.320 C 
HETATM   10  C   UNK N   1      20.212  17.344   0.976  0.00  0.00     0.310 C 
ENDROOT
BRANCH   4  11
HETATM   11  C   UNK N   1      20.295  16.928   8.724  0.00  0.00     0.123 C 
HETATM   12  C   UNK N   1      18.885  17.263   9.205  0.00  0.00     0.026 C 
ENDBRANCH   4  11
BRANCH   4  13
HETATM   13  C   UNK N   1      20.098  15.225   6.890  0.00  0.00     0.123 C 
HETATM   14  C   UNK N   1      20.726  14.236   7.857  0.00  0.00     0.026 C 
ENDBRANCH   4  13
TORSDOF 2
ENDMDL
MODEL 9
REMARK VINA RESULT:      -4.1     14.068     16.677
REMARK  2 active torsions:
REMARK  status: ('A' for Active; 'I' for Inactive)
REMARK       I    between atoms: N_2  and  C_9 
REMARK       I    between atoms: N_4  and  C_9 
REMARK    1  A    between atoms: N_4  and  C_11 
REMARK    2  A    between atoms: N_4  and  C_12 
ROOT
HETATM    1  O   UNK N   1      25.788  27.463  -2.865  0.00  0.00    -0.247 OA
HETATM    2  N   UNK N   1      27.356  26.306  -3.964  0.00  0.00    -0.331 N 
HETATM    3  N   UNK N   1      28.743  23.873  -4.177  0.00  0.00     0.087 N 
HETATM    4  N   UNK N   1      27.263  28.744  -3.958  0.00  0.00    -0.335 N 
HETATM    5  C   UNK N   1      26.712  25.062  -3.570  0.00  0.00     0.157 C 
HETATM    6  C   UNK N   1      28.518  26.200  -4.833  0.00  0.00     0.157 C 
HETATM    7  C   UNK N   1      27.753  24.041  -3.117  0.00  0.00     0.291 C 
HETATM    8  C   UNK N   1      29.474  25.131  -4.306  0.00  0.00     0.291 C 
HETATM    9  C   UNK N   1      26.790  27.504  -3.574  0.00  0.00     0.320 C 
HETATM   10  C   UNK N   1      29.677  22.843  -3.763  0.00  0.00     0.310 C 
ENDROOT
BRANCH   4  11
HETATM   11  C   UNK N   1      26.516  29.926  -3.533  0.00  0.00     0.123 C 
HETATM   12  C   UNK N   1      27.314  30.910  -2.682  0.00  0.00     0.026 C 
ENDBRANCH   4  11
BRANCH   4  13
HETATM   13  C   UNK N   1      28.434  28.915  -4.798  0.00  0.00     0.123 C 
HETATM   14  C   UNK N   1      28.043  29.560  -6.117  0.00  0.00     0.026 C 
ENDBRANCH   4  13
TORSDOF 2
ENDMDL
