MODEL 1
REMARK VINA RESULT:      -7.1      0.000      0.000
REMARK  4 active torsions:
REMARK  status: ('A' for Active; 'I' for Inactive)
REMARK    1  A    between atoms: O_2  and  C_13 
REMARK    2  A    between atoms: C_4  and  C_5 
REMARK    3  A    between atoms: C_4  and  C_13 
REMARK    4  A    between atoms: C_6  and  C_12 
ROOT
HETATM    1  F   UNK N   1      37.133  14.754  16.173  0.00  0.00    -0.205 F 
HETATM    2  C   UNK N   1      35.647  13.782  12.966  0.00  0.00    -0.041 A 
HETATM    3  C   UNK N   1      35.593  12.957  15.669  0.00  0.00     0.013 A 
HETATM    4  C   UNK N   1      36.406  14.466  13.931  0.00  0.00     0.051 A 
HETATM    5  C   UNK N   1      34.872  12.694  13.366  0.00  0.00     0.009 A 
HETATM    6  C   UNK N   1      36.385  14.064  15.275  0.00  0.00     0.128 A 
HETATM    7  C   UNK N   1      34.845  12.288  14.693  0.00  0.00     0.016 A 
ENDROOT
BRANCH   2   8
HETATM    8  C   UNK N   1      35.661  14.206  11.514  0.00  0.00     0.112 C 
HETATM    9  C   UNK N   1      35.386  13.176  10.429  0.00  0.00     0.026 C 
BRANCH   8  10
HETATM   10  C   UNK N   1      35.940  15.630  11.084  0.00  0.00     0.148 C 
HETATM   11  O   UNK N   1      35.039  16.455  11.024  0.00  0.00    -0.649 OA
BRANCH  10  12
HETATM   12  O   UNK N   1      37.191  16.003  10.762  0.00  0.00    -0.776 OA
HETATM   13  H   UNK N   1      37.452  16.898  10.854  0.00  0.00     0.167 HD
ENDBRANCH  10  12
ENDBRANCH   8  10
ENDBRANCH   2   8
BRANCH   3  14
HETATM   14  C   UNK N   1      35.512  12.462  17.073  0.00  0.00    -0.023 A 
HETATM   15  C   UNK N   1      35.158  13.303  18.139  0.00  0.00     0.012 A 
HETATM   16  C   UNK N   1      35.092  12.804  19.445  0.00  0.00     0.001 A 
HETATM   17  C   UNK N   1      35.379  11.460  19.698  0.00  0.00     0.000 A 
HETATM   18  C   UNK N   1      35.733  10.613  18.647  0.00  0.00     0.001 A 
HETATM   19  C   UNK N   1      35.799  11.111  17.346  0.00  0.00     0.012 A 
ENDBRANCH   3  14
TORSDOF 4
ENDMDL
MODEL 2
REMARK VINA RESULT:      -7.0      1.425      2.288
REMARK  4 active torsions:
REMARK  status: ('A' for Active; 'I' for Inactive)
REMARK    1  A    between atoms: O_2  and  C_13 
REMARK    2  A    between atoms: C_4  and  C_5 
REMARK    3  A    between atoms: C_4  and  C_13 
REMARK    4  A    between atoms: C_6  and  C_12 
ROOT
HETATM    1  F   UNK N   1      33.825  11.026  15.078  0.00  0.00    -0.205 F 
HETATM    2  C   UNK N   1      35.622  13.619  13.210  0.00  0.00    -0.041 A 
HETATM    3  C   UNK N   1      35.513  12.585  15.839  0.00  0.00     0.013 A 
HETATM    4  C   UNK N   1      34.747  12.564  13.521  0.00  0.00     0.051 A 
HETATM    5  C   UNK N   1      36.431  14.142  14.219  0.00  0.00     0.009 A 
HETATM    6  C   UNK N   1      34.685  12.044  14.823  0.00  0.00     0.128 A 
HETATM    7  C   UNK N   1      36.378  13.635  15.509  0.00  0.00     0.016 A 
ENDROOT
BRANCH   2   8
HETATM    8  C   UNK N   1      35.697  14.187  11.811  0.00  0.00     0.112 C 
HETATM    9  C   UNK N   1      36.793  13.714  10.866  0.00  0.00     0.026 C 
BRANCH   8  10
HETATM   10  C   UNK N   1      34.718  15.221  11.298  0.00  0.00     0.148 C 
HETATM   11  O   UNK N   1      35.096  16.340  10.981  0.00  0.00    -0.649 OA
BRANCH  10  12
HETATM   12  O   UNK N   1      33.414  14.914  11.184  0.00  0.00    -0.776 OA
HETATM   13  H   UNK N   1      32.807  15.556  10.870  0.00  0.00     0.167 HD
ENDBRANCH  10  12
ENDBRANCH   8  10
ENDBRANCH   2   8
BRANCH   3  14
HETATM   14  C   UNK N   1      35.512  12.094  17.247  0.00  0.00    -0.023 A 
HETATM   15  C   UNK N   1      35.822  10.765  17.572  0.00  0.00     0.012 A 
HETATM   16  C   UNK N   1      35.812  10.339  18.905  0.00  0.00     0.001 A 
HETATM   17  C   UNK N   1      35.493  11.238  19.926  0.00  0.00     0.000 A 
HETATM   18  C   UNK N   1      35.183  12.562  19.617  0.00  0.00     0.001 A 
HETATM   19  C   UNK N   1      35.193  12.986  18.288  0.00  0.00     0.012 A 
ENDBRANCH   3  14
TORSDOF 4
ENDMDL
MODEL 3
REMARK VINA RESULT:      -6.6     11.635     14.197
REMARK  4 active torsions:
REMARK  status: ('A' for Active; 'I' for Inactive)
REMARK    1  A    between atoms: O_2  and  C_13 
REMARK    2  A    between atoms: C_4  and  C_5 
REMARK    3  A    between atoms: C_4  and  C_13 
REMARK    4  A    between atoms: C_6  and  C_12 
ROOT
HETATM    1  F   UNK N   1      27.927  20.985   6.550  0.00  0.00    -0.205 F 
HETATM    2  C   UNK N   1      25.355  19.173   4.668  0.00  0.00    -0.041 A 
HETATM    3  C   UNK N   1      27.649  18.604   6.220  0.00  0.00     0.013 A 
HETATM    4  C   UNK N   1      26.099  20.218   5.243  0.00  0.00     0.051 A 
HETATM    5  C   UNK N   1      25.769  17.857   4.878  0.00  0.00     0.009 A 
HETATM    6  C   UNK N   1      27.240  19.945   6.015  0.00  0.00     0.128 A 
HETATM    7  C   UNK N   1      26.895  17.577   5.639  0.00  0.00     0.016 A 
ENDROOT
BRANCH   2   8
HETATM    8  C   UNK N   1      24.125  19.454   3.835  0.00  0.00     0.112 C 
HETATM    9  C   UNK N   1      22.908  18.550   3.965  0.00  0.00     0.026 C 
BRANCH   8  10
HETATM   10  C   UNK N   1      24.047  20.611   2.862  0.00  0.00     0.148 C 
HETATM   11  O   UNK N   1      23.132  21.420   2.921  0.00  0.00    -0.649 OA
BRANCH  10  12
HETATM   12  O   UNK N   1      24.992  20.760   1.916  0.00  0.00    -0.776 OA
HETATM   13  H   UNK N   1      25.336  20.009   1.475  0.00  0.00     0.167 HD
ENDBRANCH  10  12
ENDBRANCH   8  10
ENDBRANCH   2   8
BRANCH   3  14
HETATM   14  C   UNK N   1      28.846  18.224   7.024  0.00  0.00    -0.023 A 
HETATM   15  C   UNK N   1      29.867  17.416   6.501  0.00  0.00     0.012 A 
HETATM   16  C   UNK N   1      30.976  17.078   7.285  0.00  0.00     0.001 A 
HETATM   17  C   UNK N   1      31.076  17.545   8.599  0.00  0.00     0.000 A 
HETATM   18  C   UNK N   1      30.067  18.349   9.130  0.00  0.00     0.001 A 
HETATM   19  C   UNK N   1      28.962  18.685   8.348  0.00  0.00     0.012 A 
ENDBRANCH   3  14
TORSDOF 4
ENDMDL
MODEL 4
REMARK VINA RESULT:      -6.5      1.665      2.131
REMARK  4 active torsions:
REMARK  status: ('A' for Active; 'I' for Inactive)
REMARK    1  A    between atoms: O_2  and  C_13 
REMARK    2  A    between atoms: C_4  and  C_5 
REMARK    3  A    between atoms: C_4  and  C_13 
REMARK    4  A    between atoms: C_6  and  C_12 
ROOT
HETATM    1  F   UNK N   1      33.860  11.314  14.985  0.00  0.00    -0.205 F 
HETATM    2  C   UNK N   1      35.887  13.812  13.228  0.00  0.00    -0.041 A 
HETATM    3  C   UNK N   1      35.548  12.816  15.851  0.00  0.00     0.013 A 
HETATM    4  C   UNK N   1      34.951  12.796  13.484  0.00  0.00     0.051 A 
HETATM    5  C   UNK N   1      36.641  14.316  14.288  0.00  0.00     0.009 A 
HETATM    6  C   UNK N   1      34.775  12.295  14.784  0.00  0.00     0.128 A 
HETATM    7  C   UNK N   1      36.475  13.828  15.575  0.00  0.00     0.016 A 
ENDROOT
BRANCH   2   8
HETATM    8  C   UNK N   1      36.085  14.360  11.832  0.00  0.00     0.112 C 
HETATM    9  C   UNK N   1      35.390  15.651  11.427  0.00  0.00     0.026 C 
BRANCH   8  10
HETATM   10  C   UNK N   1      36.956  13.672  10.803  0.00  0.00     0.148 C 
HETATM   11  O   UNK N   1      36.476  13.231   9.768  0.00  0.00    -0.649 OA
BRANCH  10  12
HETATM   12  O   UNK N   1      38.277  13.539  11.020  0.00  0.00    -0.776 OA
HETATM   13  H   UNK N   1      38.781  12.951  10.493  0.00  0.00     0.167 HD
ENDBRANCH  10  12
ENDBRANCH   8  10
ENDBRANCH   2   8
BRANCH   3  14
HETATM   14  C   UNK N   1      35.427  12.343  17.260  0.00  0.00    -0.023 A 
HETATM   15  C   UNK N   1      35.134  13.220  18.316  0.00  0.00     0.012 A 
HETATM   16  C   UNK N   1      35.028  12.741  19.627  0.00  0.00     0.001 A 
HETATM   17  C   UNK N   1      35.214  11.382  19.895  0.00  0.00     0.000 A 
HETATM   18  C   UNK N   1      35.505  10.501  18.855  0.00  0.00     0.001 A 
HETATM   19  C   UNK N   1      35.611  10.978  17.548  0.00  0.00     0.012 A 
ENDBRANCH   3  14
TORSDOF 4
ENDMDL
MODEL 5
REMARK VINA RESULT:      -6.4      3.310      5.028
REMARK  4 active torsions:
REMARK  status: ('A' for Active; 'I' for Inactive)
REMARK    1  A    between atoms: O_2  and  C_13 
REMARK    2  A    between atoms: C_4  and  C_5 
REMARK    3  A    between atoms: C_4  and  C_13 
REMARK    4  A    between atoms: C_6  and  C_12 
ROOT
HETATM    1  F   UNK N   1      34.261  12.637  10.515  0.00  0.00    -0.205 F 
HETATM    2  C   UNK N   1      34.316  16.212   9.707  0.00  0.00    -0.041 A 
HETATM    3  C   UNK N   1      35.528  14.429  11.535  0.00  0.00     0.013 A 
HETATM    4  C   UNK N   1      34.000  14.843   9.676  0.00  0.00     0.051 A 
HETATM    5  C   UNK N   1      35.234  16.671  10.651  0.00  0.00     0.009 A 
HETATM    6  C   UNK N   1      34.596  13.950  10.580  0.00  0.00     0.128 A 
HETATM    7  C   UNK N   1      35.829  15.797  11.549  0.00  0.00     0.016 A 
ENDROOT
BRANCH   2   8
HETATM    8  C   UNK N   1      33.679  17.184   8.738  0.00  0.00     0.112 C 
HETATM    9  C   UNK N   1      32.164  17.228   8.606  0.00  0.00     0.026 C 
BRANCH   8  10
HETATM   10  C   UNK N   1      34.492  18.130   7.881  0.00  0.00     0.148 C 
HETATM   11  O   UNK N   1      34.628  17.931   6.682  0.00  0.00    -0.649 OA
BRANCH  10  12
HETATM   12  O   UNK N   1      35.078  19.206   8.435  0.00  0.00    -0.776 OA
HETATM   13  H   UNK N   1      35.176  19.994   7.939  0.00  0.00     0.167 HD
ENDBRANCH  10  12
ENDBRANCH   8  10
ENDBRANCH   2   8
BRANCH   3  14
HETATM   14  C   UNK N   1      36.208  13.553  12.531  0.00  0.00    -0.023 A 
HETATM   15  C   UNK N   1      36.114  13.784  13.912  0.00  0.00     0.012 A 
HETATM   16  C   UNK N   1      36.766  12.940  14.819  0.00  0.00     0.001 A 
HETATM   17  C   UNK N   1      37.519  11.858  14.354  0.00  0.00     0.000 A 
HETATM   18  C   UNK N   1      37.620  11.618  12.984  0.00  0.00     0.001 A 
HETATM   19  C   UNK N   1      36.970  12.459  12.081  0.00  0.00     0.012 A 
ENDBRANCH   3  14
TORSDOF 4
ENDMDL
MODEL 6
REMARK VINA RESULT:      -6.3     25.590     26.828
REMARK  4 active torsions:
REMARK  status: ('A' for Active; 'I' for Inactive)
REMARK    1  A    between atoms: O_2  and  C_13 
REMARK    2  A    between atoms: C_4  and  C_5 
REMARK    3  A    between atoms: C_4  and  C_13 
REMARK    4  A    between atoms: C_6  and  C_12 
ROOT
HETATM    1  F   UNK N   1      26.126  26.626  -8.566  0.00  0.00    -0.205 F 
HETATM    2  C   UNK N   1      25.590  23.304  -7.112  0.00  0.00    -0.041 A 
HETATM    3  C   UNK N   1      26.175  25.932  -6.249  0.00  0.00     0.013 A 
HETATM    4  C   UNK N   1      25.720  24.345  -8.048  0.00  0.00     0.051 A 
HETATM    5  C   UNK N   1      25.755  23.592  -5.757  0.00  0.00     0.009 A 
HETATM    6  C   UNK N   1      26.010  25.653  -7.628  0.00  0.00     0.128 A 
HETATM    7  C   UNK N   1      26.042  24.881  -5.333  0.00  0.00     0.016 A 
ENDROOT
BRANCH   2   8
HETATM    8  C   UNK N   1      25.278  21.891  -7.552  0.00  0.00     0.112 C 
HETATM    9  C   UNK N   1      24.319  21.044  -6.728  0.00  0.00     0.026 C 
BRANCH   8  10
HETATM   10  C   UNK N   1      25.884  21.271  -8.792  0.00  0.00     0.148 C 
HETATM   11  O   UNK N   1      27.061  20.939  -8.817  0.00  0.00    -0.649 OA
BRANCH  10  12
HETATM   12  O   UNK N   1      25.127  21.078  -9.887  0.00  0.00    -0.776 OA
HETATM   13  H   UNK N   1      24.827  20.217 -10.103  0.00  0.00     0.167 HD
ENDBRANCH  10  12
ENDBRANCH   8  10
ENDBRANCH   2   8
BRANCH   3  14
HETATM   14  C   UNK N   1      26.484  27.290  -5.716  0.00  0.00    -0.023 A 
HETATM   15  C   UNK N   1      27.435  28.127  -6.319  0.00  0.00     0.012 A 
HETATM   16  C   UNK N   1      27.700  29.396  -5.792  0.00  0.00     0.001 A 
HETATM   17  C   UNK N   1      27.017  29.840  -4.657  0.00  0.00     0.000 A 
HETATM   18  C   UNK N   1      26.068  29.018  -4.048  0.00  0.00     0.001 A 
HETATM   19  C   UNK N   1      25.805  27.753  -4.574  0.00  0.00     0.012 A 
ENDBRANCH   3  14
TORSDOF 4
ENDMDL
MODEL 7
REMARK VINA RESULT:      -6.2      9.248     13.003
REMARK  4 active torsions:
REMARK  status: ('A' for Active; 'I' for Inactive)
REMARK    1  A    between atoms: O_2  and  C_13 
REMARK    2  A    between atoms: C_4  and  C_5 
REMARK    3  A    between atoms: C_4  and  C_13 
REMARK    4  A    between atoms: C_6  and  C_12 
ROOT
HETATM    1  F   UNK N   1      28.142  18.124   7.555  0.00  0.00    -0.205 F 
HETATM    2  C   UNK N   1      31.494  17.025   6.559  0.00  0.00    -0.041 A 
HETATM    3  C   UNK N   1      29.121  17.968   5.347  0.00  0.00     0.013 A 
HETATM    4  C   UNK N   1      30.378  17.352   7.348  0.00  0.00     0.051 A 
HETATM    5  C   UNK N   1      31.408  17.174   5.175  0.00  0.00     0.009 A 
HETATM    6  C   UNK N   1      29.195  17.821   6.755  0.00  0.00     0.128 A 
HETATM    7  C   UNK N   1      30.244  17.637   4.579  0.00  0.00     0.016 A 
ENDROOT
BRANCH   2   8
HETATM    8  C   UNK N   1      32.774  16.519   7.186  0.00  0.00     0.112 C 
HETATM    9  C   UNK N   1      32.706  15.481   8.297  0.00  0.00     0.026 C 
BRANCH   8  10
HETATM   10  C   UNK N   1      34.141  17.004   6.754  0.00  0.00     0.148 C 
HETATM   11  O   UNK N   1      34.894  16.277   6.121  0.00  0.00    -0.649 OA
BRANCH  10  12
HETATM   12  O   UNK N   1      34.542  18.250   7.064  0.00  0.00    -0.776 OA
HETATM   13  H   UNK N   1      34.203  18.675   7.827  0.00  0.00     0.167 HD
ENDBRANCH  10  12
ENDBRANCH   8  10
ENDBRANCH   2   8
BRANCH   3  14
HETATM   14  C   UNK N   1      27.906  18.458   4.635  0.00  0.00    -0.023 A 
HETATM   15  C   UNK N   1      26.897  17.586   4.198  0.00  0.00     0.012 A 
HETATM   16  C   UNK N   1      25.770  18.081   3.532  0.00  0.00     0.001 A 
HETATM   17  C   UNK N   1      25.641  19.453   3.296  0.00  0.00     0.000 A 
HETATM   18  C   UNK N   1      26.638  20.330   3.725  0.00  0.00     0.001 A 
HETATM   19  C   UNK N   1      27.760  19.836   4.388  0.00  0.00     0.012 A 
ENDBRANCH   3  14
TORSDOF 4
ENDMDL
MODEL 8
REMARK VINA RESULT:      -6.2      8.831     12.516
REMARK  4 active torsions:
REMARK  status: ('A' for Active; 'I' for Inactive)
REMARK    1  A    between atoms: O_2  and  C_13 
REMARK    2  A    between atoms: C_4  and  C_5 
REMARK    3  A    between atoms: C_4  and  C_13 
REMARK    4  A    between atoms: C_6  and  C_12 
ROOT
HETATM    1  F   UNK N   1      27.994  18.783   8.252  0.00  0.00    -0.205 F 
HETATM    2  C   UNK N   1      31.161  16.997   7.786  0.00  0.00    -0.041 A 
HETATM    3  C   UNK N   1      29.026  17.981   6.216  0.00  0.00     0.013 A 
HETATM    4  C   UNK N   1      30.081  17.659   8.394  0.00  0.00     0.051 A 
HETATM    5  C   UNK N   1      31.159  16.836   6.400  0.00  0.00     0.009 A 
HETATM    6  C   UNK N   1      29.016  18.151   7.622  0.00  0.00     0.128 A 
HETATM    7  C   UNK N   1      30.112  17.319   5.629  0.00  0.00     0.016 A 
ENDROOT
BRANCH   2   8
HETATM    8  C   UNK N   1      32.314  16.463   8.606  0.00  0.00     0.112 C 
HETATM    9  C   UNK N   1      33.597  17.274   8.717  0.00  0.00     0.026 C 
BRANCH   8  10
HETATM   10  C   UNK N   1      32.250  15.138   9.335  0.00  0.00     0.148 C 
HETATM   11  O   UNK N   1      32.171  14.085   8.717  0.00  0.00    -0.649 OA
BRANCH  10  12
HETATM   12  O   UNK N   1      32.280  15.106  10.679  0.00  0.00    -0.776 OA
HETATM   13  H   UNK N   1      31.613  15.539  11.173  0.00  0.00     0.167 HD
ENDBRANCH  10  12
ENDBRANCH   8  10
ENDBRANCH   2   8
BRANCH   3  14
HETATM   14  C   UNK N   1      27.939  18.470   5.321  0.00  0.00    -0.023 A 
HETATM   15  C   UNK N   1      28.001  19.724   4.692  0.00  0.00     0.012 A 
HETATM   16  C   UNK N   1      26.962  20.151   3.858  0.00  0.00     0.001 A 
HETATM   17  C   UNK N   1      25.851  19.331   3.644  0.00  0.00     0.000 A 
HETATM   18  C   UNK N   1      25.777  18.083   4.263  0.00  0.00     0.001 A 
HETATM   19  C   UNK N   1      26.813  17.657   5.094  0.00  0.00     0.012 A 
ENDBRANCH   3  14
TORSDOF 4
ENDMDL
MODEL 9
REMARK VINA RESULT:      -5.9      8.055     10.854
REMARK  4 active torsions:
REMARK  status: ('A' for Active; 'I' for Inactive)
REMARK    1  A    between atoms: O_2  and  C_13 
REMARK    2  A    between atoms: C_4  and  C_5 
REMARK    3  A    between atoms: C_4  and  C_13 
REMARK    4  A    between atoms: C_6  and  C_12 
ROOT
HETATM    1  F   UNK N   1      30.121  18.583   9.920  0.00  0.00    -0.205 F 
HETATM    2  C   UNK N   1      28.462  18.433   6.654  0.00  0.00    -0.041 A 
HETATM    3  C   UNK N   1      30.798  17.440   7.897  0.00  0.00     0.013 A 
HETATM    4  C   UNK N   1      28.737  18.745   7.996  0.00  0.00     0.051 A 
HETATM    5  C   UNK N   1      29.359  17.628   5.952  0.00  0.00     0.009 A 
HETATM    6  C   UNK N   1      29.895  18.256   8.622  0.00  0.00     0.128 A 
HETATM    7  C   UNK N   1      30.506  17.140   6.561  0.00  0.00     0.016 A 
ENDROOT
BRANCH   2   8
HETATM    8  C   UNK N   1      27.218  18.954   5.969  0.00  0.00     0.112 C 
HETATM    9  C   UNK N   1      26.395  18.018   5.096  0.00  0.00     0.026 C 
BRANCH   8  10
HETATM   10  C   UNK N   1      26.747  20.385   6.114  0.00  0.00     0.148 C 
HETATM   11  O   UNK N   1      27.025  21.225   5.269  0.00  0.00    -0.649 OA
BRANCH  10  12
HETATM   12  O   UNK N   1      26.013  20.747   7.180  0.00  0.00    -0.776 OA
HETATM   13  H   UNK N   1      25.218  20.293   7.379  0.00  0.00     0.167 HD
ENDBRANCH  10  12
ENDBRANCH   8  10
ENDBRANCH   2   8
BRANCH   3  14
HETATM   14  C   UNK N   1      32.050  16.878   8.482  0.00  0.00    -0.023 A 
HETATM   15  C   UNK N   1      32.103  15.584   9.022  0.00  0.00     0.012 A 
HETATM   16  C   UNK N   1      33.295  15.089   9.563  0.00  0.00     0.001 A 
HETATM   17  C   UNK N   1      34.446  15.883   9.569  0.00  0.00     0.000 A 
HETATM   18  C   UNK N   1      34.406  17.171   9.035  0.00  0.00     0.001 A 
HETATM   19  C   UNK N   1      33.217  17.664   8.497  0.00  0.00     0.012 A 
ENDBRANCH   3  14
TORSDOF 4
ENDMDL
