MODEL 1
REMARK VINA RESULT:      -8.2      0.000      0.000
REMARK  5 active torsions:
REMARK  status: ('A' for Active; 'I' for Inactive)
REMARK    1  A    between atoms: O_3  and  C_18 
REMARK    2  A    between atoms: C_14  and  N_8 
REMARK       I    between atoms: N_8  and  C_19 
REMARK    3  A    between atoms: C_13  and  C_18 
REMARK    4  A    between atoms: C_19  and  C_20 
REMARK    5  A    between atoms: C_21  and  C_23 
ROOT
HETATM    1  O   UNK N   1      36.814  13.588  13.395  0.00  0.00    -0.267 OA
HETATM    2  N   UNK N   1      34.968  14.116  12.279  0.00  0.00    -0.341 N 
HETATM    3  C   UNK N   1      35.652  13.320  13.118  0.00  0.00     0.257 C 
HETATM    4  H   UNK N   1      34.089  14.466  12.548  0.00  0.00     0.163 HD
ENDROOT
BRANCH   2   5
HETATM    5  C   UNK N   1      35.508  14.462  10.992  0.00  0.00     0.210 A 
HETATM    6  C   UNK N   1      34.380  14.384   9.842  0.00  0.00     0.183 A 
HETATM    7  S   UNK N   1      33.081  14.042   8.613  0.00  0.00    -0.129 SA
HETATM    8  N   UNK N   1      34.685  15.742   9.591  0.00  0.00    -0.318 N 
HETATM    9  C   UNK N   1      33.952  15.173   7.437  0.00  0.00     0.033 C 
HETATM   10  C   UNK N   1      34.565  16.330   8.286  0.00  0.00     0.204 C 
HETATM   11  C   UNK N   1      35.080  14.383   6.791  0.00  0.00     0.029 C 
HETATM   12  C   UNK N   1      33.027  15.608   6.315  0.00  0.00     0.029 C 
HETATM   13  C   UNK N   1      35.543  15.881  10.556  0.00  0.00     0.247 A 
HETATM   14  O   UNK N   1      36.437  16.711  10.609  0.00  0.00    -0.271 OA
BRANCH  10  15
HETATM   15  C   UNK N   1      33.852  17.657   8.382  0.00  0.00     0.165 C 
HETATM   16  O   UNK N   1      34.355  18.686   7.962  0.00  0.00    -0.648 OA
BRANCH  15  17
HETATM   17  O   UNK N   1      32.654  17.710   8.995  0.00  0.00    -0.775 OA
HETATM   18  H   UNK N   1      32.095  16.959   9.023  0.00  0.00     0.167 HD
ENDBRANCH  15  17
ENDBRANCH  10  15
ENDBRANCH   2   5
BRANCH   3  19
HETATM   19  C   UNK N   1      35.072  12.016  13.553  0.00  0.00     0.092 A 
HETATM   20  C   UNK N   1      34.804  11.496  14.839  0.00  0.00     0.083 A 
HETATM   21  N   UNK N   1      34.192  10.304  14.685  0.00  0.00    -0.259 N 
HETATM   22  O   UNK N   1      34.066  10.070  13.409  0.00  0.00    -0.241 OA
ATOM     23  HN  UNK N   1      33.880   9.690  15.438  1.00  0.00     0.195 HD
HETATM   24  C   UNK N   1      34.561  11.052  12.700  0.00  0.00     0.090 A 
HETATM   25  C   UNK N   1      34.538  11.082  11.209  0.00  0.00     0.080 C 
BRANCH  20  26
HETATM   26  C   UNK N   1      35.004  12.068  16.210  0.00  0.00    -0.006 A 
HETATM   27  C   UNK N   1      35.202  11.189  17.289  0.00  0.00     0.014 A 
HETATM   28  C   UNK N   1      35.355  11.677  18.592  0.00  0.00     0.001 A 
HETATM   29  C   UNK N   1      35.310  13.051  18.835  0.00  0.00     0.000 A 
HETATM   30  C   UNK N   1      35.114  13.933  17.776  0.00  0.00     0.001 A 
HETATM   31  C   UNK N   1      34.962  13.438  16.479  0.00  0.00     0.014 A 
ENDBRANCH  20  26
ENDBRANCH   3  19
TORSDOF 5
ENDMDL
MODEL 2
REMARK VINA RESULT:      -7.8     19.216     22.178
REMARK  5 active torsions:
REMARK  status: ('A' for Active; 'I' for Inactive)
REMARK    1  A    between atoms: O_3  and  C_18 
REMARK    2  A    between atoms: C_14  and  N_8 
REMARK       I    between atoms: N_8  and  C_19 
REMARK    3  A    between atoms: C_13  and  C_18 
REMARK    4  A    between atoms: C_19  and  C_20 
REMARK    5  A    between atoms: C_21  and  C_23 
ROOT
HETATM    1  O   UNK N   1      26.347  24.301  -3.180  0.00  0.00    -0.267 OA
HETATM    2  N   UNK N   1      28.344  24.802  -4.010  0.00  0.00    -0.341 N 
HETATM    3  C   UNK N   1      27.002  24.827  -4.070  0.00  0.00     0.257 C 
HETATM    4  H   UNK N   1      28.850  25.641  -4.101  0.00  0.00     0.163 HD
ENDROOT
BRANCH   2   5
HETATM    5  C   UNK N   1      29.047  23.564  -3.814  0.00  0.00     0.210 A 
HETATM    6  C   UNK N   1      29.700  23.035  -5.191  0.00  0.00     0.183 A 
HETATM    7  S   UNK N   1      30.188  22.436  -6.840  0.00  0.00    -0.129 SA
HETATM    8  N   UNK N   1      30.935  23.071  -4.504  0.00  0.00    -0.318 N 
HETATM    9  C   UNK N   1      31.467  21.373  -6.031  0.00  0.00     0.033 C 
HETATM   10  C   UNK N   1      32.010  22.167  -4.802  0.00  0.00     0.204 C 
HETATM   11  C   UNK N   1      30.771  20.114  -5.536  0.00  0.00     0.029 C 
HETATM   12  C   UNK N   1      32.516  20.926  -7.032  0.00  0.00     0.029 C 
HETATM   13  C   UNK N   1      30.473  23.573  -3.398  0.00  0.00     0.247 A 
HETATM   14  O   UNK N   1      30.983  23.472  -2.294  0.00  0.00    -0.271 OA
BRANCH  10  15
HETATM   15  C   UNK N   1      33.310  22.927  -4.907  0.00  0.00     0.165 C 
HETATM   16  O   UNK N   1      33.346  24.084  -5.289  0.00  0.00    -0.648 OA
BRANCH  15  17
HETATM   17  O   UNK N   1      34.461  22.290  -4.619  0.00  0.00    -0.775 OA
HETATM   18  H   UNK N   1      34.578  21.386  -4.836  0.00  0.00     0.167 HD
ENDBRANCH  15  17
ENDBRANCH  10  15
ENDBRANCH   2   5
BRANCH   3  19
HETATM   19  C   UNK N   1      26.316  25.311  -5.303  0.00  0.00     0.092 A 
HETATM   20  C   UNK N   1      26.093  26.616  -5.796  0.00  0.00     0.083 A 
HETATM   21  N   UNK N   1      25.500  26.507  -7.003  0.00  0.00    -0.259 N 
HETATM   22  O   UNK N   1      25.355  25.241  -7.276  0.00  0.00    -0.241 OA
ATOM     23  HN  UNK N   1      25.214  27.283  -7.600  1.00  0.00     0.195 HD
HETATM   24  C   UNK N   1      25.827  24.495  -6.310  0.00  0.00     0.090 A 
HETATM   25  C   UNK N   1      25.827  23.004  -6.348  0.00  0.00     0.080 C 
BRANCH  20  26
HETATM   26  C   UNK N   1      26.467  27.964  -5.260  0.00  0.00    -0.006 A 
HETATM   27  C   UNK N   1      27.423  28.728  -5.951  0.00  0.00     0.014 A 
HETATM   28  C   UNK N   1      27.831  29.976  -5.465  0.00  0.00     0.001 A 
HETATM   29  C   UNK N   1      27.289  30.478  -4.281  0.00  0.00     0.000 A 
HETATM   30  C   UNK N   1      26.340  29.733  -3.586  0.00  0.00     0.001 A 
HETATM   31  C   UNK N   1      25.940  28.488  -4.076  0.00  0.00     0.014 A 
ENDBRANCH  20  26
ENDBRANCH   3  19
TORSDOF 5
ENDMDL
MODEL 3
REMARK VINA RESULT:      -7.5      1.186      4.014
REMARK  5 active torsions:
REMARK  status: ('A' for Active; 'I' for Inactive)
REMARK    1  A    between atoms: O_3  and  C_18 
REMARK    2  A    between atoms: C_14  and  N_8 
REMARK       I    between atoms: N_8  and  C_19 
REMARK    3  A    between atoms: C_13  and  C_18 
REMARK    4  A    between atoms: C_19  and  C_20 
REMARK    5  A    between atoms: C_21  and  C_23 
ROOT
HETATM    1  O   UNK N   1      37.031  13.207  13.050  0.00  0.00    -0.267 OA
HETATM    2  N   UNK N   1      35.319  14.510  12.499  0.00  0.00    -0.341 N 
HETATM    3  C   UNK N   1      35.821  13.391  13.049  0.00  0.00     0.257 C 
HETATM    4  H   UNK N   1      34.699  15.071  13.017  0.00  0.00     0.163 HD
ENDROOT
BRANCH   2   5
HETATM    5  C   UNK N   1      35.680  14.895  11.162  0.00  0.00     0.210 A 
HETATM    6  C   UNK N   1      34.570  14.418  10.093  0.00  0.00     0.183 A 
HETATM    7  S   UNK N   1      33.367  13.634   8.974  0.00  0.00    -0.129 SA
HETATM    8  N   UNK N   1      34.465  15.783   9.742  0.00  0.00    -0.318 N 
HETATM    9  C   UNK N   1      33.827  14.871   7.679  0.00  0.00     0.033 C 
HETATM   10  C   UNK N   1      34.124  16.214   8.415  0.00  0.00     0.204 C 
HETATM   11  C   UNK N   1      35.103  14.382   7.009  0.00  0.00     0.029 C 
HETATM   12  C   UNK N   1      32.767  14.943   6.594  0.00  0.00     0.029 C 
HETATM   13  C   UNK N   1      35.291  16.230  10.639  0.00  0.00     0.247 A 
HETATM   14  O   UNK N   1      35.914  17.278  10.585  0.00  0.00    -0.271 OA
BRANCH  10  15
HETATM   15  C   UNK N   1      33.070  17.292   8.477  0.00  0.00     0.165 C 
HETATM   16  O   UNK N   1      33.225  18.373   7.935  0.00  0.00    -0.648 OA
BRANCH  15  17
HETATM   17  O   UNK N   1      31.953  17.069   9.196  0.00  0.00    -0.775 OA
HETATM   18  H   UNK N   1      31.915  17.285  10.107  0.00  0.00     0.167 HD
ENDBRANCH  15  17
ENDBRANCH  10  15
ENDBRANCH   2   5
BRANCH   3  19
HETATM   19  C   UNK N   1      34.908  12.292  13.476  0.00  0.00     0.092 A 
HETATM   20  C   UNK N   1      34.371  11.194  12.766  0.00  0.00     0.083 A 
HETATM   21  N   UNK N   1      33.670  10.440  13.637  0.00  0.00    -0.259 N 
HETATM   22  O   UNK N   1      33.748  10.994  14.814  0.00  0.00    -0.241 OA
ATOM     23  HN  UNK N   1      33.165   9.582  13.413  1.00  0.00     0.195 HD
HETATM   24  C   UNK N   1      34.473  12.083  14.775  0.00  0.00     0.090 A 
HETATM   25  C   UNK N   1      34.765  12.920  15.974  0.00  0.00     0.080 C 
BRANCH  20  26
HETATM   26  C   UNK N   1      34.532  10.750  11.344  0.00  0.00    -0.006 A 
HETATM   27  C   UNK N   1      33.455  10.108  10.708  0.00  0.00     0.014 A 
HETATM   28  C   UNK N   1      33.573   9.641   9.394  0.00  0.00     0.001 A 
HETATM   29  C   UNK N   1      34.770   9.809   8.696  0.00  0.00     0.000 A 
HETATM   30  C   UNK N   1      35.845  10.444   9.313  0.00  0.00     0.001 A 
HETATM   31  C   UNK N   1      35.719  10.905  10.625  0.00  0.00     0.014 A 
ENDBRANCH  20  26
ENDBRANCH   3  19
TORSDOF 5
ENDMDL
MODEL 4
REMARK VINA RESULT:      -7.4      2.766      4.205
REMARK  5 active torsions:
REMARK  status: ('A' for Active; 'I' for Inactive)
REMARK    1  A    between atoms: O_3  and  C_18 
REMARK    2  A    between atoms: C_14  and  N_8 
REMARK       I    between atoms: N_8  and  C_19 
REMARK    3  A    between atoms: C_13  and  C_18 
REMARK    4  A    between atoms: C_19  and  C_20 
REMARK    5  A    between atoms: C_21  and  C_23 
ROOT
HETATM    1  O   UNK N   1      37.539  12.647  15.044  0.00  0.00    -0.267 OA
HETATM    2  N   UNK N   1      36.682  14.425  14.027  0.00  0.00    -0.341 N 
HETATM    3  C   UNK N   1      36.976  13.730  15.139  0.00  0.00     0.257 C 
HETATM    4  H   UNK N   1      36.962  15.365  13.954  0.00  0.00     0.163 HD
ENDROOT
BRANCH   2   5
HETATM    5  C   UNK N   1      35.964  13.809  12.945  0.00  0.00     0.210 A 
HETATM    6  C   UNK N   1      35.703  14.855  11.744  0.00  0.00     0.183 A 
HETATM    7  S   UNK N   1      35.279  16.180  10.570  0.00  0.00    -0.129 SA
HETATM    8  N   UNK N   1      36.394  13.934  10.925  0.00  0.00    -0.318 N 
HETATM    9  C   UNK N   1      35.045  14.892   9.264  0.00  0.00     0.033 C 
HETATM   10  C   UNK N   1      36.105  13.778   9.527  0.00  0.00     0.204 C 
HETATM   11  C   UNK N   1      33.654  14.303   9.443  0.00  0.00     0.029 C 
HETATM   12  C   UNK N   1      35.080  15.510   7.877  0.00  0.00     0.029 C 
HETATM   13  C   UNK N   1      36.701  13.097  11.870  0.00  0.00     0.247 A 
HETATM   14  O   UNK N   1      36.955  11.912  11.727  0.00  0.00    -0.271 OA
BRANCH  10  15
HETATM   15  C   UNK N   1      37.389  13.752   8.734  0.00  0.00     0.165 C 
HETATM   16  O   UNK N   1      37.495  13.106   7.705  0.00  0.00    -0.648 OA
BRANCH  15  17
HETATM   17  O   UNK N   1      38.459  14.419   9.207  0.00  0.00    -0.775 OA
HETATM   18  H   UNK N   1      39.312  14.281   8.843  0.00  0.00     0.167 HD
ENDBRANCH  15  17
ENDBRANCH  10  15
ENDBRANCH   2   5
BRANCH   3  19
HETATM   19  C   UNK N   1      36.447  14.172  16.461  0.00  0.00     0.092 A 
HETATM   20  C   UNK N   1      35.743  13.473  17.467  0.00  0.00     0.083 A 
HETATM   21  N   UNK N   1      35.573  14.310  18.512  0.00  0.00    -0.259 N 
HETATM   22  O   UNK N   1      36.125  15.453  18.215  0.00  0.00    -0.241 OA
ATOM     23  HN  UNK N   1      35.096  14.086  19.385  1.00  0.00     0.195 HD
HETATM   24  C   UNK N   1      36.661  15.421  17.022  0.00  0.00     0.090 A 
HETATM   25  C   UNK N   1      37.388  16.574  16.417  0.00  0.00     0.080 C 
BRANCH  20  26
HETATM   26  C   UNK N   1      35.285  12.050  17.561  0.00  0.00    -0.006 A 
HETATM   27  C   UNK N   1      35.278  11.420  18.817  0.00  0.00     0.014 A 
HETATM   28  C   UNK N   1      34.895  10.080  18.946  0.00  0.00     0.001 A 
HETATM   29  C   UNK N   1      34.514   9.350  17.819  0.00  0.00     0.000 A 
HETATM   30  C   UNK N   1      34.515   9.960  16.567  0.00  0.00     0.001 A 
HETATM   31  C   UNK N   1      34.900  11.297  16.448  0.00  0.00     0.014 A 
ENDBRANCH  20  26
ENDBRANCH   3  19
TORSDOF 5
ENDMDL
MODEL 5
REMARK VINA RESULT:      -7.3      2.278      3.495
REMARK  5 active torsions:
REMARK  status: ('A' for Active; 'I' for Inactive)
REMARK    1  A    between atoms: O_3  and  C_18 
REMARK    2  A    between atoms: C_14  and  N_8 
REMARK       I    between atoms: N_8  and  C_19 
REMARK    3  A    between atoms: C_13  and  C_18 
REMARK    4  A    between atoms: C_19  and  C_20 
REMARK    5  A    between atoms: C_21  and  C_23 
ROOT
HETATM    1  O   UNK N   1      34.185  14.770  11.362  0.00  0.00    -0.267 OA
HETATM    2  N   UNK N   1      34.658  14.035   9.321  0.00  0.00    -0.341 N 
HETATM    3  C   UNK N   1      34.906  14.095  10.640  0.00  0.00     0.257 C 
HETATM    4  H   UNK N   1      34.578  13.160   8.880  0.00  0.00     0.163 HD
ENDROOT
BRANCH   2   5
HETATM    5  C   UNK N   1      34.505  15.238   8.548  0.00  0.00     0.210 A 
HETATM    6  C   UNK N   1      33.129  15.225   7.707  0.00  0.00     0.183 A 
HETATM    7  S   UNK N   1      31.669  14.989   6.645  0.00  0.00    -0.129 SA
HETATM    8  N   UNK N   1      32.815  16.421   8.392  0.00  0.00    -0.318 N 
HETATM    9  C   UNK N   1      31.565  16.825   6.449  0.00  0.00     0.033 C 
HETATM   10  C   UNK N   1      32.007  17.454   7.807  0.00  0.00     0.204 C 
HETATM   11  C   UNK N   1      32.560  17.229   5.372  0.00  0.00     0.029 C 
HETATM   12  C   UNK N   1      30.192  17.243   5.953  0.00  0.00     0.029 C 
HETATM   13  C   UNK N   1      33.869  16.437   9.151  0.00  0.00     0.247 A 
HETATM   14  O   UNK N   1      34.361  17.421   9.679  0.00  0.00    -0.271 OA
BRANCH  10  15
HETATM   15  C   UNK N   1      30.968  17.920   8.799  0.00  0.00     0.165 C 
HETATM   16  O   UNK N   1      30.694  19.100   8.934  0.00  0.00    -0.648 OA
BRANCH  15  17
HETATM   17  O   UNK N   1      30.369  17.009   9.589  0.00  0.00    -0.775 OA
HETATM   18  H   UNK N   1      30.466  16.091   9.425  0.00  0.00     0.167 HD
ENDBRANCH  15  17
ENDBRANCH  10  15
ENDBRANCH   2   5
BRANCH   3  19
HETATM   19  C   UNK N   1      36.161  13.507  11.193  0.00  0.00     0.092 A 
HETATM   20  C   UNK N   1      36.393  12.701  12.331  0.00  0.00     0.083 A 
HETATM   21  N   UNK N   1      37.698  12.361  12.338  0.00  0.00    -0.259 N 
HETATM   22  O   UNK N   1      38.266  12.893  11.293  0.00  0.00    -0.241 OA
ATOM     23  HN  UNK N   1      38.161  11.786  13.041  1.00  0.00     0.195 HD
HETATM   24  C   UNK N   1      37.402  13.571  10.581  0.00  0.00     0.090 A 
HETATM   25  C   UNK N   1      37.751  14.271   9.312  0.00  0.00     0.080 C 
BRANCH  20  26
HETATM   26  C   UNK N   1      35.466  12.155  13.374  0.00  0.00    -0.006 A 
HETATM   27  C   UNK N   1      35.436  12.763  14.640  0.00  0.00     0.014 A 
HETATM   28  C   UNK N   1      34.614  12.262  15.657  0.00  0.00     0.001 A 
HETATM   29  C   UNK N   1      33.812  11.145  15.422  0.00  0.00     0.000 A 
HETATM   30  C   UNK N   1      33.830  10.532  14.171  0.00  0.00     0.001 A 
HETATM   31  C   UNK N   1      34.654  11.037  13.163  0.00  0.00     0.014 A 
ENDBRANCH  20  26
ENDBRANCH   3  19
TORSDOF 5
ENDMDL
MODEL 6
REMARK VINA RESULT:      -7.3     18.953     22.070
REMARK  5 active torsions:
REMARK  status: ('A' for Active; 'I' for Inactive)
REMARK    1  A    between atoms: O_3  and  C_18 
REMARK    2  A    between atoms: C_14  and  N_8 
REMARK       I    between atoms: N_8  and  C_19 
REMARK    3  A    between atoms: C_13  and  C_18 
REMARK    4  A    between atoms: C_19  and  C_20 
REMARK    5  A    between atoms: C_21  and  C_23 
ROOT
HETATM    1  O   UNK N   1      26.306  23.978  -2.996  0.00  0.00    -0.267 OA
HETATM    2  N   UNK N   1      28.370  24.566  -3.568  0.00  0.00    -0.341 N 
HETATM    3  C   UNK N   1      27.036  24.699  -3.664  0.00  0.00     0.257 C 
HETATM    4  H   UNK N   1      28.925  25.357  -3.384  0.00  0.00     0.163 HD
ENDROOT
BRANCH   2   5
HETATM    5  C   UNK N   1      28.992  23.280  -3.729  0.00  0.00     0.210 A 
HETATM    6  C   UNK N   1      29.674  23.137  -5.184  0.00  0.00     0.183 A 
HETATM    7  S   UNK N   1      30.200  23.019  -6.923  0.00  0.00    -0.129 SA
HETATM    8  N   UNK N   1      30.877  22.887  -4.486  0.00  0.00    -0.318 N 
HETATM    9  C   UNK N   1      31.379  21.681  -6.433  0.00  0.00     0.033 C 
HETATM   10  C   UNK N   1      31.911  22.040  -5.011  0.00  0.00     0.204 C 
HETATM   11  C   UNK N   1      30.592  20.382  -6.352  0.00  0.00     0.029 C 
HETATM   12  C   UNK N   1      32.444  21.479  -7.496  0.00  0.00     0.029 C 
HETATM   13  C   UNK N   1      30.396  23.071  -3.293  0.00  0.00     0.247 A 
HETATM   14  O   UNK N   1      30.851  22.615  -2.256  0.00  0.00    -0.271 OA
BRANCH  10  15
HETATM   15  C   UNK N   1      33.256  22.708  -4.853  0.00  0.00     0.165 C 
HETATM   16  O   UNK N   1      34.258  22.073  -4.575  0.00  0.00    -0.648 OA
BRANCH  15  17
HETATM   17  O   UNK N   1      33.334  24.048  -4.969  0.00  0.00    -0.775 OA
HETATM   18  H   UNK N   1      34.072  24.518  -4.635  0.00  0.00     0.167 HD
ENDBRANCH  15  17
ENDBRANCH  10  15
ENDBRANCH   2   5
BRANCH   3  19
HETATM   19  C   UNK N   1      26.445  25.575  -4.716  0.00  0.00     0.092 A 
HETATM   20  C   UNK N   1      26.136  25.328  -6.073  0.00  0.00     0.083 A 
HETATM   21  N   UNK N   1      25.532  26.427  -6.567  0.00  0.00    -0.259 N 
HETATM   22  O   UNK N   1      25.448  27.313  -5.615  0.00  0.00    -0.241 OA
ATOM     23  HN  UNK N   1      25.197  26.546  -7.524  1.00  0.00     0.195 HD
HETATM   24  C   UNK N   1      25.963  26.857  -4.502  0.00  0.00     0.090 A 
HETATM   25  C   UNK N   1      25.989  27.633  -3.229  0.00  0.00     0.080 C 
BRANCH  20  26
HETATM   26  C   UNK N   1      26.290  24.106  -6.926  0.00  0.00    -0.006 A 
HETATM   27  C   UNK N   1      26.902  24.230  -8.185  0.00  0.00     0.014 A 
HETATM   28  C   UNK N   1      27.032  23.122  -9.032  0.00  0.00     0.001 A 
HETATM   29  C   UNK N   1      26.552  21.874  -8.630  0.00  0.00     0.000 A 
HETATM   30  C   UNK N   1      25.944  21.736  -7.385  0.00  0.00     0.001 A 
HETATM   31  C   UNK N   1      25.817  22.846  -6.548  0.00  0.00     0.014 A 
ENDBRANCH  20  26
ENDBRANCH   3  19
TORSDOF 5
ENDMDL
MODEL 7
REMARK VINA RESULT:      -7.3      5.821     11.224
REMARK  5 active torsions:
REMARK  status: ('A' for Active; 'I' for Inactive)
REMARK    1  A    between atoms: O_3  and  C_18 
REMARK    2  A    between atoms: C_14  and  N_8 
REMARK       I    between atoms: N_8  and  C_19 
REMARK    3  A    between atoms: C_13  and  C_18 
REMARK    4  A    between atoms: C_19  and  C_20 
REMARK    5  A    between atoms: C_21  and  C_23 
ROOT
HETATM    1  O   UNK N   1      27.710  17.800   6.868  0.00  0.00    -0.267 OA
HETATM    2  N   UNK N   1      29.716  17.238   6.098  0.00  0.00    -0.341 N 
HETATM    3  C   UNK N   1      28.377  17.273   5.987  0.00  0.00     0.257 C 
HETATM    4  H   UNK N   1      30.274  17.565   5.356  0.00  0.00     0.163 HD
ENDROOT
BRANCH   2   5
HETATM    5  C   UNK N   1      30.340  16.729   7.288  0.00  0.00     0.210 A 
HETATM    6  C   UNK N   1      31.717  15.960   6.946  0.00  0.00     0.183 A 
HETATM    7  S   UNK N   1      33.121  14.934   6.409  0.00  0.00    -0.129 SA
HETATM    8  N   UNK N   1      32.333  16.883   7.822  0.00  0.00    -0.318 N 
HETATM    9  C   UNK N   1      33.848  15.115   8.100  0.00  0.00     0.033 C 
HETATM   10  C   UNK N   1      33.497  16.552   8.596  0.00  0.00     0.204 C 
HETATM   11  C   UNK N   1      33.166  14.100   9.004  0.00  0.00     0.029 C 
HETATM   12  C   UNK N   1      35.326  14.770   8.096  0.00  0.00     0.029 C 
HETATM   13  C   UNK N   1      31.269  17.586   8.068  0.00  0.00     0.247 A 
HETATM   14  O   UNK N   1      31.077  18.279   9.054  0.00  0.00    -0.271 OA
BRANCH  10  15
HETATM   15  C   UNK N   1      34.518  17.659   8.493  0.00  0.00     0.165 C 
HETATM   16  O   UNK N   1      35.197  17.995   9.448  0.00  0.00    -0.648 OA
BRANCH  15  17
HETATM   17  O   UNK N   1      34.640  18.325   7.329  0.00  0.00    -0.775 OA
HETATM   18  H   UNK N   1      35.331  18.123   6.729  0.00  0.00     0.167 HD
ENDBRANCH  15  17
ENDBRANCH  10  15
ENDBRANCH   2   5
BRANCH   3  19
HETATM   19  C   UNK N   1      27.695  16.507   4.905  0.00  0.00     0.092 A 
HETATM   20  C   UNK N   1      26.692  16.883   3.983  0.00  0.00     0.083 A 
HETATM   21  N   UNK N   1      26.482  15.842   3.151  0.00  0.00    -0.259 N 
HETATM   22  O   UNK N   1      27.284  14.874   3.495  0.00  0.00    -0.241 OA
ATOM     23  HN  UNK N   1      25.811  15.817   2.383  1.00  0.00     0.195 HD
HETATM   24  C   UNK N   1      28.025  15.218   4.517  0.00  0.00     0.090 A 
HETATM   25  C   UNK N   1      29.057  14.327   5.121  0.00  0.00     0.080 C 
BRANCH  20  26
HETATM   26  C   UNK N   1      25.967  18.176   3.768  0.00  0.00    -0.006 A 
HETATM   27  C   UNK N   1      24.566  18.197   3.884  0.00  0.00     0.014 A 
HETATM   28  C   UNK N   1      23.844  19.374   3.654  0.00  0.00     0.001 A 
HETATM   29  C   UNK N   1      24.513  20.548   3.304  0.00  0.00     0.000 A 
HETATM   30  C   UNK N   1      25.901  20.543   3.186  0.00  0.00     0.001 A 
HETATM   31  C   UNK N   1      26.612  19.364   3.416  0.00  0.00     0.014 A 
ENDBRANCH  20  26
ENDBRANCH   3  19
TORSDOF 5
ENDMDL
MODEL 8
REMARK VINA RESULT:      -7.3      5.598     10.579
REMARK  5 active torsions:
REMARK  status: ('A' for Active; 'I' for Inactive)
REMARK    1  A    between atoms: O_3  and  C_18 
REMARK    2  A    between atoms: C_14  and  N_8 
REMARK       I    between atoms: N_8  and  C_19 
REMARK    3  A    between atoms: C_13  and  C_18 
REMARK    4  A    between atoms: C_19  and  C_20 
REMARK    5  A    between atoms: C_21  and  C_23 
ROOT
HETATM    1  O   UNK N   1      30.661  17.306   4.344  0.00  0.00    -0.267 OA
HETATM    2  N   UNK N   1      30.154  15.370   5.306  0.00  0.00    -0.341 N 
HETATM    3  C   UNK N   1      29.862  16.390   4.481  0.00  0.00     0.257 C 
HETATM    4  H   UNK N   1      30.091  14.445   4.977  0.00  0.00     0.163 HD
ENDROOT
BRANCH   2   5
HETATM    5  C   UNK N   1      30.559  15.618   6.663  0.00  0.00     0.210 A 
HETATM    6  C   UNK N   1      32.056  15.081   6.935  0.00  0.00     0.183 A 
HETATM    7  S   UNK N   1      33.652  14.237   7.173  0.00  0.00    -0.129 SA
HETATM    8  N   UNK N   1      32.357  16.410   7.309  0.00  0.00    -0.318 N 
HETATM    9  C   UNK N   1      33.968  15.332   8.629  0.00  0.00     0.033 C 
HETATM   10  C   UNK N   1      33.355  16.727   8.293  0.00  0.00     0.204 C 
HETATM   11  C   UNK N   1      33.227  14.740   9.818  0.00  0.00     0.029 C 
HETATM   12  C   UNK N   1      35.441  15.340   8.995  0.00  0.00     0.029 C 
HETATM   13  C   UNK N   1      31.191  16.910   7.029  0.00  0.00     0.247 A 
HETATM   14  O   UNK N   1      30.712  17.927   7.505  0.00  0.00    -0.271 OA
BRANCH  10  15
HETATM   15  C   UNK N   1      34.240  17.842   7.791  0.00  0.00     0.165 C 
HETATM   16  O   UNK N   1      34.654  18.716   8.533  0.00  0.00    -0.648 OA
BRANCH  15  17
HETATM   17  O   UNK N   1      34.533  17.898   6.477  0.00  0.00    -0.775 OA
HETATM   18  H   UNK N   1      34.225  17.238   5.887  0.00  0.00     0.167 HD
ENDBRANCH  15  17
ENDBRANCH  10  15
ENDBRANCH   2   5
BRANCH   3  19
HETATM   19  C   UNK N   1      28.497  16.508   3.891  0.00  0.00     0.092 A 
HETATM   20  C   UNK N   1      27.486  17.480   4.063  0.00  0.00     0.083 A 
HETATM   21  N   UNK N   1      26.470  17.172   3.230  0.00  0.00    -0.259 N 
HETATM   22  O   UNK N   1      26.793  16.097   2.569  0.00  0.00    -0.241 OA
ATOM     23  HN  UNK N   1      25.597  17.692   3.135  1.00  0.00     0.195 HD
HETATM   24  C   UNK N   1      27.981  15.671   2.915  0.00  0.00     0.090 A 
HETATM   25  C   UNK N   1      28.634  14.475   2.310  0.00  0.00     0.080 C 
BRANCH  20  26
HETATM   26  C   UNK N   1      27.429  18.727   4.890  0.00  0.00    -0.006 A 
HETATM   27  C   UNK N   1      27.696  18.640   6.268  0.00  0.00     0.014 A 
HETATM   28  C   UNK N   1      27.617  19.773   7.087  0.00  0.00     0.001 A 
HETATM   29  C   UNK N   1      27.269  21.009   6.540  0.00  0.00     0.000 A 
HETATM   30  C   UNK N   1      27.002  21.111   5.177  0.00  0.00     0.001 A 
HETATM   31  C   UNK N   1      27.082  19.976   4.368  0.00  0.00     0.014 A 
ENDBRANCH  20  26
ENDBRANCH   3  19
TORSDOF 5
ENDMDL
MODEL 9
REMARK VINA RESULT:      -7.2     12.026     14.707
REMARK  5 active torsions:
REMARK  status: ('A' for Active; 'I' for Inactive)
REMARK    1  A    between atoms: O_3  and  C_18 
REMARK    2  A    between atoms: C_14  and  N_8 
REMARK       I    between atoms: N_8  and  C_19 
REMARK    3  A    between atoms: C_13  and  C_18 
REMARK    4  A    between atoms: C_19  and  C_20 
REMARK    5  A    between atoms: C_21  and  C_23 
ROOT
HETATM    1  O   UNK N   1      24.825  19.788   3.469  0.00  0.00    -0.267 OA
HETATM    2  N   UNK N   1      24.409  18.670   5.342  0.00  0.00    -0.341 N 
HETATM    3  C   UNK N   1      25.261  19.173   4.433  0.00  0.00     0.257 C 
HETATM    4  H   UNK N   1      24.540  18.872   6.296  0.00  0.00     0.163 HD
ENDROOT
BRANCH   2   5
HETATM    5  C   UNK N   1      23.307  17.842   4.935  0.00  0.00     0.210 A 
HETATM    6  C   UNK N   1      23.226  16.496   5.820  0.00  0.00     0.183 A 
HETATM    7  S   UNK N   1      23.378  14.927   6.731  0.00  0.00    -0.129 SA
HETATM    8  N   UNK N   1      21.918  16.915   6.156  0.00  0.00    -0.318 N 
HETATM    9  C   UNK N   1      21.588  14.606   6.398  0.00  0.00     0.033 C 
HETATM   10  C   UNK N   1      20.861  15.986   6.443  0.00  0.00     0.204 C 
HETATM   11  C   UNK N   1      21.477  14.036   4.992  0.00  0.00     0.029 C 
HETATM   12  C   UNK N   1      21.039  13.550   7.341  0.00  0.00     0.029 C 
HETATM   13  C   UNK N   1      21.960  18.050   5.524  0.00  0.00     0.247 A 
HETATM   14  O   UNK N   1      20.999  18.682   5.116  0.00  0.00    -0.271 OA
BRANCH  10  15
HETATM   15  C   UNK N   1      20.123  16.413   7.689  0.00  0.00     0.165 C 
HETATM   16  O   UNK N   1      20.711  16.845   8.666  0.00  0.00    -0.648 OA
BRANCH  15  17
HETATM   17  O   UNK N   1      18.786  16.262   7.737  0.00  0.00    -0.775 OA
HETATM   18  H   UNK N   1      18.214  16.997   7.634  0.00  0.00     0.167 HD
ENDBRANCH  15  17
ENDBRANCH  10  15
ENDBRANCH   2   5
BRANCH   3  19
HETATM   19  C   UNK N   1      26.709  18.819   4.488  0.00  0.00     0.092 A 
HETATM   20  C   UNK N   1      27.416  17.697   3.998  0.00  0.00     0.083 A 
HETATM   21  N   UNK N   1      28.729  17.902   4.229  0.00  0.00    -0.259 N 
HETATM   22  O   UNK N   1      28.867  19.059   4.812  0.00  0.00    -0.241 OA
ATOM     23  HN  UNK N   1      29.485  17.261   3.988  1.00  0.00     0.195 HD
HETATM   24  C   UNK N   1      27.709  19.643   4.980  0.00  0.00     0.090 A 
HETATM   25  C   UNK N   1      27.549  20.992   5.596  0.00  0.00     0.080 C 
BRANCH  20  26
HETATM   26  C   UNK N   1      26.963  16.478   3.255  0.00  0.00    -0.006 A 
HETATM   27  C   UNK N   1      27.923  15.535   2.849  0.00  0.00     0.014 A 
HETATM   28  C   UNK N   1      27.550  14.400   2.118  0.00  0.00     0.001 A 
HETATM   29  C   UNK N   1      26.211  14.194   1.782  0.00  0.00     0.000 A 
HETATM   30  C   UNK N   1      25.249  15.119   2.177  0.00  0.00     0.001 A 
HETATM   31  C   UNK N   1      25.630  16.249   2.905  0.00  0.00     0.014 A 
ENDBRANCH  20  26
ENDBRANCH   3  19
TORSDOF 5
ENDMDL
