MODEL 1
REMARK VINA RESULT:      -7.4      0.000      0.000
REMARK  2 active torsions:
REMARK  status: ('A' for Active; 'I' for Inactive)
REMARK    1  A    between atoms: O_1  and  C_17 
REMARK    2  A    between atoms: O_2  and  C_19 
ROOT
HETATM    1  N   UNK N   1      28.156  22.955  -7.809  0.00  0.00     0.093 N 
HETATM    2  C   UNK N   1      28.989  22.765  -6.590  0.00  0.00     0.261 C 
HETATM    3  C   UNK N   1      28.340  23.300  -5.315  0.00  0.00    -0.007 A 
HETATM    4  C   UNK N   1      29.443  21.327  -6.315  0.00  0.00     0.080 C 
HETATM    5  C   UNK N   1      27.136  24.026  -5.366  0.00  0.00    -0.047 A 
HETATM    6  C   UNK N   1      26.719  23.024  -7.554  0.00  0.00     0.277 C 
HETATM    7  C   UNK N   1      26.442  24.233  -6.669  0.00  0.00     0.069 C 
HETATM    8  C   UNK N   1      28.958  23.048  -4.070  0.00  0.00    -0.014 A 
HETATM    9  C   UNK N   1      30.418  21.346  -5.162  0.00  0.00    -0.042 A 
HETATM   10  C   UNK N   1      30.164  22.167  -4.034  0.00  0.00     0.017 A 
HETATM   11  C   UNK N   1      28.408  21.963  -8.848  0.00  0.00     0.310 C 
HETATM   12  C   UNK N   1      26.579  24.539  -4.192  0.00  0.00     0.008 A 
HETATM   13  C   UNK N   1      28.394  23.585  -2.902  0.00  0.00     0.013 A 
HETATM   14  C   UNK N   1      31.551  20.532  -5.199  0.00  0.00     0.011 A 
HETATM   15  C   UNK N   1      31.052  22.116  -2.935  0.00  0.00     0.110 A 
HETATM   16  C   UNK N   1      27.216  24.334  -2.966  0.00  0.00     0.001 A 
HETATM   17  C   UNK N   1      32.185  21.291  -2.988  0.00  0.00     0.099 A 
HETATM   18  C   UNK N   1      32.435  20.511  -4.120  0.00  0.00     0.040 A 
ENDROOT
BRANCH  15  19
HETATM   19  O   UNK N   1      30.837  22.866  -1.837  0.00  0.00    -0.357 OA
HETATM   20  H   UNK N   1      31.495  22.934  -1.174  0.00  0.00     0.217 HD
ENDBRANCH  15  19
BRANCH  17  21
HETATM   21  O   UNK N   1      33.043  21.252  -1.955  0.00  0.00    -0.358 OA
HETATM   22  H   UNK N   1      33.260  20.437  -1.545  0.00  0.00     0.217 HD
ENDBRANCH  17  21
TORSDOF 2
ENDMDL
MODEL 2
REMARK VINA RESULT:      -6.9     12.317     13.888
REMARK  2 active torsions:
REMARK  status: ('A' for Active; 'I' for Inactive)
REMARK    1  A    between atoms: O_1  and  C_17 
REMARK    2  A    between atoms: O_2  and  C_19 
ROOT
HETATM    1  N   UNK N   1      32.440  14.803   4.493  0.00  0.00     0.093 N 
HETATM    2  C   UNK N   1      31.635  15.463   5.557  0.00  0.00     0.261 C 
HETATM    3  C   UNK N   1      32.451  16.389   6.456  0.00  0.00    -0.007 A 
HETATM    4  C   UNK N   1      30.409  16.245   5.071  0.00  0.00     0.080 C 
HETATM    5  C   UNK N   1      33.851  16.461   6.342  0.00  0.00    -0.047 A 
HETATM    6  C   UNK N   1      33.630  15.545   4.088  0.00  0.00     0.277 C 
HETATM    7  C   UNK N   1      34.555  15.672   5.291  0.00  0.00     0.069 C 
HETATM    8  C   UNK N   1      31.780  17.191   7.407  0.00  0.00    -0.014 A 
HETATM    9  C   UNK N   1      29.615  16.687   6.277  0.00  0.00    -0.042 A 
HETATM   10  C   UNK N   1      30.287  17.190   7.421  0.00  0.00     0.017 A 
HETATM   11  C   UNK N   1      31.666  14.458   3.306  0.00  0.00     0.310 C 
HETATM   12  C   UNK N   1      34.582  17.286   7.200  0.00  0.00     0.008 A 
HETATM   13  C   UNK N   1      32.532  18.002   8.273  0.00  0.00     0.013 A 
HETATM   14  C   UNK N   1      28.221  16.626   6.250  0.00  0.00     0.011 A 
HETATM   15  C   UNK N   1      29.522  17.665   8.511  0.00  0.00     0.110 A 
HETATM   16  C   UNK N   1      33.925  18.041   8.174  0.00  0.00     0.001 A 
HETATM   17  C   UNK N   1      28.122  17.599   8.466  0.00  0.00     0.099 A 
HETATM   18  C   UNK N   1      27.478  17.073   7.343  0.00  0.00     0.040 A 
ENDROOT
BRANCH  15  19
HETATM   19  O   UNK N   1      30.121  18.167   9.608  0.00  0.00    -0.357 OA
HETATM   20  H   UNK N   1      29.964  19.053   9.870  0.00  0.00     0.217 HD
ENDBRANCH  15  19
BRANCH  17  21
HETATM   21  O   UNK N   1      27.390  18.031   9.506  0.00  0.00    -0.358 OA
HETATM   22  H   UNK N   1      27.162  17.449  10.204  0.00  0.00     0.217 HD
ENDBRANCH  17  21
TORSDOF 2
ENDMDL
MODEL 3
REMARK VINA RESULT:      -6.8     22.751     25.461
REMARK  2 active torsions:
REMARK  status: ('A' for Active; 'I' for Inactive)
REMARK    1  A    between atoms: O_1  and  C_17 
REMARK    2  A    between atoms: O_2  and  C_19 
ROOT
HETATM    1  N   UNK N   1      34.927   8.827  18.934  0.00  0.00     0.093 N 
HETATM    2  C   UNK N   1      34.818   9.579  17.654  0.00  0.00     0.261 C 
HETATM    3  C   UNK N   1      35.028  11.084  17.810  0.00  0.00    -0.007 A 
HETATM    4  C   UNK N   1      35.730   9.095  16.521  0.00  0.00     0.080 C 
HETATM    5  C   UNK N   1      35.160  11.669  19.082  0.00  0.00    -0.047 A 
HETATM    6  C   UNK N   1      35.770   9.466  19.941  0.00  0.00     0.277 C 
HETATM    7  C   UNK N   1      35.157  10.813  20.302  0.00  0.00     0.069 C 
HETATM    8  C   UNK N   1      35.100  11.892  16.652  0.00  0.00    -0.014 A 
HETATM    9  C   UNK N   1      35.361   9.840  15.260  0.00  0.00    -0.042 A 
HETATM   10  C   UNK N   1      35.085  11.230  15.314  0.00  0.00     0.017 A 
HETATM   11  C   UNK N   1      35.356   7.443  18.762  0.00  0.00     0.310 C 
HETATM   12  C   UNK N   1      35.313  13.052  19.203  0.00  0.00     0.008 A 
HETATM   13  C   UNK N   1      35.238  13.282  16.793  0.00  0.00     0.013 A 
HETATM   14  C   UNK N   1      35.323   9.161  14.041  0.00  0.00     0.011 A 
HETATM   15  C   UNK N   1      34.812  11.921  14.111  0.00  0.00     0.110 A 
HETATM   16  C   UNK N   1      35.334  13.858  18.063  0.00  0.00     0.001 A 
HETATM   17  C   UNK N   1      34.779  11.224  12.895  0.00  0.00     0.099 A 
HETATM   18  C   UNK N   1      35.025   9.849  12.864  0.00  0.00     0.040 A 
ENDROOT
BRANCH  15  19
HETATM   19  O   UNK N   1      34.563  13.245  14.116  0.00  0.00    -0.357 OA
HETATM   20  H   UNK N   1      33.973  13.618  13.491  0.00  0.00     0.217 HD
ENDBRANCH  15  19
BRANCH  17  21
HETATM   21  O   UNK N   1      34.502  11.872  11.751  0.00  0.00    -0.358 OA
HETATM   22  H   UNK N   1      33.616  12.063  11.512  0.00  0.00     0.217 HD
ENDBRANCH  17  21
TORSDOF 2
ENDMDL
MODEL 4
REMARK VINA RESULT:      -6.7     21.975     24.754
REMARK  2 active torsions:
REMARK  status: ('A' for Active; 'I' for Inactive)
REMARK    1  A    between atoms: O_1  and  C_17 
REMARK    2  A    between atoms: O_2  and  C_19 
ROOT
HETATM    1  N   UNK N   1      35.722   8.924  17.405  0.00  0.00     0.093 N 
HETATM    2  C   UNK N   1      35.893   9.999  16.389  0.00  0.00     0.261 C 
HETATM    3  C   UNK N   1      35.728  11.407  16.955  0.00  0.00    -0.007 A 
HETATM    4  C   UNK N   1      37.208   9.963  15.601  0.00  0.00     0.080 C 
HETATM    5  C   UNK N   1      35.308  11.610  18.282  0.00  0.00    -0.047 A 
HETATM    6  C   UNK N   1      36.034   9.330  18.772  0.00  0.00     0.277 C 
HETATM    7  C   UNK N   1      35.075  10.442  19.178  0.00  0.00     0.069 C 
HETATM    8  C   UNK N   1      36.014  12.518  16.130  0.00  0.00    -0.014 A 
HETATM    9  C   UNK N   1      37.135  10.997  14.503  0.00  0.00    -0.042 A 
HETATM   10  C   UNK N   1      36.579  12.274  14.769  0.00  0.00     0.017 A 
HETATM   11  C   UNK N   1      36.456   7.703  17.091  0.00  0.00     0.310 C 
HETATM   12  C   UNK N   1      35.127  12.907  18.768  0.00  0.00     0.008 A 
HETATM   13  C   UNK N   1      35.811  13.814  16.629  0.00  0.00     0.013 A 
HETATM   14  C   UNK N   1      37.642  10.700  13.237  0.00  0.00     0.011 A 
HETATM   15  C   UNK N   1      36.587  13.251  13.747  0.00  0.00     0.110 A 
HETATM   16  C   UNK N   1      35.361  14.006  17.938  0.00  0.00     0.001 A 
HETATM   17  C   UNK N   1      37.102  12.937  12.481  0.00  0.00     0.099 A 
HETATM   18  C   UNK N   1      37.619  11.663  12.228  0.00  0.00     0.040 A 
ENDROOT
BRANCH  15  19
HETATM   19  O   UNK N   1      36.085  14.482  13.964  0.00  0.00    -0.357 OA
HETATM   20  H   UNK N   1      36.461  15.228  13.540  0.00  0.00     0.217 HD
ENDBRANCH  15  19
BRANCH  17  21
HETATM   21  O   UNK N   1      37.094  13.854  11.500  0.00  0.00    -0.358 OA
HETATM   22  H   UNK N   1      36.318  14.343  11.309  0.00  0.00     0.217 HD
ENDBRANCH  17  21
TORSDOF 2
ENDMDL
MODEL 5
REMARK VINA RESULT:      -6.7     22.444     25.148
REMARK  2 active torsions:
REMARK  status: ('A' for Active; 'I' for Inactive)
REMARK    1  A    between atoms: O_1  and  C_17 
REMARK    2  A    between atoms: O_2  and  C_19 
ROOT
HETATM    1  N   UNK N   1      37.612   9.102  14.762  0.00  0.00     0.093 N 
HETATM    2  C   UNK N   1      37.085  10.085  15.746  0.00  0.00     0.261 C 
HETATM    3  C   UNK N   1      36.658  11.411  15.119  0.00  0.00    -0.007 A 
HETATM    4  C   UNK N   1      35.929   9.591  16.624  0.00  0.00     0.080 C 
HETATM    5  C   UNK N   1      36.900  11.679  13.760  0.00  0.00    -0.047 A 
HETATM    6  C   UNK N   1      37.099   9.271  13.405  0.00  0.00     0.277 C 
HETATM    7  C   UNK N   1      37.526  10.641  12.893  0.00  0.00     0.069 C 
HETATM    8  C   UNK N   1      36.002  12.372  15.921  0.00  0.00    -0.014 A 
HETATM    9  C   UNK N   1      35.646  10.637  17.676  0.00  0.00    -0.042 A 
HETATM   10  C   UNK N   1      35.645  12.011  17.325  0.00  0.00     0.017 A 
HETATM   11  C   UNK N   1      37.430   7.713  15.170  0.00  0.00     0.310 C 
HETATM   12  C   UNK N   1      36.537  12.913  13.215  0.00  0.00     0.008 A 
HETATM   13  C   UNK N   1      35.658  13.613  15.361  0.00  0.00     0.013 A 
HETATM   14  C   UNK N   1      35.359  10.244  18.984  0.00  0.00     0.011 A 
HETATM   15  C   UNK N   1      35.307  12.969  18.308  0.00  0.00     0.110 A 
HETATM   16  C   UNK N   1      35.933  13.883  14.018  0.00  0.00     0.001 A 
HETATM   17  C   UNK N   1      35.019  12.557  19.617  0.00  0.00     0.099 A 
HETATM   18  C   UNK N   1      35.054  11.201  19.952  0.00  0.00     0.040 A 
ENDROOT
BRANCH  15  19
HETATM   19  O   UNK N   1      35.277  14.283  18.012  0.00  0.00    -0.357 OA
HETATM   20  H   UNK N   1      35.333  14.923  18.694  0.00  0.00     0.217 HD
ENDBRANCH  15  19
BRANCH  17  21
HETATM   21  O   UNK N   1      34.715  13.463  20.561  0.00  0.00    -0.358 OA
HETATM   22  H   UNK N   1      33.872  13.463  20.971  0.00  0.00     0.217 HD
ENDBRANCH  17  21
TORSDOF 2
ENDMDL
MODEL 6
REMARK VINA RESULT:      -6.6     10.396     12.427
REMARK  2 active torsions:
REMARK  status: ('A' for Active; 'I' for Inactive)
REMARK    1  A    between atoms: O_1  and  C_17 
REMARK    2  A    between atoms: O_2  and  C_19 
ROOT
HETATM    1  N   UNK N   1      24.886  15.848   5.963  0.00  0.00     0.093 N 
HETATM    2  C   UNK N   1      24.295  17.025   5.271  0.00  0.00     0.261 C 
HETATM    3  C   UNK N   1      25.335  18.010   4.742  0.00  0.00    -0.007 A 
HETATM    4  C   UNK N   1      23.330  16.705   4.123  0.00  0.00     0.080 C 
HETATM    5  C   UNK N   1      26.701  17.849   5.037  0.00  0.00    -0.047 A 
HETATM    6  C   UNK N   1      26.233  15.500   5.521  0.00  0.00     0.277 C 
HETATM    7  C   UNK N   1      27.160  16.670   5.826  0.00  0.00     0.069 C 
HETATM    8  C   UNK N   1      24.913  19.091   3.936  0.00  0.00    -0.014 A 
HETATM    9  C   UNK N   1      22.691  17.993   3.662  0.00  0.00    -0.042 A 
HETATM   10  C   UNK N   1      23.476  19.166   3.533  0.00  0.00     0.017 A 
HETATM   11  C   UNK N   1      24.045  14.657   5.908  0.00  0.00     0.310 C 
HETATM   12  C   UNK N   1      27.632  18.782   4.576  0.00  0.00     0.008 A 
HETATM   13  C   UNK N   1      25.859  20.029   3.494  0.00  0.00     0.013 A 
HETATM   14  C   UNK N   1      21.333  18.015   3.338  0.00  0.00     0.011 A 
HETATM   15  C   UNK N   1      22.874  20.343   3.031  0.00  0.00     0.110 A 
HETATM   16  C   UNK N   1      27.210  19.878   3.821  0.00  0.00     0.001 A 
HETATM   17  C   UNK N   1      21.509  20.348   2.708  0.00  0.00     0.099 A 
HETATM   18  C   UNK N   1      20.743  19.190   2.870  0.00  0.00     0.040 A 
ENDROOT
BRANCH  15  19
HETATM   19  O   UNK N   1      23.589  21.474   2.876  0.00  0.00    -0.357 OA
HETATM   20  H   UNK N   1      24.074  21.830   3.594  0.00  0.00     0.217 HD
ENDBRANCH  15  19
BRANCH  17  21
HETATM   21  O   UNK N   1      20.926  21.467   2.249  0.00  0.00    -0.358 OA
HETATM   22  H   UNK N   1      21.212  22.310   2.543  0.00  0.00     0.217 HD
ENDBRANCH  17  21
TORSDOF 2
ENDMDL
MODEL 7
REMARK VINA RESULT:      -6.6     11.621     13.328
REMARK  2 active torsions:
REMARK  status: ('A' for Active; 'I' for Inactive)
REMARK    1  A    between atoms: O_1  and  C_17 
REMARK    2  A    between atoms: O_2  and  C_19 
ROOT
HETATM    1  N   UNK N   1      29.559  14.519   4.014  0.00  0.00     0.093 N 
HETATM    2  C   UNK N   1      29.788  15.318   5.249  0.00  0.00     0.261 C 
HETATM    3  C   UNK N   1      31.176  15.952   5.319  0.00  0.00    -0.007 A 
HETATM    4  C   UNK N   1      28.757  16.419   5.527  0.00  0.00     0.080 C 
HETATM    5  C   UNK N   1      32.156  15.656   4.355  0.00  0.00    -0.047 A 
HETATM    6  C   UNK N   1      30.358  14.939   2.866  0.00  0.00     0.277 C 
HETATM    7  C   UNK N   1      31.831  14.759   3.210  0.00  0.00     0.069 C 
HETATM    8  C   UNK N   1      31.467  16.856   6.365  0.00  0.00    -0.014 A 
HETATM    9  C   UNK N   1      29.034  16.998   6.894  0.00  0.00    -0.042 A 
HETATM   10  C   UNK N   1      30.370  17.250   7.299  0.00  0.00     0.017 A 
HETATM   11  C   UNK N   1      28.157  14.447   3.618  0.00  0.00     0.310 C 
HETATM   12  C   UNK N   1      33.431  16.217   4.459  0.00  0.00     0.008 A 
HETATM   13  C   UNK N   1      32.758  17.398   6.463  0.00  0.00     0.013 A 
HETATM   14  C   UNK N   1      27.972  17.309   7.743  0.00  0.00     0.011 A 
HETATM   15  C   UNK N   1      30.603  17.859   8.553  0.00  0.00     0.110 A 
HETATM   16  C   UNK N   1      33.736  17.072   5.520  0.00  0.00     0.001 A 
HETATM   17  C   UNK N   1      29.523  18.168   9.393  0.00  0.00     0.099 A 
HETATM   18  C   UNK N   1      28.215  17.884   8.991  0.00  0.00     0.040 A 
ENDROOT
BRANCH  15  19
HETATM   19  O   UNK N   1      31.855  18.133   8.967  0.00  0.00    -0.357 OA
HETATM   20  H   UNK N   1      32.280  18.924   8.700  0.00  0.00     0.217 HD
ENDBRANCH  15  19
BRANCH  17  21
HETATM   21  O   UNK N   1      29.739  18.729  10.594  0.00  0.00    -0.358 OA
HETATM   22  H   UNK N   1      30.061  19.607  10.660  0.00  0.00     0.217 HD
ENDBRANCH  17  21
TORSDOF 2
ENDMDL
MODEL 8
REMARK VINA RESULT:      -6.5      4.959      6.601
REMARK  2 active torsions:
REMARK  status: ('A' for Active; 'I' for Inactive)
REMARK    1  A    between atoms: O_1  and  C_17 
REMARK    2  A    between atoms: O_2  and  C_19 
ROOT
HETATM    1  N   UNK N   1      27.270  26.273  -9.245  0.00  0.00     0.093 N 
HETATM    2  C   UNK N   1      26.963  26.924  -7.942  0.00  0.00     0.261 C 
HETATM    3  C   UNK N   1      26.539  25.942  -6.852  0.00  0.00    -0.007 A 
HETATM    4  C   UNK N   1      28.074  27.811  -7.366  0.00  0.00     0.080 C 
HETATM    5  C   UNK N   1      26.331  24.582  -7.144  0.00  0.00    -0.047 A 
HETATM    6  C   UNK N   1      27.709  24.885  -9.138  0.00  0.00     0.277 C 
HETATM    7  C   UNK N   1      26.582  24.067  -8.520  0.00  0.00     0.069 C 
HETATM    8  C   UNK N   1      26.366  26.413  -5.531  0.00  0.00    -0.014 A 
HETATM    9  C   UNK N   1      27.531  28.528  -6.153  0.00  0.00    -0.042 A 
HETATM   10  C   UNK N   1      26.717  27.832  -5.224  0.00  0.00     0.017 A 
HETATM   11  C   UNK N   1      28.229  27.015 -10.056  0.00  0.00     0.310 C 
HETATM   12  C   UNK N   1      25.906  23.708  -6.140  0.00  0.00     0.008 A 
HETATM   13  C   UNK N   1      25.924  25.525  -4.538  0.00  0.00     0.013 A 
HETATM   14  C   UNK N   1      27.858  29.868  -5.937  0.00  0.00     0.011 A 
HETATM   15  C   UNK N   1      26.279  28.503  -4.059  0.00  0.00     0.110 A 
HETATM   16  C   UNK N   1      25.687  24.182  -4.845  0.00  0.00     0.001 A 
HETATM   17  C   UNK N   1      26.618  29.848  -3.856  0.00  0.00     0.099 A 
HETATM   18  C   UNK N   1      27.397  30.528  -4.797  0.00  0.00     0.040 A 
ENDROOT
BRANCH  15  19
HETATM   19  O   UNK N   1      25.519  27.873  -3.142  0.00  0.00    -0.357 OA
HETATM   20  H   UNK N   1      24.752  27.404  -3.405  0.00  0.00     0.217 HD
ENDBRANCH  15  19
BRANCH  17  21
HETATM   21  O   UNK N   1      26.190  30.497  -2.761  0.00  0.00    -0.358 OA
HETATM   22  H   UNK N   1      26.649  30.416  -1.947  0.00  0.00     0.217 HD
ENDBRANCH  17  21
TORSDOF 2
ENDMDL
MODEL 9
REMARK VINA RESULT:      -6.3     11.361     13.098
REMARK  2 active torsions:
REMARK  status: ('A' for Active; 'I' for Inactive)
REMARK    1  A    between atoms: O_1  and  C_17 
REMARK    2  A    between atoms: O_2  and  C_19 
ROOT
HETATM    1  N   UNK N   1      28.773  17.392   4.342  0.00  0.00     0.093 N 
HETATM    2  C   UNK N   1      29.913  17.159   5.271  0.00  0.00     0.261 C 
HETATM    3  C   UNK N   1      29.637  17.614   6.703  0.00  0.00    -0.007 A 
HETATM    4  C   UNK N   1      30.436  15.719   5.331  0.00  0.00     0.080 C 
HETATM    5  C   UNK N   1      28.462  18.315   7.026  0.00  0.00    -0.047 A 
HETATM    6  C   UNK N   1      27.463  17.416   4.987  0.00  0.00     0.277 C 
HETATM    7  C   UNK N   1      27.433  18.572   5.979  0.00  0.00     0.069 C 
HETATM    8  C   UNK N   1      30.578  17.313   7.713  0.00  0.00    -0.014 A 
HETATM    9  C   UNK N   1      31.691  15.702   6.170  0.00  0.00    -0.042 A 
HETATM   10  C   UNK N   1      31.754  16.459   7.367  0.00  0.00     0.017 A 
HETATM   11  C   UNK N   1      28.735  16.459   3.221  0.00  0.00     0.310 C 
HETATM   12  C   UNK N   1      28.247  18.756   8.334  0.00  0.00     0.008 A 
HETATM   13  C   UNK N   1      30.355  17.777   9.019  0.00  0.00     0.013 A 
HETATM   14  C   UNK N   1      32.776  14.916   5.777  0.00  0.00     0.011 A 
HETATM   15  C   UNK N   1      32.911  16.372   8.174  0.00  0.00     0.110 A 
HETATM   16  C   UNK N   1      29.200  18.502   9.324  0.00  0.00     0.001 A 
HETATM   17  C   UNK N   1      33.991  15.576   7.765  0.00  0.00     0.099 A 
HETATM   18  C   UNK N   1      33.924  14.860   6.567  0.00  0.00     0.040 A 
ENDROOT
BRANCH  15  19
HETATM   19  O   UNK N   1      33.003  17.060   9.328  0.00  0.00    -0.357 OA
HETATM   20  H   UNK N   1      33.153  16.612  10.137  0.00  0.00     0.217 HD
ENDBRANCH  15  19
BRANCH  17  21
HETATM   21  O   UNK N   1      35.102  15.504   8.518  0.00  0.00    -0.358 OA
HETATM   22  H   UNK N   1      35.492  14.675   8.714  0.00  0.00     0.217 HD
ENDBRANCH  17  21
TORSDOF 2
ENDMDL
