MODEL 1
REMARK VINA RESULT:      -7.4      0.000      0.000
REMARK  4 active torsions:
REMARK  status: ('A' for Active; 'I' for Inactive)
REMARK    1  A    between atoms: O_2  and  C_11 
REMARK    2  A    between atoms: O_2  and  C_17 
REMARK    3  A    between atoms: C_6  and  C_12 
REMARK    4  A    between atoms: C_7  and  C_11 
ROOT
HETATM    1  N   UNK N   1      27.654  15.011   1.857  0.00  0.00    -0.421 N 
HETATM    2  C   UNK N   1      27.675  16.858   4.120  0.00  0.00     0.028 C 
HETATM    3  C   UNK N   1      28.915  16.655   3.192  0.00  0.00     0.036 C 
HETATM    4  C   UNK N   1      26.397  16.423   3.379  0.00  0.00     0.029 C 
HETATM    5  C   UNK N   1      28.888  15.243   2.598  0.00  0.00     0.121 C 
HETATM    6  C   UNK N   1      26.553  15.022   2.809  0.00  0.00     0.114 C 
HETATM    7  H   UNK N   1      27.576  14.865   0.850  0.00  0.00     0.153 HD
ENDROOT
BRANCH   3   8
HETATM    8  C   UNK N   1      30.286  16.788   3.859  0.00  0.00     0.182 C 
BRANCH   8   9
HETATM    9  O   UNK N   1      30.283  16.275   5.133  0.00  0.00    -0.351 OA
BRANCH   9  10
HETATM   10  C   UNK N   1      31.116  16.681   6.116  0.00  0.00     0.071 A 
HETATM   11  C   UNK N   1      32.403  17.207   5.839  0.00  0.00     0.076 A 
HETATM   12  C   UNK N   1      33.179  17.614   6.922  0.00  0.00     0.107 A 
HETATM   13  O   UNK N   1      34.400  18.150   6.914  0.00  0.00    -0.323 OA
HETATM   14  C   UNK N   1      32.756  17.511   8.189  0.00  0.00     0.105 A 
HETATM   15  C   UNK N   1      34.781  18.404   8.236  0.00  0.00     0.352 A 
HETATM   16  O   UNK N   1      33.696  17.973   9.008  0.00  0.00    -0.323 OA
HETATM   17  C   UNK N   1      31.507  16.995   8.514  0.00  0.00     0.042 A 
HETATM   18  C   UNK N   1      30.677  16.584   7.457  0.00  0.00     0.039 A 
ENDBRANCH   9  10
ENDBRANCH   8   9
ENDBRANCH   3   8
BRANCH   2  19
HETATM   19  C   UNK N   1      27.507  18.270   4.670  0.00  0.00    -0.053 A 
HETATM   20  C   UNK N   1      27.117  19.316   3.824  0.00  0.00     0.010 A 
HETATM   21  C   UNK N   1      26.971  20.617   4.315  0.00  0.00     0.043 A 
HETATM   22  C   UNK N   1      27.239  20.893   5.656  0.00  0.00     0.116 A 
HETATM   23  F   UNK N   1      27.095  22.153   6.132  0.00  0.00    -0.206 F 
HETATM   24  C   UNK N   1      27.661  19.869   6.506  0.00  0.00     0.043 A 
HETATM   25  C   UNK N   1      27.797  18.566   6.017  0.00  0.00     0.010 A 
ENDBRANCH   2  19
TORSDOF 4
ENDMDL
MODEL 2
REMARK VINA RESULT:      -7.0      3.884      6.316
REMARK  4 active torsions:
REMARK  status: ('A' for Active; 'I' for Inactive)
REMARK    1  A    between atoms: O_2  and  C_11 
REMARK    2  A    between atoms: O_2  and  C_17 
REMARK    3  A    between atoms: C_6  and  C_12 
REMARK    4  A    between atoms: C_7  and  C_11 
ROOT
HETATM    1  N   UNK N   1      28.446  19.048   8.450  0.00  0.00    -0.421 N 
HETATM    2  C   UNK N   1      30.440  16.994   7.866  0.00  0.00     0.028 C 
HETATM    3  C   UNK N   1      29.443  17.526   6.787  0.00  0.00     0.036 C 
HETATM    4  C   UNK N   1      30.581  18.030   8.997  0.00  0.00     0.029 C 
HETATM    5  C   UNK N   1      28.159  18.011   7.467  0.00  0.00     0.121 C 
HETATM    6  C   UNK N   1      29.217  18.442   9.526  0.00  0.00     0.114 C 
HETATM    7  H   UNK N   1      28.158  20.026   8.395  0.00  0.00     0.153 HD
ENDROOT
BRANCH   3   8
HETATM    8  C   UNK N   1      28.987  16.515   5.732  0.00  0.00     0.182 C 
BRANCH   8   9
HETATM    9  O   UNK N   1      29.443  16.849   4.480  0.00  0.00    -0.351 OA
BRANCH   9  10
HETATM   10  C   UNK N   1      30.604  16.403   3.952  0.00  0.00     0.071 A 
HETATM   11  C   UNK N   1      30.808  15.037   3.635  0.00  0.00     0.076 A 
HETATM   12  C   UNK N   1      32.035  14.681   3.079  0.00  0.00     0.107 A 
HETATM   13  O   UNK N   1      32.450  13.477   2.685  0.00  0.00    -0.323 OA
HETATM   14  C   UNK N   1      33.008  15.573   2.854  0.00  0.00     0.105 A 
HETATM   15  C   UNK N   1      33.751  13.599   2.184  0.00  0.00     0.352 A 
HETATM   16  O   UNK N   1      34.059  14.957   2.321  0.00  0.00    -0.323 OA
HETATM   17  C   UNK N   1      32.862  16.923   3.154  0.00  0.00     0.042 A 
HETATM   18  C   UNK N   1      31.637  17.338   3.704  0.00  0.00     0.039 A 
ENDBRANCH   9  10
ENDBRANCH   8   9
ENDBRANCH   3   8
BRANCH   2  19
HETATM   19  C   UNK N   1      31.815  16.605   7.336  0.00  0.00    -0.053 A 
HETATM   20  C   UNK N   1      32.123  15.261   7.089  0.00  0.00     0.010 A 
HETATM   21  C   UNK N   1      33.384  14.891   6.613  0.00  0.00     0.043 A 
HETATM   22  C   UNK N   1      34.364  15.863   6.401  0.00  0.00     0.116 A 
HETATM   23  F   UNK N   1      35.586  15.505   5.938  0.00  0.00    -0.206 F 
HETATM   24  C   UNK N   1      34.086  17.203   6.673  0.00  0.00     0.043 A 
HETATM   25  C   UNK N   1      32.821  17.573   7.140  0.00  0.00     0.010 A 
ENDBRANCH   2  19
TORSDOF 4
ENDMDL
MODEL 3
REMARK VINA RESULT:      -7.0     10.966     12.993
REMARK  4 active torsions:
REMARK  status: ('A' for Active; 'I' for Inactive)
REMARK    1  A    between atoms: O_2  and  C_11 
REMARK    2  A    between atoms: O_2  and  C_17 
REMARK    3  A    between atoms: C_6  and  C_12 
REMARK    4  A    between atoms: C_7  and  C_11 
ROOT
HETATM    1  N   UNK N   1      25.785  27.649  -3.187  0.00  0.00    -0.421 N 
HETATM    2  C   UNK N   1      26.284  26.083  -5.602  0.00  0.00     0.028 C 
HETATM    3  C   UNK N   1      26.933  25.730  -4.226  0.00  0.00     0.036 C 
HETATM    4  C   UNK N   1      25.021  26.934  -5.377  0.00  0.00     0.029 C 
HETATM    5  C   UNK N   1      27.077  27.002  -3.383  0.00  0.00     0.121 C 
HETATM    6  C   UNK N   1      25.324  28.126  -4.483  0.00  0.00     0.114 C 
HETATM    7  H   UNK N   1      25.293  27.751  -2.299  0.00  0.00     0.153 HD
ENDROOT
BRANCH   3   8
HETATM    8  C   UNK N   1      28.334  25.116  -4.277  0.00  0.00     0.182 C 
BRANCH   8   9
HETATM    9  O   UNK N   1      28.342  23.830  -3.795  0.00  0.00    -0.351 OA
BRANCH   9  10
HETATM   10  C   UNK N   1      29.406  23.001  -3.866  0.00  0.00     0.071 A 
HETATM   11  C   UNK N   1      30.387  22.950  -2.844  0.00  0.00     0.076 A 
HETATM   12  C   UNK N   1      31.438  22.049  -3.004  0.00  0.00     0.107 A 
HETATM   13  O   UNK N   1      32.458  21.810  -2.181  0.00  0.00    -0.323 OA
HETATM   14  C   UNK N   1      31.548  21.257  -4.078  0.00  0.00     0.105 A 
HETATM   15  C   UNK N   1      33.264  20.818  -2.751  0.00  0.00     0.352 A 
HETATM   16  O   UNK N   1      32.639  20.506  -3.963  0.00  0.00    -0.323 OA
HETATM   17  C   UNK N   1      30.618  21.273  -5.111  0.00  0.00     0.042 A 
HETATM   18  C   UNK N   1      29.529  22.155  -4.993  0.00  0.00     0.039 A 
ENDBRANCH   9  10
ENDBRANCH   8   9
ENDBRANCH   3   8
BRANCH   2  19
HETATM   19  C   UNK N   1      25.959  24.884  -6.486  0.00  0.00    -0.053 A 
HETATM   20  C   UNK N   1      25.785  23.615  -5.919  0.00  0.00     0.010 A 
HETATM   21  C   UNK N   1      25.498  22.506  -6.720  0.00  0.00     0.043 A 
HETATM   22  C   UNK N   1      25.405  22.650  -8.106  0.00  0.00     0.116 A 
HETATM   23  F   UNK N   1      25.124  21.576  -8.882  0.00  0.00    -0.206 F 
HETATM   24  C   UNK N   1      25.608  23.900  -8.691  0.00  0.00     0.043 A 
HETATM   25  C   UNK N   1      25.885  25.011  -7.888  0.00  0.00     0.010 A 
ENDBRANCH   2  19
TORSDOF 4
ENDMDL
MODEL 4
REMARK VINA RESULT:      -6.9      9.371     12.739
REMARK  4 active torsions:
REMARK  status: ('A' for Active; 'I' for Inactive)
REMARK    1  A    between atoms: O_2  and  C_11 
REMARK    2  A    between atoms: O_2  and  C_17 
REMARK    3  A    between atoms: C_6  and  C_12 
REMARK    4  A    between atoms: C_7  and  C_11 
ROOT
HETATM    1  N   UNK N   1      36.754   8.568  13.269  0.00  0.00    -0.421 N 
HETATM    2  C   UNK N   1      36.477  10.975  14.902  0.00  0.00     0.028 C 
HETATM    3  C   UNK N   1      35.329  10.448  13.982  0.00  0.00     0.036 C 
HETATM    4  C   UNK N   1      37.450   9.826  15.225  0.00  0.00     0.029 C 
HETATM    5  C   UNK N   1      35.927   9.675  12.803  0.00  0.00     0.121 C 
HETATM    6  C   UNK N   1      37.910   9.132  13.953  0.00  0.00     0.114 C 
HETATM    7  H   UNK N   1      36.560   7.575  13.138  0.00  0.00     0.153 HD
ENDROOT
BRANCH   3   8
HETATM    8  C   UNK N   1      34.425  11.512  13.354  0.00  0.00     0.182 C 
BRANCH   8   9
HETATM    9  O   UNK N   1      34.894  11.916  12.129  0.00  0.00    -0.351 OA
BRANCH   9  10
HETATM   10  C   UNK N   1      35.070  13.208  11.773  0.00  0.00     0.071 A 
HETATM   11  C   UNK N   1      34.568  13.726  10.553  0.00  0.00     0.076 A 
HETATM   12  C   UNK N   1      34.788  15.075  10.286  0.00  0.00     0.107 A 
HETATM   13  O   UNK N   1      34.401  15.786   9.227  0.00  0.00    -0.323 OA
HETATM   14  C   UNK N   1      35.456  15.874  11.128  0.00  0.00     0.105 A 
HETATM   15  C   UNK N   1      34.842  17.104   9.393  0.00  0.00     0.352 A 
HETATM   16  O   UNK N   1      35.513  17.102  10.621  0.00  0.00    -0.323 OA
HETATM   17  C   UNK N   1      35.975  15.415  12.334  0.00  0.00     0.042 A 
HETATM   18  C   UNK N   1      35.769  14.063  12.658  0.00  0.00     0.039 A 
ENDBRANCH   9  10
ENDBRANCH   8   9
ENDBRANCH   3   8
BRANCH   2  19
HETATM   19  C   UNK N   1      36.013  11.647  16.189  0.00  0.00    -0.053 A 
HETATM   20  C   UNK N   1      35.770  10.883  17.338  0.00  0.00     0.010 A 
HETATM   21  C   UNK N   1      35.334  11.487  18.520  0.00  0.00     0.043 A 
HETATM   22  C   UNK N   1      35.111  12.865  18.561  0.00  0.00     0.116 A 
HETATM   23  F   UNK N   1      34.690  13.451  19.708  0.00  0.00    -0.206 F 
HETATM   24  C   UNK N   1      35.316  13.637  17.417  0.00  0.00     0.043 A 
HETATM   25  C   UNK N   1      35.762  13.033  16.237  0.00  0.00     0.010 A 
ENDBRANCH   2  19
TORSDOF 4
ENDMDL
MODEL 5
REMARK VINA RESULT:      -6.8     11.227     13.153
REMARK  4 active torsions:
REMARK  status: ('A' for Active; 'I' for Inactive)
REMARK    1  A    between atoms: O_2  and  C_11 
REMARK    2  A    between atoms: O_2  and  C_17 
REMARK    3  A    between atoms: C_6  and  C_12 
REMARK    4  A    between atoms: C_7  and  C_11 
ROOT
HETATM    1  N   UNK N   1      26.435  23.529  -7.777  0.00  0.00    -0.421 N 
HETATM    2  C   UNK N   1      25.782  25.905  -6.207  0.00  0.00     0.028 C 
HETATM    3  C   UNK N   1      26.544  24.684  -5.601  0.00  0.00     0.036 C 
HETATM    4  C   UNK N   1      25.937  25.905  -7.739  0.00  0.00     0.029 C 
HETATM    5  C   UNK N   1      26.151  23.407  -6.351  0.00  0.00     0.121 C 
HETATM    6  C   UNK N   1      25.554  24.553  -8.321  0.00  0.00     0.114 C 
HETATM    7  H   UNK N   1      27.127  22.992  -8.300  0.00  0.00     0.153 HD
ENDROOT
BRANCH   3   8
HETATM    8  C   UNK N   1      26.277  24.385  -4.124  0.00  0.00     0.182 C 
BRANCH   8   9
HETATM    9  O   UNK N   1      27.315  24.800  -3.327  0.00  0.00    -0.351 OA
BRANCH   9  10
HETATM   10  C   UNK N   1      28.582  24.345  -3.436  0.00  0.00     0.071 A 
HETATM   11  C   UNK N   1      29.001  23.136  -2.826  0.00  0.00     0.076 A 
HETATM   12  C   UNK N   1      30.325  22.745  -3.012  0.00  0.00     0.107 A 
HETATM   13  O   UNK N   1      30.940  21.652  -2.559  0.00  0.00    -0.323 OA
HETATM   14  C   UNK N   1      31.196  23.472  -3.724  0.00  0.00     0.105 A 
HETATM   15  C   UNK N   1      32.268  21.677  -2.999  0.00  0.00     0.352 A 
HETATM   16  O   UNK N   1      32.377  22.863  -3.734  0.00  0.00    -0.323 OA
HETATM   17  C   UNK N   1      30.838  24.669  -4.335  0.00  0.00     0.042 A 
HETATM   18  C   UNK N   1      29.509  25.102  -4.191  0.00  0.00     0.039 A 
ENDBRANCH   9  10
ENDBRANCH   8   9
ENDBRANCH   3   8
BRANCH   2  19
HETATM   19  C   UNK N   1      26.185  27.261  -5.639  0.00  0.00    -0.053 A 
HETATM   20  C   UNK N   1      27.198  28.011  -6.252  0.00  0.00     0.010 A 
HETATM   21  C   UNK N   1      27.584  29.250  -5.734  0.00  0.00     0.043 A 
HETATM   22  C   UNK N   1      26.977  29.746  -4.579  0.00  0.00     0.116 A 
HETATM   23  F   UNK N   1      27.350  30.948  -4.078  0.00  0.00    -0.206 F 
HETATM   24  C   UNK N   1      25.990  28.998  -3.937  0.00  0.00     0.043 A 
HETATM   25  C   UNK N   1      25.597  27.762  -4.461  0.00  0.00     0.010 A 
ENDBRANCH   2  19
TORSDOF 4
ENDMDL
MODEL 6
REMARK VINA RESULT:      -6.8      2.624      4.319
REMARK  4 active torsions:
REMARK  status: ('A' for Active; 'I' for Inactive)
REMARK    1  A    between atoms: O_2  and  C_11 
REMARK    2  A    between atoms: O_2  and  C_17 
REMARK    3  A    between atoms: C_6  and  C_12 
REMARK    4  A    between atoms: C_7  and  C_11 
ROOT
HETATM    1  N   UNK N   1      26.904  20.333   6.004  0.00  0.00    -0.421 N 
HETATM    2  C   UNK N   1      27.383  18.089   4.197  0.00  0.00     0.028 C 
HETATM    3  C   UNK N   1      27.409  17.934   5.751  0.00  0.00     0.036 C 
HETATM    4  C   UNK N   1      26.572  19.341   3.814  0.00  0.00     0.029 C 
HETATM    5  C   UNK N   1      27.815  19.263   6.394  0.00  0.00     0.121 C 
HETATM    6  C   UNK N   1      27.068  20.560   4.575  0.00  0.00     0.114 C 
HETATM    7  H   UNK N   1      26.266  20.835   6.623  0.00  0.00     0.153 HD
ENDROOT
BRANCH   3   8
HETATM    8  C   UNK N   1      28.387  16.897   6.310  0.00  0.00     0.182 C 
BRANCH   8   9
HETATM    9  O   UNK N   1      29.465  16.717   5.479  0.00  0.00    -0.351 OA
BRANCH   9  10
HETATM   10  C   UNK N   1      30.737  17.030   5.810  0.00  0.00     0.071 A 
HETATM   11  C   UNK N   1      31.146  17.184   7.158  0.00  0.00     0.076 A 
HETATM   12  C   UNK N   1      32.484  17.491   7.395  0.00  0.00     0.107 A 
HETATM   13  O   UNK N   1      33.102  17.665   8.563  0.00  0.00    -0.323 OA
HETATM   14  C   UNK N   1      33.370  17.653   6.404  0.00  0.00     0.105 A 
HETATM   15  C   UNK N   1      34.448  17.953   8.314  0.00  0.00     0.352 A 
HETATM   16  O   UNK N   1      34.562  17.937   6.920  0.00  0.00    -0.323 OA
HETATM   17  C   UNK N   1      33.019  17.521   5.065  0.00  0.00     0.042 A 
HETATM   18  C   UNK N   1      31.684  17.197   4.771  0.00  0.00     0.039 A 
ENDBRANCH   9  10
ENDBRANCH   8   9
ENDBRANCH   3   8
BRANCH   2  19
HETATM   19  C   UNK N   1      26.862  16.874   3.437  0.00  0.00    -0.053 A 
HETATM   20  C   UNK N   1      25.507  16.526   3.506  0.00  0.00     0.010 A 
HETATM   21  C   UNK N   1      25.020  15.407   2.823  0.00  0.00     0.043 A 
HETATM   22  C   UNK N   1      25.890  14.607   2.081  0.00  0.00     0.116 A 
HETATM   23  F   UNK N   1      25.418  13.525   1.417  0.00  0.00    -0.206 F 
HETATM   24  C   UNK N   1      27.249  14.920   2.028  0.00  0.00     0.043 A 
HETATM   25  C   UNK N   1      27.734  16.044   2.704  0.00  0.00     0.010 A 
ENDBRANCH   2  19
TORSDOF 4
ENDMDL
MODEL 7
REMARK VINA RESULT:      -6.8     11.604     13.284
REMARK  4 active torsions:
REMARK  status: ('A' for Active; 'I' for Inactive)
REMARK    1  A    between atoms: O_2  and  C_11 
REMARK    2  A    between atoms: O_2  and  C_17 
REMARK    3  A    between atoms: C_6  and  C_12 
REMARK    4  A    between atoms: C_7  and  C_11 
ROOT
HETATM    1  N   UNK N   1      26.841  23.751  -9.825  0.00  0.00    -0.421 N 
HETATM    2  C   UNK N   1      25.998  25.248  -7.463  0.00  0.00     0.028 C 
HETATM    3  C   UNK N   1      27.202  24.254  -7.439  0.00  0.00     0.036 C 
HETATM    4  C   UNK N   1      25.732  25.706  -8.909  0.00  0.00     0.029 C 
HETATM    5  C   UNK N   1      26.993  23.166  -8.498  0.00  0.00     0.121 C 
HETATM    6  C   UNK N   1      25.599  24.510  -9.839  0.00  0.00     0.114 C 
HETATM    7  H   UNK N   1      27.489  23.645 -10.607  0.00  0.00     0.153 HD
ENDROOT
BRANCH   3   8
HETATM    8  C   UNK N   1      27.432  23.502  -6.126  0.00  0.00     0.182 C 
BRANCH   8   9
HETATM    9  O   UNK N   1      28.300  24.175  -5.302  0.00  0.00    -0.351 OA
BRANCH   9  10
HETATM   10  C   UNK N   1      29.195  23.572  -4.489  0.00  0.00     0.071 A 
HETATM   11  C   UNK N   1      30.336  22.902  -4.997  0.00  0.00     0.076 A 
HETATM   12  C   UNK N   1      31.208  22.325  -4.075  0.00  0.00     0.107 A 
HETATM   13  O   UNK N   1      32.343  21.666  -4.307  0.00  0.00    -0.323 OA
HETATM   14  C   UNK N   1      30.994  22.377  -2.755  0.00  0.00     0.105 A 
HETATM   15  C   UNK N   1      32.885  21.273  -3.078  0.00  0.00     0.352 A 
HETATM   16  O   UNK N   1      31.981  21.749  -2.122  0.00  0.00    -0.323 OA
HETATM   17  C   UNK N   1      29.887  23.015  -2.206  0.00  0.00     0.042 A 
HETATM   18  C   UNK N   1      28.983  23.626  -3.092  0.00  0.00     0.039 A 
ENDBRANCH   9  10
ENDBRANCH   8   9
ENDBRANCH   3   8
BRANCH   2  19
HETATM   19  C   UNK N   1      26.146  26.459  -6.548  0.00  0.00    -0.053 A 
HETATM   20  C   UNK N   1      25.240  26.667  -5.500  0.00  0.00     0.010 A 
HETATM   21  C   UNK N   1      25.358  27.780  -4.662  0.00  0.00     0.043 A 
HETATM   22  C   UNK N   1      26.373  28.713  -4.878  0.00  0.00     0.116 A 
HETATM   23  F   UNK N   1      26.489  29.790  -4.064  0.00  0.00    -0.206 F 
HETATM   24  C   UNK N   1      27.264  28.540  -5.938  0.00  0.00     0.043 A 
HETATM   25  C   UNK N   1      27.151  27.422  -6.770  0.00  0.00     0.010 A 
ENDBRANCH   2  19
TORSDOF 4
ENDMDL
MODEL 8
REMARK VINA RESULT:      -6.7      2.902      4.491
REMARK  4 active torsions:
REMARK  status: ('A' for Active; 'I' for Inactive)
REMARK    1  A    between atoms: O_2  and  C_11 
REMARK    2  A    between atoms: O_2  and  C_17 
REMARK    3  A    between atoms: C_6  and  C_12 
REMARK    4  A    between atoms: C_7  and  C_11 
ROOT
HETATM    1  N   UNK N   1      27.091  20.091   7.279  0.00  0.00    -0.421 N 
HETATM    2  C   UNK N   1      28.535  18.461   5.331  0.00  0.00     0.028 C 
HETATM    3  C   UNK N   1      28.214  17.956   6.774  0.00  0.00     0.036 C 
HETATM    4  C   UNK N   1      27.562  19.592   4.950  0.00  0.00     0.029 C 
HETATM    5  C   UNK N   1      28.111  19.150   7.727  0.00  0.00     0.121 C 
HETATM    6  C   UNK N   1      27.541  20.671   6.021  0.00  0.00     0.114 C 
HETATM    7  H   UNK N   1      26.217  20.306   7.761  0.00  0.00     0.153 HD
ENDROOT
BRANCH   3   8
HETATM    8  C   UNK N   1      29.247  17.020   7.407  0.00  0.00     0.182 C 
BRANCH   8   9
HETATM    9  O   UNK N   1      30.412  17.681   7.712  0.00  0.00    -0.351 OA
BRANCH   9  10
HETATM   10  C   UNK N   1      31.640  17.268   7.330  0.00  0.00     0.071 A 
HETATM   11  C   UNK N   1      31.825  16.139   6.492  0.00  0.00     0.076 A 
HETATM   12  C   UNK N   1      33.132  15.804   6.142  0.00  0.00     0.107 A 
HETATM   13  O   UNK N   1      33.553  14.810   5.361  0.00  0.00    -0.323 OA
HETATM   14  C   UNK N   1      34.192  16.497   6.576  0.00  0.00     0.105 A 
HETATM   15  C   UNK N   1      34.949  14.864   5.289  0.00  0.00     0.352 A 
HETATM   16  O   UNK N   1      35.304  15.957   6.087  0.00  0.00    -0.323 OA
HETATM   17  C   UNK N   1      34.065  17.607   7.405  0.00  0.00     0.042 A 
HETATM   18  C   UNK N   1      32.767  17.996   7.777  0.00  0.00     0.039 A 
ENDBRANCH   9  10
ENDBRANCH   8   9
ENDBRANCH   3   8
BRANCH   2  19
HETATM   19  C   UNK N   1      28.530  17.381   4.255  0.00  0.00    -0.053 A 
HETATM   20  C   UNK N   1      27.320  16.833   3.809  0.00  0.00     0.010 A 
HETATM   21  C   UNK N   1      27.305  15.834   2.831  0.00  0.00     0.043 A 
HETATM   22  C   UNK N   1      28.504  15.352   2.304  0.00  0.00     0.116 A 
HETATM   23  F   UNK N   1      28.488  14.386   1.355  0.00  0.00    -0.206 F 
HETATM   24  C   UNK N   1      29.720  15.863   2.760  0.00  0.00     0.043 A 
HETATM   25  C   UNK N   1      29.735  16.869   3.731  0.00  0.00     0.010 A 
ENDBRANCH   2  19
TORSDOF 4
ENDMDL
MODEL 9
REMARK VINA RESULT:      -6.7      9.100     12.542
REMARK  4 active torsions:
REMARK  status: ('A' for Active; 'I' for Inactive)
REMARK    1  A    between atoms: O_2  and  C_11 
REMARK    2  A    between atoms: O_2  and  C_17 
REMARK    3  A    between atoms: C_6  and  C_12 
REMARK    4  A    between atoms: C_7  and  C_11 
ROOT
HETATM    1  N   UNK N   1      36.988   9.218  12.963  0.00  0.00    -0.421 N 
HETATM    2  C   UNK N   1      36.627  11.421  14.847  0.00  0.00     0.028 C 
HETATM    3  C   UNK N   1      35.544  11.037  13.789  0.00  0.00     0.036 C 
HETATM    4  C   UNK N   1      37.553  10.217  15.102  0.00  0.00     0.029 C 
HETATM    5  C   UNK N   1      36.217  10.393  12.573  0.00  0.00     0.121 C 
HETATM    6  C   UNK N   1      38.097   9.667  13.793  0.00  0.00     0.114 C 
HETATM    7  H   UNK N   1      36.787   8.252  12.700  0.00  0.00     0.153 HD
ENDROOT
BRANCH   3   8
HETATM    8  C   UNK N   1      34.709  12.190  13.227  0.00  0.00     0.182 C 
BRANCH   8   9
HETATM    9  O   UNK N   1      35.502  13.210  12.761  0.00  0.00    -0.351 OA
BRANCH   9  10
HETATM   10  C   UNK N   1      35.198  13.978  11.692  0.00  0.00     0.071 A 
HETATM   11  C   UNK N   1      35.468  15.369  11.665  0.00  0.00     0.076 A 
HETATM   12  C   UNK N   1      35.132  16.068  10.508  0.00  0.00     0.107 A 
HETATM   13  O   UNK N   1      35.304  17.363  10.242  0.00  0.00    -0.323 OA
HETATM   14  C   UNK N   1      34.562  15.477   9.451  0.00  0.00     0.105 A 
HETATM   15  C   UNK N   1      34.821  17.618   8.953  0.00  0.00     0.352 A 
HETATM   16  O   UNK N   1      34.356  16.380   8.497  0.00  0.00    -0.323 OA
HETATM   17  C   UNK N   1      34.270  14.117   9.428  0.00  0.00     0.042 A 
HETATM   18  C   UNK N   1      34.602  13.362  10.566  0.00  0.00     0.039 A 
ENDBRANCH   9  10
ENDBRANCH   8   9
ENDBRANCH   3   8
BRANCH   2  19
HETATM   19  C   UNK N   1      36.077  11.949  16.168  0.00  0.00    -0.053 A 
HETATM   20  C   UNK N   1      35.861  13.323  16.344  0.00  0.00     0.010 A 
HETATM   21  C   UNK N   1      35.369  13.819  17.554  0.00  0.00     0.043 A 
HETATM   22  C   UNK N   1      35.109  12.949  18.614  0.00  0.00     0.116 A 
HETATM   23  F   UNK N   1      34.629  13.431  19.786  0.00  0.00    -0.206 F 
HETATM   24  C   UNK N   1      35.349  11.582  18.467  0.00  0.00     0.043 A 
HETATM   25  C   UNK N   1      35.833  11.084  17.253  0.00  0.00     0.010 A 
ENDBRANCH   2  19
TORSDOF 4
ENDMDL
