REMARK  4 active torsions:
REMARK  status: ('A' for Active; 'I' for Inactive)
REMARK    1  A    between atoms: O_2  and  C_11 
REMARK    2  A    between atoms: O_2  and  C_17 
REMARK    3  A    between atoms: C_6  and  C_12 
REMARK    4  A    between atoms: C_7  and  C_11 
ROOT
HETATM    1  N   UNK N   1       0.662   3.771   0.405  0.00  0.00    -0.421 N 
HETATM    2  C   UNK N   1       1.373   1.092  -0.518  0.00  0.00     0.028 C 
HETATM    3  C   UNK N   1       2.358   1.985   0.302  0.00  0.00     0.036 C 
HETATM    4  C   UNK N   1      -0.074   1.561  -0.278  0.00  0.00     0.029 C 
HETATM    5  C   UNK N   1       2.043   3.463   0.052  0.00  0.00     0.121 C 
HETATM    6  C   UNK N   1      -0.205   3.056  -0.521  0.00  0.00     0.114 C 
HETATM    7  H   UNK N   1       0.357   4.380   1.165  0.00  0.00     0.153 HD
ENDROOT
BRANCH   3   8
HETATM    8  C   UNK N   1       3.845   1.826  -0.024  0.00  0.00     0.182 C 
BRANCH   8   9
HETATM    9  O   UNK N   1       4.312   0.584   0.330  0.00  0.00    -0.351 OA
BRANCH   9  10
HETATM   10  C   UNK N   1       5.616   0.231   0.311  0.00  0.00     0.071 A 
HETATM   11  C   UNK N   1       6.654   1.195   0.269  0.00  0.00     0.076 A 
HETATM   12  C   UNK N   1       7.967   0.729   0.269  0.00  0.00     0.107 A 
HETATM   13  O   UNK N   1       9.098   1.434   0.252  0.00  0.00    -0.323 OA
HETATM   14  C   UNK N   1       8.266  -0.576   0.294  0.00  0.00     0.105 A 
HETATM   15  C   UNK N   1      10.176   0.542   0.266  0.00  0.00     0.352 A 
HETATM   16  O   UNK N   1       9.587  -0.727   0.288  0.00  0.00    -0.323 OA
HETATM   17  C   UNK N   1       7.286  -1.562   0.328  0.00  0.00     0.042 A 
HETATM   18  C   UNK N   1       5.944  -1.145   0.344  0.00  0.00     0.039 A 
ENDBRANCH   9  10
ENDBRANCH   8   9
ENDBRANCH   3   8
BRANCH   2  19
HETATM   19  C   UNK N   1       1.490  -0.405  -0.254  0.00  0.00    -0.053 A 
HETATM   20  C   UNK N   1       2.580  -1.128  -0.757  0.00  0.00     0.010 A 
HETATM   21  C   UNK N   1       2.692  -2.503  -0.531  0.00  0.00     0.043 A 
HETATM   22  C   UNK N   1       1.700  -3.178   0.182  0.00  0.00     0.116 A 
HETATM   23  F   UNK N   1       1.810  -4.510   0.403  0.00  0.00    -0.206 F 
HETATM   24  C   UNK N   1       0.591  -2.480   0.662  0.00  0.00     0.043 A 
HETATM   25  C   UNK N   1       0.484  -1.103   0.444  0.00  0.00     0.010 A 
ENDBRANCH   2  19
TORSDOF 4
