MODEL 1
REMARK VINA RESULT:      -7.3      0.000      0.000
REMARK  7 active torsions:
REMARK  status: ('A' for Active; 'I' for Inactive)
REMARK    1  A    between atoms: O_4  and  C_26 
REMARK    2  A    between atoms: O_6  and  C_27 
REMARK    3  A    between atoms: N_8  and  C_16 
REMARK    4  A    between atoms: C_10  and  C_12 
REMARK    5  A    between atoms: C_12  and  C_18 
REMARK    6  A    between atoms: C_17  and  C_26 
REMARK    7  A    between atoms: C_24  and  C_27 
ROOT
HETATM    1  O   UNK N   1      27.447  23.355  -6.907  0.00  0.00    -0.302 OA
HETATM    2  O   UNK N   1      30.504  23.049  -1.488  0.00  0.00    -0.287 OA
HETATM    3  O   UNK N   1      26.513  25.019  -3.436  0.00  0.00    -0.287 OA
HETATM    4  N   UNK N   1      31.454  21.324  -4.991  0.00  0.00    -0.340 N 
HETATM    5  C   UNK N   1      30.287  22.091  -4.914  0.00  0.00     0.058 A 
HETATM    6  C   UNK N   1      29.392  22.305  -6.029  0.00  0.00     0.005 A 
HETATM    7  C   UNK N   1      29.952  22.707  -3.672  0.00  0.00     0.043 A 
HETATM    8  C   UNK N   1      28.249  23.122  -5.865  0.00  0.00     0.099 A 
HETATM    9  C   UNK N   1      27.957  23.705  -4.622  0.00  0.00     0.050 A 
HETATM   10  C   UNK N   1      28.800  23.488  -3.542  0.00  0.00     0.036 A 
HETATM   11  C   UNK N   1      32.271  21.176  -3.877  0.00  0.00     0.113 A 
HETATM   12  C   UNK N   1      30.778  22.535  -2.560  0.00  0.00     0.186 A 
HETATM   13  C   UNK N   1      31.924  21.779  -2.671  0.00  0.00     0.092 A 
HETATM   14  C   UNK N   1      26.811  24.505  -4.501  0.00  0.00     0.187 A 
HETATM   15  C   UNK N   1      26.369  24.131  -6.833  0.00  0.00     0.153 A 
HETATM   16  C   UNK N   1      26.012  24.723  -5.618  0.00  0.00     0.100 A 
ENDROOT
BRANCH  11  17
HETATM   17  C   UNK N   1      33.552  20.398  -3.879  0.00  0.00     0.193 C 
HETATM   18  O   UNK N   1      34.636  20.943  -3.991  0.00  0.00    -0.645 OA
BRANCH  17  19
HETATM   19  O   UNK N   1      33.513  19.057  -3.734  0.00  0.00    -0.772 OA
HETATM   20  H   UNK N   1      33.000  18.533  -4.318  0.00  0.00     0.167 HD
ENDBRANCH  17  19
ENDBRANCH  11  17
BRANCH   4  21
HETATM   21  C   UNK N   1      31.842  20.654  -6.234  0.00  0.00     0.125 C 
HETATM   22  C   UNK N   1      32.883  21.470  -6.983  0.00  0.00     0.027 C 
ENDBRANCH   4  21
BRANCH   6  23
HETATM   23  C   UNK N   1      29.587  21.682  -7.386  0.00  0.00     0.043 C 
BRANCH  23  24
HETATM   24  C   UNK N   1      28.510  20.659  -7.711  0.00  0.00     0.000 C 
HETATM   25  C   UNK N   1      29.140  19.282  -7.769  0.00  0.00     0.005 C 
ENDBRANCH  23  24
ENDBRANCH   6  23
BRANCH  15  26
HETATM   26  C   UNK N   1      25.576  24.386  -8.047  0.00  0.00     0.201 C 
HETATM   27  O   UNK N   1      25.680  25.454  -8.630  0.00  0.00    -0.645 OA
BRANCH  26  28
HETATM   28  O   UNK N   1      24.713  23.459  -8.506  0.00  0.00    -0.771 OA
HETATM   29  H   UNK N   1      24.027  23.137  -7.954  0.00  0.00     0.167 HD
ENDBRANCH  26  28
ENDBRANCH  15  26
TORSDOF 7
ENDMDL
MODEL 2
REMARK VINA RESULT:      -7.1      1.445      6.427
REMARK  7 active torsions:
REMARK  status: ('A' for Active; 'I' for Inactive)
REMARK    1  A    between atoms: O_4  and  C_26 
REMARK    2  A    between atoms: O_6  and  C_27 
REMARK    3  A    between atoms: N_8  and  C_16 
REMARK    4  A    between atoms: C_10  and  C_12 
REMARK    5  A    between atoms: C_12  and  C_18 
REMARK    6  A    between atoms: C_17  and  C_26 
REMARK    7  A    between atoms: C_24  and  C_27 
ROOT
HETATM    1  O   UNK N   1      31.537  20.929  -5.082  0.00  0.00    -0.302 OA
HETATM    2  O   UNK N   1      26.839  24.845  -3.900  0.00  0.00    -0.287 OA
HETATM    3  O   UNK N   1      30.836  23.044  -1.807  0.00  0.00    -0.287 OA
HETATM    4  N   UNK N   1      27.549  22.734  -7.245  0.00  0.00    -0.340 N 
HETATM    5  C   UNK N   1      28.449  22.629  -6.180  0.00  0.00     0.058 A 
HETATM    6  C   UNK N   1      29.632  21.798  -6.208  0.00  0.00     0.005 A 
HETATM    7  C   UNK N   1      28.195  23.375  -4.991  0.00  0.00     0.043 A 
HETATM    8  C   UNK N   1      30.470  21.731  -5.070  0.00  0.00     0.099 A 
HETATM    9  C   UNK N   1      30.182  22.486  -3.923  0.00  0.00     0.050 A 
HETATM   10  C   UNK N   1      29.061  23.302  -3.895  0.00  0.00     0.036 A 
HETATM   11  C   UNK N   1      26.426  23.545  -7.136  0.00  0.00     0.113 A 
HETATM   12  C   UNK N   1      27.069  24.195  -4.906  0.00  0.00     0.186 A 
HETATM   13  C   UNK N   1      26.198  24.270  -5.970  0.00  0.00     0.092 A 
HETATM   14  C   UNK N   1      31.041  22.394  -2.818  0.00  0.00     0.187 A 
HETATM   15  C   UNK N   1      32.357  20.798  -4.041  0.00  0.00     0.153 A 
HETATM   16  C   UNK N   1      32.136  21.539  -2.876  0.00  0.00     0.100 A 
ENDROOT
BRANCH  11  17
HETATM   17  C   UNK N   1      25.396  23.693  -8.215  0.00  0.00     0.193 C 
HETATM   18  O   UNK N   1      25.422  24.618  -9.008  0.00  0.00    -0.645 OA
BRANCH  17  19
HETATM   19  O   UNK N   1      24.419  22.769  -8.330  0.00  0.00    -0.772 OA
HETATM   20  H   UNK N   1      24.362  22.235  -9.098  0.00  0.00     0.167 HD
ENDBRANCH  17  19
ENDBRANCH  11  17
BRANCH   4  21
HETATM   21  C   UNK N   1      27.764  22.005  -8.497  0.00  0.00     0.125 C 
HETATM   22  C   UNK N   1      28.415  22.901  -9.537  0.00  0.00     0.027 C 
ENDBRANCH   4  21
BRANCH   6  23
HETATM   23  C   UNK N   1      30.057  20.992  -7.407  0.00  0.00     0.043 C 
BRANCH  23  24
HETATM   24  C   UNK N   1      29.626  19.537  -7.307  0.00  0.00     0.000 C 
HETATM   25  C   UNK N   1      29.981  18.828  -8.598  0.00  0.00     0.005 C 
ENDBRANCH  23  24
ENDBRANCH   6  23
BRANCH  15  26
HETATM   26  C   UNK N   1      33.474  19.842  -4.115  0.00  0.00     0.201 C 
HETATM   27  O   UNK N   1      34.559  20.205  -4.541  0.00  0.00    -0.645 OA
BRANCH  26  28
HETATM   28  O   UNK N   1      33.301  18.559  -3.741  0.00  0.00    -0.771 OA
HETATM   29  H   UNK N   1      34.041  17.993  -3.638  0.00  0.00     0.167 HD
ENDBRANCH  26  28
ENDBRANCH  15  26
TORSDOF 7
ENDMDL
MODEL 3
REMARK VINA RESULT:      -6.8      1.943      4.218
REMARK  7 active torsions:
REMARK  status: ('A' for Active; 'I' for Inactive)
REMARK    1  A    between atoms: O_4  and  C_26 
REMARK    2  A    between atoms: O_6  and  C_27 
REMARK    3  A    between atoms: N_8  and  C_16 
REMARK    4  A    between atoms: C_10  and  C_12 
REMARK    5  A    between atoms: C_12  and  C_18 
REMARK    6  A    between atoms: C_17  and  C_26 
REMARK    7  A    between atoms: C_24  and  C_27 
ROOT
HETATM    1  O   UNK N   1      27.544  25.677  -4.236  0.00  0.00    -0.302 OA
HETATM    2  O   UNK N   1      28.498  20.649  -7.786  0.00  0.00    -0.287 OA
HETATM    3  O   UNK N   1      25.216  24.155  -7.057  0.00  0.00    -0.287 OA
HETATM    4  N   UNK N   1      30.891  22.195  -4.951  0.00  0.00    -0.340 N 
HETATM    5  C   UNK N   1      29.680  22.836  -5.233  0.00  0.00     0.058 A 
HETATM    6  C   UNK N   1      29.231  24.034  -4.559  0.00  0.00     0.005 A 
HETATM    7  C   UNK N   1      28.829  22.286  -6.236  0.00  0.00     0.043 A 
HETATM    8  C   UNK N   1      27.976  24.597  -4.890  0.00  0.00     0.099 A 
HETATM    9  C   UNK N   1      27.173  24.022  -5.887  0.00  0.00     0.050 A 
HETATM   10  C   UNK N   1      27.606  22.885  -6.553  0.00  0.00     0.036 A 
HETATM   11  C   UNK N   1      31.246  21.038  -5.633  0.00  0.00     0.113 A 
HETATM   12  C   UNK N   1      29.211  21.131  -6.921  0.00  0.00     0.186 A 
HETATM   13  C   UNK N   1      30.406  20.518  -6.614  0.00  0.00     0.092 A 
HETATM   14  C   UNK N   1      25.938  24.614  -6.187  0.00  0.00     0.187 A 
HETATM   15  C   UNK N   1      26.365  26.247  -4.477  0.00  0.00     0.153 A 
HETATM   16  C   UNK N   1      25.529  25.735  -5.472  0.00  0.00     0.100 A 
ENDROOT
BRANCH  11  17
HETATM   17  C   UNK N   1      32.508  20.271  -5.375  0.00  0.00     0.193 C 
HETATM   18  O   UNK N   1      33.529  20.479  -6.007  0.00  0.00    -0.645 OA
BRANCH  17  19
HETATM   19  O   UNK N   1      32.527  19.334  -4.403  0.00  0.00    -0.772 OA
HETATM   20  H   UNK N   1      33.297  19.207  -3.885  0.00  0.00     0.167 HD
ENDBRANCH  17  19
ENDBRANCH  11  17
BRANCH   4  21
HETATM   21  C   UNK N   1      31.814  22.721  -3.943  0.00  0.00     0.125 C 
HETATM   22  C   UNK N   1      31.643  21.989  -2.622  0.00  0.00     0.027 C 
ENDBRANCH   4  21
BRANCH   6  23
HETATM   23  C   UNK N   1      30.041  24.756  -3.514  0.00  0.00     0.043 C 
BRANCH  23  24
HETATM   24  C   UNK N   1      30.891  25.868  -4.110  0.00  0.00     0.000 C 
HETATM   25  C   UNK N   1      30.748  27.110  -3.254  0.00  0.00     0.005 C 
ENDBRANCH  23  24
ENDBRANCH   6  23
BRANCH  15  26
HETATM   26  C   UNK N   1      25.937  27.398  -3.664  0.00  0.00     0.201 C 
HETATM   27  O   UNK N   1      26.139  27.403  -2.460  0.00  0.00    -0.645 OA
BRANCH  26  28
HETATM   28  O   UNK N   1      25.299  28.437  -4.236  0.00  0.00    -0.771 OA
HETATM   29  H   UNK N   1      25.384  28.596  -5.156  0.00  0.00     0.167 HD
ENDBRANCH  26  28
ENDBRANCH  15  26
TORSDOF 7
ENDMDL
MODEL 4
REMARK VINA RESULT:      -6.7      9.994     11.784
REMARK  7 active torsions:
REMARK  status: ('A' for Active; 'I' for Inactive)
REMARK    1  A    between atoms: O_4  and  C_26 
REMARK    2  A    between atoms: O_6  and  C_27 
REMARK    3  A    between atoms: N_8  and  C_16 
REMARK    4  A    between atoms: C_10  and  C_12 
REMARK    5  A    between atoms: C_12  and  C_18 
REMARK    6  A    between atoms: C_17  and  C_26 
REMARK    7  A    between atoms: C_24  and  C_27 
ROOT
HETATM    1  O   UNK N   1      26.652  19.263   4.049  0.00  0.00    -0.302 OA
HETATM    2  O   UNK N   1      29.903  18.531   9.312  0.00  0.00    -0.287 OA
HETATM    3  O   UNK N   1      26.292  21.213   7.478  0.00  0.00    -0.287 OA
HETATM    4  N   UNK N   1      30.264  16.516   5.854  0.00  0.00    -0.340 N 
HETATM    5  C   UNK N   1      29.287  17.512   5.954  0.00  0.00     0.058 A 
HETATM    6  C   UNK N   1      28.389  17.865   4.877  0.00  0.00     0.005 A 
HETATM    7  C   UNK N   1      29.161  18.229   7.180  0.00  0.00     0.043 A 
HETATM    8  C   UNK N   1      27.450  18.908   5.059  0.00  0.00     0.099 A 
HETATM    9  C   UNK N   1      27.361  19.585   6.285  0.00  0.00     0.050 A 
HETATM   10  C   UNK N   1      28.204  19.238   7.330  0.00  0.00     0.036 A 
HETATM   11  C   UNK N   1      31.099  16.243   6.930  0.00  0.00     0.113 A 
HETATM   12  C   UNK N   1      30.000  17.931   8.255  0.00  0.00     0.186 A 
HETATM   13  C   UNK N   1      30.957  16.950   8.121  0.00  0.00     0.092 A 
HETATM   14  C   UNK N   1      26.413  20.610   6.425  0.00  0.00     0.187 A 
HETATM   15  C   UNK N   1      25.763  20.249   4.141  0.00  0.00     0.153 A 
HETATM   16  C   UNK N   1      25.610  20.947   5.341  0.00  0.00     0.100 A 
ENDROOT
BRANCH  11  17
HETATM   17  C   UNK N   1      32.190  15.216   6.901  0.00  0.00     0.193 C 
HETATM   18  O   UNK N   1      33.356  15.520   6.721  0.00  0.00    -0.645 OA
BRANCH  17  19
HETATM   19  O   UNK N   1      31.883  13.917   7.097  0.00  0.00    -0.772 OA
HETATM   20  H   UNK N   1      32.474  13.245   6.821  0.00  0.00     0.167 HD
ENDBRANCH  17  19
ENDBRANCH  11  17
BRANCH   4  21
HETATM   21  C   UNK N   1      30.431  15.734   4.627  0.00  0.00     0.125 C 
HETATM   22  C   UNK N   1      31.567  16.290   3.785  0.00  0.00     0.027 C 
ENDBRANCH   4  21
BRANCH   6  23
HETATM   23  C   UNK N   1      28.369  17.165   3.543  0.00  0.00     0.043 C 
BRANCH  23  24
HETATM   24  C   UNK N   1      27.220  16.176   3.428  0.00  0.00     0.000 C 
HETATM   25  C   UNK N   1      27.469  15.268   2.241  0.00  0.00     0.005 C 
ENDBRANCH  23  24
ENDBRANCH   6  23
BRANCH  15  26
HETATM   26  C   UNK N   1      24.967  20.618   2.958  0.00  0.00     0.201 C 
HETATM   27  O   UNK N   1      25.487  20.631   1.854  0.00  0.00    -0.645 OA
BRANCH  26  28
HETATM   28  O   UNK N   1      23.673  20.970   3.089  0.00  0.00    -0.771 OA
HETATM   29  H   UNK N   1      23.227  20.833   3.901  0.00  0.00     0.167 HD
ENDBRANCH  26  28
ENDBRANCH  15  26
TORSDOF 7
ENDMDL
MODEL 5
REMARK VINA RESULT:      -6.7     11.194     15.338
REMARK  7 active torsions:
REMARK  status: ('A' for Active; 'I' for Inactive)
REMARK    1  A    between atoms: O_4  and  C_26 
REMARK    2  A    between atoms: O_6  and  C_27 
REMARK    3  A    between atoms: N_8  and  C_16 
REMARK    4  A    between atoms: C_10  and  C_12 
REMARK    5  A    between atoms: C_12  and  C_18 
REMARK    6  A    between atoms: C_17  and  C_26 
REMARK    7  A    between atoms: C_24  and  C_27 
ROOT
HETATM    1  O   UNK N   1      33.258  16.235   8.742  0.00  0.00    -0.302 OA
HETATM    2  O   UNK N   1      32.307  16.067   2.589  0.00  0.00    -0.287 OA
HETATM    3  O   UNK N   1      35.780  15.195   5.871  0.00  0.00    -0.287 OA
HETATM    4  N   UNK N   1      29.720  17.094   5.488  0.00  0.00    -0.340 N 
HETATM    5  C   UNK N   1      31.012  16.697   5.848  0.00  0.00     0.058 A 
HETATM    6  C   UNK N   1      31.480  16.634   7.215  0.00  0.00     0.005 A 
HETATM    7  C   UNK N   1      31.932  16.336   4.819  0.00  0.00     0.043 A 
HETATM    8  C   UNK N   1      32.815  16.250   7.483  0.00  0.00     0.099 A 
HETATM    9  C   UNK N   1      33.683  15.900   6.438  0.00  0.00     0.050 A 
HETATM   10  C   UNK N   1      33.236  15.938   5.125  0.00  0.00     0.036 A 
HETATM   11  C   UNK N   1      29.350  17.142   4.149  0.00  0.00     0.113 A 
HETATM   12  C   UNK N   1      31.536  16.377   3.481  0.00  0.00     0.186 A 
HETATM   13  C   UNK N   1      30.259  16.780   3.159  0.00  0.00     0.092 A 
HETATM   14  C   UNK N   1      34.998  15.520   6.747  0.00  0.00     0.187 A 
HETATM   15  C   UNK N   1      34.506  15.906   9.067  0.00  0.00     0.153 A 
HETATM   16  C   UNK N   1      35.414  15.528   8.074  0.00  0.00     0.100 A 
ENDROOT
BRANCH  11  17
HETATM   17  C   UNK N   1      27.999  17.583   3.673  0.00  0.00     0.193 C 
HETATM   18  O   UNK N   1      27.142  16.784   3.337  0.00  0.00    -0.645 OA
BRANCH  17  19
HETATM   19  O   UNK N   1      27.708  18.900   3.630  0.00  0.00    -0.772 OA
HETATM   20  H   UNK N   1      27.880  19.396   2.854  0.00  0.00     0.167 HD
ENDBRANCH  17  19
ENDBRANCH  11  17
BRANCH   4  21
HETATM   21  C   UNK N   1      28.727  17.461   6.499  0.00  0.00     0.125 C 
HETATM   22  C   UNK N   1      27.724  16.338   6.702  0.00  0.00     0.027 C 
ENDBRANCH   4  21
BRANCH   6  23
HETATM   23  C   UNK N   1      30.612  16.938   8.408  0.00  0.00     0.043 C 
BRANCH  23  24
HETATM   24  C   UNK N   1      30.777  18.370   8.891  0.00  0.00     0.000 C 
HETATM   25  C   UNK N   1      29.647  18.701   9.846  0.00  0.00     0.005 C 
ENDBRANCH  23  24
ENDBRANCH   6  23
BRANCH  15  26
HETATM   26  C   UNK N   1      34.931  15.979  10.475  0.00  0.00     0.201 C 
HETATM   27  O   UNK N   1      35.961  16.563  10.772  0.00  0.00    -0.645 OA
BRANCH  26  28
HETATM   28  O   UNK N   1      34.203  15.381  11.439  0.00  0.00    -0.771 OA
HETATM   29  H   UNK N   1      33.939  14.486  11.345  0.00  0.00     0.167 HD
ENDBRANCH  26  28
ENDBRANCH  15  26
TORSDOF 7
ENDMDL
MODEL 6
REMARK VINA RESULT:      -6.7     10.899     12.300
REMARK  7 active torsions:
REMARK  status: ('A' for Active; 'I' for Inactive)
REMARK    1  A    between atoms: O_4  and  C_26 
REMARK    2  A    between atoms: O_6  and  C_27 
REMARK    3  A    between atoms: N_8  and  C_16 
REMARK    4  A    between atoms: C_10  and  C_12 
REMARK    5  A    between atoms: C_12  and  C_18 
REMARK    6  A    between atoms: C_17  and  C_26 
REMARK    7  A    between atoms: C_24  and  C_27 
ROOT
HETATM    1  O   UNK N   1      21.846  17.737   3.883  0.00  0.00    -0.302 OA
HETATM    2  O   UNK N   1      27.473  20.408   3.796  0.00  0.00    -0.287 OA
HETATM    3  O   UNK N   1      22.850  21.365   2.652  0.00  0.00    -0.287 OA
HETATM    4  N   UNK N   1      26.472  16.734   5.082  0.00  0.00    -0.340 N 
HETATM    5  C   UNK N   1      25.465  17.574   4.595  0.00  0.00     0.058 A 
HETATM    6  C   UNK N   1      24.071  17.197   4.524  0.00  0.00     0.005 A 
HETATM    7  C   UNK N   1      25.821  18.876   4.135  0.00  0.00     0.043 A 
HETATM    8  C   UNK N   1      23.125  18.102   3.988  0.00  0.00     0.099 A 
HETATM    9  C   UNK N   1      23.521  19.376   3.551  0.00  0.00     0.050 A 
HETATM   10  C   UNK N   1      24.854  19.753   3.634  0.00  0.00     0.036 A 
HETATM   11  C   UNK N   1      27.793  17.164   5.105  0.00  0.00     0.113 A 
HETATM   12  C   UNK N   1      27.151  19.295   4.180  0.00  0.00     0.186 A 
HETATM   13  C   UNK N   1      28.120  18.441   4.657  0.00  0.00     0.092 A 
HETATM   14  C   UNK N   1      22.551  20.245   3.030  0.00  0.00     0.187 A 
HETATM   15  C   UNK N   1      20.906  18.526   3.368  0.00  0.00     0.153 A 
HETATM   16  C   UNK N   1      21.232  19.814   2.934  0.00  0.00     0.100 A 
ENDROOT
BRANCH  11  17
HETATM   17  C   UNK N   1      28.937  16.321   5.581  0.00  0.00     0.193 C 
HETATM   18  O   UNK N   1      29.432  16.471   6.685  0.00  0.00    -0.645 OA
BRANCH  17  19
HETATM   19  O   UNK N   1      29.427  15.354   4.778  0.00  0.00    -0.772 OA
HETATM   20  H   UNK N   1      29.629  14.508   5.126  0.00  0.00     0.167 HD
ENDBRANCH  17  19
ENDBRANCH  11  17
BRANCH   4  21
HETATM   21  C   UNK N   1      26.168  15.392   5.582  0.00  0.00     0.125 C 
HETATM   22  C   UNK N   1      26.159  15.373   7.102  0.00  0.00     0.027 C 
ENDBRANCH   4  21
BRANCH   6  23
HETATM   23  C   UNK N   1      23.538  15.877   5.016  0.00  0.00     0.043 C 
BRANCH  23  24
HETATM   24  C   UNK N   1      22.688  16.029   6.268  0.00  0.00     0.000 C 
HETATM   25  C   UNK N   1      22.488  14.665   6.896  0.00  0.00     0.005 C 
ENDBRANCH  23  24
ENDBRANCH   6  23
BRANCH  15  26
HETATM   26  C   UNK N   1      19.531  18.020   3.229  0.00  0.00     0.201 C 
HETATM   27  O   UNK N   1      19.156  17.080   3.912  0.00  0.00    -0.645 OA
BRANCH  26  28
HETATM   28  O   UNK N   1      18.689  18.569   2.333  0.00  0.00    -0.771 OA
HETATM   29  H   UNK N   1      18.028  18.046   1.923  0.00  0.00     0.167 HD
ENDBRANCH  26  28
ENDBRANCH  15  26
TORSDOF 7
ENDMDL
MODEL 7
REMARK VINA RESULT:      -6.7     11.804     14.207
REMARK  7 active torsions:
REMARK  status: ('A' for Active; 'I' for Inactive)
REMARK    1  A    between atoms: O_4  and  C_26 
REMARK    2  A    between atoms: O_6  and  C_27 
REMARK    3  A    between atoms: N_8  and  C_16 
REMARK    4  A    between atoms: C_10  and  C_12 
REMARK    5  A    between atoms: C_12  and  C_18 
REMARK    6  A    between atoms: C_17  and  C_26 
REMARK    7  A    between atoms: C_24  and  C_27 
ROOT
HETATM    1  O   UNK N   1      25.669  18.223   4.953  0.00  0.00    -0.302 OA
HETATM    2  O   UNK N   1      20.060  19.284   2.460  0.00  0.00    -0.287 OA
HETATM    3  O   UNK N   1      24.577  21.070   2.424  0.00  0.00    -0.287 OA
HETATM    4  N   UNK N   1      21.152  16.367   4.999  0.00  0.00    -0.340 N 
HETATM    5  C   UNK N   1      22.119  17.284   4.571  0.00  0.00     0.058 A 
HETATM    6  C   UNK N   1      23.502  17.246   4.991  0.00  0.00     0.005 A 
HETATM    7  C   UNK N   1      21.730  18.321   3.673  0.00  0.00     0.043 A 
HETATM    8  C   UNK N   1      24.403  18.234   4.529  0.00  0.00     0.099 A 
HETATM    9  C   UNK N   1      23.976  19.235   3.643  0.00  0.00     0.050 A 
HETATM   10  C   UNK N   1      22.656  19.265   3.219  0.00  0.00     0.036 A 
HETATM   11  C   UNK N   1      19.839  16.478   4.560  0.00  0.00     0.113 A 
HETATM   12  C   UNK N   1      20.409  18.407   3.232  0.00  0.00     0.186 A 
HETATM   13  C   UNK N   1      19.480  17.494   3.679  0.00  0.00     0.092 A 
HETATM   14  C   UNK N   1      24.903  20.192   3.206  0.00  0.00     0.187 A 
HETATM   15  C   UNK N   1      26.566  19.133   4.579  0.00  0.00     0.153 A 
HETATM   16  C   UNK N   1      26.208  20.144   3.682  0.00  0.00     0.100 A 
ENDROOT
BRANCH  11  17
HETATM   17  C   UNK N   1      18.735  15.560   4.991  0.00  0.00     0.193 C 
HETATM   18  O   UNK N   1      17.926  15.880   5.844  0.00  0.00    -0.645 OA
BRANCH  17  19
HETATM   19  O   UNK N   1      18.615  14.349   4.407  0.00  0.00    -0.772 OA
HETATM   20  H   UNK N   1      18.652  13.569   4.925  0.00  0.00     0.167 HD
ENDBRANCH  17  19
ENDBRANCH  11  17
BRANCH   4  21
HETATM   21  C   UNK N   1      21.493  15.271   5.908  0.00  0.00     0.125 C 
HETATM   22  C   UNK N   1      21.163  15.640   7.345  0.00  0.00     0.027 C 
ENDBRANCH   4  21
BRANCH   6  23
HETATM   23  C   UNK N   1      24.070  16.184   5.896  0.00  0.00     0.043 C 
BRANCH  23  24
HETATM   24  C   UNK N   1      24.872  15.143   5.131  0.00  0.00     0.000 C 
HETATM   25  C   UNK N   1      26.065  14.729   5.967  0.00  0.00     0.005 C 
ENDBRANCH  23  24
ENDBRANCH   6  23
BRANCH  15  26
HETATM   26  C   UNK N   1      27.924  19.086   5.145  0.00  0.00     0.201 C 
HETATM   27  O   UNK N   1      28.097  19.302   6.334  0.00  0.00    -0.645 OA
BRANCH  26  28
HETATM   28  O   UNK N   1      28.984  18.832   4.354  0.00  0.00    -0.771 OA
HETATM   29  H   UNK N   1      29.397  17.991   4.373  0.00  0.00     0.167 HD
ENDBRANCH  26  28
ENDBRANCH  15  26
TORSDOF 7
ENDMDL
MODEL 8
REMARK VINA RESULT:      -6.5     11.569     13.772
REMARK  7 active torsions:
REMARK  status: ('A' for Active; 'I' for Inactive)
REMARK    1  A    between atoms: O_4  and  C_26 
REMARK    2  A    between atoms: O_6  and  C_27 
REMARK    3  A    between atoms: N_8  and  C_16 
REMARK    4  A    between atoms: C_10  and  C_12 
REMARK    5  A    between atoms: C_12  and  C_18 
REMARK    6  A    between atoms: C_17  and  C_26 
REMARK    7  A    between atoms: C_24  and  C_27 
ROOT
HETATM    1  O   UNK N   1      28.119  19.301   7.019  0.00  0.00    -0.302 OA
HETATM    2  O   UNK N   1      30.178  14.266   3.985  0.00  0.00    -0.287 OA
HETATM    3  O   UNK N   1      26.894  17.820   3.556  0.00  0.00    -0.287 OA
HETATM    4  N   UNK N   1      31.459  15.770   7.484  0.00  0.00    -0.340 N 
HETATM    5  C   UNK N   1      30.430  16.430   6.804  0.00  0.00     0.058 A 
HETATM    6  C   UNK N   1      29.791  17.634   7.289  0.00  0.00     0.005 A 
HETATM    7  C   UNK N   1      29.973  15.895   5.564  0.00  0.00     0.043 A 
HETATM    8  C   UNK N   1      28.737  18.216   6.548  0.00  0.00     0.099 A 
HETATM    9  C   UNK N   1      28.322  17.655   5.330  0.00  0.00     0.050 A 
HETATM   10  C   UNK N   1      28.943  16.513   4.848  0.00  0.00     0.036 A 
HETATM   11  C   UNK N   1      32.014  14.609   6.959  0.00  0.00     0.113 A 
HETATM   12  C   UNK N   1      30.552  14.735   5.046  0.00  0.00     0.186 A 
HETATM   13  C   UNK N   1      31.558  14.105   5.744  0.00  0.00     0.092 A 
HETATM   14  C   UNK N   1      27.275  18.266   4.624  0.00  0.00     0.187 A 
HETATM   15  C   UNK N   1      27.105  19.889   6.388  0.00  0.00     0.153 A 
HETATM   16  C   UNK N   1      26.658  19.391   5.161  0.00  0.00     0.100 A 
ENDROOT
BRANCH  11  17
HETATM   17  C   UNK N   1      33.097  13.823   7.633  0.00  0.00     0.193 C 
HETATM   18  O   UNK N   1      32.848  12.952   8.448  0.00  0.00    -0.645 OA
BRANCH  17  19
HETATM   19  O   UNK N   1      34.387  14.068   7.320  0.00  0.00    -0.772 OA
HETATM   20  H   UNK N   1      34.887  14.680   7.823  0.00  0.00     0.167 HD
ENDBRANCH  17  19
ENDBRANCH  11  17
BRANCH   4  21
HETATM   21  C   UNK N   1      31.982  16.280   8.753  0.00  0.00     0.125 C 
HETATM   22  C   UNK N   1      33.226  17.123   8.523  0.00  0.00     0.027 C 
ENDBRANCH   4  21
BRANCH   6  23
HETATM   23  C   UNK N   1      30.198  18.341   8.555  0.00  0.00     0.043 C 
BRANCH  23  24
HETATM   24  C   UNK N   1      29.071  18.396   9.573  0.00  0.00     0.000 C 
HETATM   25  C   UNK N   1      28.915  17.030  10.210  0.00  0.00     0.005 C 
ENDBRANCH  23  24
ENDBRANCH   6  23
BRANCH  15  26
HETATM   26  C   UNK N   1      26.437  21.045   7.010  0.00  0.00     0.201 C 
HETATM   27  O   UNK N   1      26.360  22.102   6.405  0.00  0.00    -0.645 OA
BRANCH  26  28
HETATM   28  O   UNK N   1      25.933  20.952   8.256  0.00  0.00    -0.771 OA
HETATM   29  H   UNK N   1      26.143  21.599   8.900  0.00  0.00     0.167 HD
ENDBRANCH  26  28
ENDBRANCH  15  26
TORSDOF 7
ENDMDL
MODEL 9
REMARK VINA RESULT:      -6.5     11.084     13.673
REMARK  7 active torsions:
REMARK  status: ('A' for Active; 'I' for Inactive)
REMARK    1  A    between atoms: O_4  and  C_26 
REMARK    2  A    between atoms: O_6  and  C_27 
REMARK    3  A    between atoms: N_8  and  C_16 
REMARK    4  A    between atoms: C_10  and  C_12 
REMARK    5  A    between atoms: C_12  and  C_18 
REMARK    6  A    between atoms: C_17  and  C_26 
REMARK    7  A    between atoms: C_24  and  C_27 
ROOT
HETATM    1  O   UNK N   1      26.596  17.378   5.606  0.00  0.00    -0.302 OA
HETATM    2  O   UNK N   1      22.675  21.368   2.866  0.00  0.00    -0.287 OA
HETATM    3  O   UNK N   1      27.066  21.255   4.940  0.00  0.00    -0.287 OA
HETATM    4  N   UNK N   1      22.191  17.429   3.500  0.00  0.00    -0.340 N 
HETATM    5  C   UNK N   1      23.382  18.035   3.912  0.00  0.00     0.058 A 
HETATM    6  C   UNK N   1      24.462  17.325   4.560  0.00  0.00     0.005 A 
HETATM    7  C   UNK N   1      23.553  19.434   3.690  0.00  0.00     0.043 A 
HETATM    8  C   UNK N   1      25.619  18.027   4.969  0.00  0.00     0.099 A 
HETATM    9  C   UNK N   1      25.744  19.404   4.726  0.00  0.00     0.050 A 
HETATM   10  C   UNK N   1      24.722  20.090   4.087  0.00  0.00     0.036 A 
HETATM   11  C   UNK N   1      21.193  18.184   2.896  0.00  0.00     0.113 A 
HETATM   12  C   UNK N   1      22.544  20.172   3.068  0.00  0.00     0.186 A 
HETATM   13  C   UNK N   1      21.379  19.546   2.682  0.00  0.00     0.092 A 
HETATM   14  C   UNK N   1      26.910  20.063   5.144  0.00  0.00     0.187 A 
HETATM   15  C   UNK N   1      27.702  17.978   6.040  0.00  0.00     0.153 A 
HETATM   16  C   UNK N   1      27.896  19.343   5.811  0.00  0.00     0.100 A 
ENDROOT
BRANCH  11  17
HETATM   17  C   UNK N   1      19.876  17.622   2.452  0.00  0.00     0.193 C 
HETATM   18  O   UNK N   1      19.677  17.282   1.299  0.00  0.00    -0.645 OA
BRANCH  17  19
HETATM   19  O   UNK N   1      18.882  17.470   3.353  0.00  0.00    -0.772 OA
HETATM   20  H   UNK N   1      18.304  18.181   3.544  0.00  0.00     0.167 HD
ENDBRANCH  17  19
ENDBRANCH  11  17
BRANCH   4  21
HETATM   21  C   UNK N   1      21.964  15.994   3.686  0.00  0.00     0.125 C 
HETATM   22  C   UNK N   1      22.245  15.233   2.402  0.00  0.00     0.027 C 
ENDBRANCH   4  21
BRANCH   6  23
HETATM   23  C   UNK N   1      24.448  15.841   4.817  0.00  0.00     0.043 C 
BRANCH  23  24
HETATM   24  C   UNK N   1      24.040  15.506   6.243  0.00  0.00     0.000 C 
HETATM   25  C   UNK N   1      25.002  14.478   6.802  0.00  0.00     0.005 C 
ENDBRANCH  23  24
ENDBRANCH   6  23
BRANCH  15  26
HETATM   26  C   UNK N   1      28.701  17.200   6.791  0.00  0.00     0.201 C 
HETATM   27  O   UNK N   1      29.120  17.616   7.860  0.00  0.00    -0.645 OA
BRANCH  26  28
HETATM   28  O   UNK N   1      29.178  16.042   6.295  0.00  0.00    -0.771 OA
HETATM   29  H   UNK N   1      28.820  15.223   6.580  0.00  0.00     0.167 HD
ENDBRANCH  26  28
ENDBRANCH  15  26
TORSDOF 7
ENDMDL
