REMARK  7 active torsions:
REMARK  status: ('A' for Active; 'I' for Inactive)
REMARK    1  A    between atoms: O_4  and  C_26 
REMARK    2  A    between atoms: O_6  and  C_27 
REMARK    3  A    between atoms: N_8  and  C_16 
REMARK    4  A    between atoms: C_10  and  C_12 
REMARK    5  A    between atoms: C_12  and  C_18 
REMARK    6  A    between atoms: C_17  and  C_26 
REMARK    7  A    between atoms: C_24  and  C_27 
ROOT
HETATM    1  O   UNK N   1       3.223   0.405  -0.209  0.00  0.00    -0.302 OA
HETATM    2  O   UNK N   1       7.894  -3.687   0.280  0.00  0.00    -0.287 OA
HETATM    3  O   UNK N   1       3.039  -3.526   0.242  0.00  0.00    -0.287 OA
HETATM    4  N   UNK N   1       8.105   0.296  -0.211  0.00  0.00    -0.340 N 
HETATM    5  C   UNK N   1       6.845  -0.309  -0.152  0.00  0.00     0.058 A 
HETATM    6  C   UNK N   1       5.600   0.419  -0.257  0.00  0.00     0.005 A 
HETATM    7  C   UNK N   1       6.770  -1.722   0.026  0.00  0.00     0.043 A 
HETATM    8  C   UNK N   1       4.371  -0.274  -0.156  0.00  0.00     0.099 A 
HETATM    9  C   UNK N   1       4.346  -1.667   0.016  0.00  0.00     0.050 A 
HETATM   10  C   UNK N   1       5.536  -2.375   0.097  0.00  0.00     0.036 A 
HETATM   11  C   UNK N   1       9.257  -0.471  -0.088  0.00  0.00     0.113 A 
HETATM   12  C   UNK N   1       7.939  -2.477   0.133  0.00  0.00     0.186 A 
HETATM   13  C   UNK N   1       9.164  -1.850   0.079  0.00  0.00     0.092 A 
HETATM   14  C   UNK N   1       3.106  -2.316   0.107  0.00  0.00     0.187 A 
HETATM   15  C   UNK N   1       2.031  -0.177  -0.098  0.00  0.00     0.153 A 
HETATM   16  C   UNK N   1       1.938  -1.563   0.054  0.00  0.00     0.100 A 
ENDROOT
BRANCH  11  17
HETATM   17  C   UNK N   1      10.644   0.097  -0.110  0.00  0.00     0.193 C 
HETATM   18  O   UNK N   1      10.848   1.294  -0.211  0.00  0.00    -0.645 OA
BRANCH  17  19
HETATM   19  O   UNK N   1      11.702  -0.733   0.004  0.00  0.00    -0.772 OA
HETATM   20  H   UNK N   1      11.571  -1.657   0.083  0.00  0.00     0.167 HD
ENDBRANCH  17  19
ENDBRANCH  11  17
BRANCH   4  21
HETATM   21  C   UNK N   1       8.247   1.740  -0.408  0.00  0.00     0.125 C 
HETATM   22  C   UNK N   1       8.193   2.473   0.922  0.00  0.00     0.027 C 
ENDBRANCH   4  21
BRANCH   6  23
HETATM   23  C   UNK N   1       5.520   1.904  -0.495  0.00  0.00     0.043 C 
BRANCH  23  24
HETATM   24  C   UNK N   1       4.826   2.634   0.644  0.00  0.00     0.000 C 
HETATM   25  C   UNK N   1       3.875   3.661   0.064  0.00  0.00     0.005 C 
ENDBRANCH  23  24
ENDBRANCH   6  23
BRANCH  15  26
HETATM   26  C   UNK N   1       0.816   0.655  -0.102  0.00  0.00     0.201 C 
HETATM   27  O   UNK N   1       0.909   1.869  -0.189  0.00  0.00    -0.645 OA
BRANCH  26  28
HETATM   28  O   UNK N   1      -0.400   0.087   0.017  0.00  0.00    -0.771 OA
HETATM   29  H   UNK N   1      -1.165   0.622   0.099  0.00  0.00     0.167 HD
ENDBRANCH  26  28
ENDBRANCH  15  26
TORSDOF 7
