MODEL 1
REMARK VINA RESULT:      -7.3      0.000      0.000
REMARK  1 active torsions:
REMARK  status: ('A' for Active; 'I' for Inactive)
REMARK    1  A    between atoms: C_8  and  O_1 
ROOT
HETATM    1  O   UNK N   1      33.960  19.912  -3.657  0.00  0.00    -0.293 OA
HETATM    2  C   UNK N   1      27.726  23.828  -4.846  0.00  0.00     0.002 C 
HETATM    3  C   UNK N   1      27.650  24.271  -6.300  0.00  0.00     0.003 C 
HETATM    4  C   UNK N   1      29.179  23.849  -4.313  0.00  0.00    -0.005 C 
HETATM    5  C   UNK N   1      30.136  22.972  -5.213  0.00  0.00    -0.002 C 
HETATM    6  C   UNK N   1      28.330  23.184  -7.138  0.00  0.00     0.014 C 
HETATM    7  C   UNK N   1      26.126  24.445  -6.500  0.00  0.00     0.128 C 
HETATM    8  C   UNK N   1      26.752  24.767  -4.142  0.00  0.00     0.010 C 
HETATM    9  C   UNK N   1      29.812  23.040  -6.736  0.00  0.00     0.006 C 
HETATM   10  C   UNK N   1      30.291  21.560  -4.602  0.00  0.00     0.019 C 
HETATM   11  C   UNK N   1      25.674  25.091  -5.188  0.00  0.00     0.052 C 
HETATM   12  C   UNK N   1      29.113  23.388  -2.833  0.00  0.00     0.010 C 
HETATM   13  C   UNK N   1      28.357  25.628  -6.514  0.00  0.00     0.020 C 
HETATM   14  C   UNK N   1      30.391  22.772  -2.274  0.00  0.00     0.035 C 
HETATM   15  C   UNK N   1      30.985  21.793  -3.242  0.00  0.00    -0.072 C 
HETATM   16  C   UNK N   1      31.053  20.544  -5.487  0.00  0.00     0.017 C 
HETATM   17  C   UNK N   1      25.754  25.311  -7.639  0.00  0.00    -0.078 C 
HETATM   18  C   UNK N   1      32.566  20.691  -5.399  0.00  0.00     0.084 C 
HETATM   19  C   UNK N   1      32.201  21.292  -2.953  0.00  0.00     0.053 C 
HETATM   20  C   UNK N   1      32.967  20.552  -3.967  0.00  0.00     0.149 C 
HETATM   21  C   UNK N   1      25.462  25.995  -8.592  0.00  0.00     0.015 C 
ENDROOT
BRANCH   7  22
HETATM   22  O   UNK N   1      25.493  23.202  -6.627  0.00  0.00    -0.377 OA
HETATM   23  H   UNK N   1      25.319  22.261  -6.789  0.00  0.00     0.211 HD
ENDBRANCH   7  22
TORSDOF 1
ENDMDL
MODEL 2
REMARK VINA RESULT:      -7.2     11.406     12.998
REMARK  1 active torsions:
REMARK  status: ('A' for Active; 'I' for Inactive)
REMARK    1  A    between atoms: C_8  and  O_1 
ROOT
HETATM    1  O   UNK N   1      34.914  18.396   7.901  0.00  0.00    -0.293 OA
HETATM    2  C   UNK N   1      28.096  16.136   5.892  0.00  0.00     0.002 C 
HETATM    3  C   UNK N   1      27.983  16.081   4.376  0.00  0.00     0.003 C 
HETATM    4  C   UNK N   1      28.975  17.320   6.363  0.00  0.00    -0.005 C 
HETATM    5  C   UNK N   1      30.407  17.275   5.699  0.00  0.00    -0.002 C 
HETATM    6  C   UNK N   1      29.367  15.708   3.835  0.00  0.00     0.014 C 
HETATM    7  C   UNK N   1      26.860  15.037   4.178  0.00  0.00     0.128 C 
HETATM    8  C   UNK N   1      26.642  16.171   6.352  0.00  0.00     0.010 C 
HETATM    9  C   UNK N   1      30.406  16.781   4.220  0.00  0.00     0.006 C 
HETATM   10  C   UNK N   1      31.412  16.591   6.655  0.00  0.00     0.019 C 
HETATM   11  C   UNK N   1      25.863  15.384   5.286  0.00  0.00     0.052 C 
HETATM   12  C   UNK N   1      28.999  17.264   7.913  0.00  0.00     0.010 C 
HETATM   13  C   UNK N   1      27.534  17.441   3.795  0.00  0.00     0.020 C 
HETATM   14  C   UNK N   1      30.208  17.911   8.580  0.00  0.00     0.035 C 
HETATM   15  C   UNK N   1      31.480  17.519   7.887  0.00  0.00    -0.072 C 
HETATM   16  C   UNK N   1      32.809  16.315   6.048  0.00  0.00     0.017 C 
HETATM   17  C   UNK N   1      26.189  15.103   2.862  0.00  0.00    -0.078 C 
HETATM   18  C   UNK N   1      33.716  17.537   6.054  0.00  0.00     0.084 C 
HETATM   19  C   UNK N   1      32.611  18.143   8.265  0.00  0.00     0.053 C 
HETATM   20  C   UNK N   1      33.837  18.023   7.461  0.00  0.00     0.149 C 
HETATM   21  C   UNK N   1      25.670  15.147   1.772  0.00  0.00     0.015 C 
ENDROOT
BRANCH   7  22
HETATM   22  O   UNK N   1      27.338  13.739   4.399  0.00  0.00    -0.377 OA
HETATM   23  H   UNK N   1      27.921  12.978   4.547  0.00  0.00     0.211 HD
ENDBRANCH   7  22
TORSDOF 1
ENDMDL
MODEL 3
REMARK VINA RESULT:      -7.1     21.726     25.177
REMARK  1 active torsions:
REMARK  status: ('A' for Active; 'I' for Inactive)
REMARK    1  A    between atoms: C_8  and  O_1 
ROOT
HETATM    1  O   UNK N   1      35.453   9.875  21.568  0.00  0.00    -0.293 OA
HETATM    2  C   UNK N   1      35.370  12.302  14.516  0.00  0.00     0.002 C 
HETATM    3  C   UNK N   1      36.037  11.286  13.601  0.00  0.00     0.003 C 
HETATM    4  C   UNK N   1      36.066  12.377  15.897  0.00  0.00    -0.005 C 
HETATM    5  C   UNK N   1      36.128  10.959  16.590  0.00  0.00    -0.002 C 
HETATM    6  C   UNK N   1      35.763   9.900  14.191  0.00  0.00     0.014 C 
HETATM    7  C   UNK N   1      35.374  11.602  12.240  0.00  0.00     0.128 C 
HETATM    8  C   UNK N   1      35.397  13.587  13.695  0.00  0.00     0.010 C 
HETATM    9  C   UNK N   1      36.377   9.781  15.600  0.00  0.00     0.006 C 
HETATM   10  C   UNK N   1      34.945  10.798  17.573  0.00  0.00     0.019 C 
HETATM   11  C   UNK N   1      35.309  13.131  12.230  0.00  0.00     0.052 C 
HETATM   12  C   UNK N   1      35.299  13.445  16.721  0.00  0.00     0.010 C 
HETATM   13  C   UNK N   1      37.560  11.531  13.502  0.00  0.00     0.020 C 
HETATM   14  C   UNK N   1      35.386  13.300  18.236  0.00  0.00     0.035 C 
HETATM   15  C   UNK N   1      35.181  11.874  18.654  0.00  0.00    -0.072 C 
HETATM   16  C   UNK N   1      34.784   9.381  18.176  0.00  0.00     0.017 C 
HETATM   17  C   UNK N   1      36.134  11.125  11.064  0.00  0.00    -0.078 C 
HETATM   18  C   UNK N   1      35.723   9.119  19.345  0.00  0.00     0.084 C 
HETATM   19  C   UNK N   1      35.391  11.569  19.948  0.00  0.00     0.053 C 
HETATM   20  C   UNK N   1      35.483  10.167  20.382  0.00  0.00     0.149 C 
HETATM   21  C   UNK N   1      36.749  10.703  10.113  0.00  0.00     0.015 C 
ENDROOT
BRANCH   7  22
HETATM   22  O   UNK N   1      34.068  11.100  12.191  0.00  0.00    -0.377 OA
HETATM   23  H   UNK N   1      33.244  10.685  11.890  0.00  0.00     0.211 HD
ENDBRANCH   7  22
TORSDOF 1
ENDMDL
MODEL 4
REMARK VINA RESULT:      -7.0     18.044     21.415
REMARK  1 active torsions:
REMARK  status: ('A' for Active; 'I' for Inactive)
REMARK    1  A    between atoms: C_8  and  O_1 
ROOT
HETATM    1  O   UNK N   1      35.516   9.297  17.072  0.00  0.00    -0.293 OA
HETATM    2  C   UNK N   1      35.407  14.644  11.874  0.00  0.00     0.002 C 
HETATM    3  C   UNK N   1      35.220  14.034  10.493  0.00  0.00     0.003 C 
HETATM    4  C   UNK N   1      36.283  13.750  12.785  0.00  0.00    -0.005 C 
HETATM    5  C   UNK N   1      35.694  12.288  12.897  0.00  0.00    -0.002 C 
HETATM    6  C   UNK N   1      34.353  12.783  10.668  0.00  0.00     0.014 C 
HETATM    7  C   UNK N   1      34.587  15.209   9.710  0.00  0.00     0.128 C 
HETATM    8  C   UNK N   1      35.971  16.029  11.573  0.00  0.00     0.010 C 
HETATM    9  C   UNK N   1      35.062  11.757  11.575  0.00  0.00     0.006 C 
HETATM   10  C   UNK N   1      34.832  12.162  14.175  0.00  0.00     0.019 C 
HETATM   11  C   UNK N   1      35.368  16.425  10.216  0.00  0.00     0.052 C 
HETATM   12  C   UNK N   1      36.400  14.486  14.146  0.00  0.00     0.010 C 
HETATM   13  C   UNK N   1      36.575  13.657   9.854  0.00  0.00     0.020 C 
HETATM   14  C   UNK N   1      36.685  13.601  15.354  0.00  0.00     0.035 C 
HETATM   15  C   UNK N   1      35.821  12.375  15.341  0.00  0.00    -0.072 C 
HETATM   16  C   UNK N   1      34.044  10.836  14.304  0.00  0.00     0.017 C 
HETATM   17  C   UNK N   1      34.719  15.105   8.241  0.00  0.00    -0.078 C 
HETATM   18  C   UNK N   1      34.892   9.685  14.826  0.00  0.00     0.084 C 
HETATM   19  C   UNK N   1      36.077  11.424  16.259  0.00  0.00     0.053 C 
HETATM   20  C   UNK N   1      35.470  10.089  16.143  0.00  0.00     0.149 C 
HETATM   21  C   UNK N   1      34.805  14.992   7.041  0.00  0.00     0.015 C 
ENDROOT
BRANCH   7  22
HETATM   22  O   UNK N   1      33.239  15.370  10.052  0.00  0.00    -0.377 OA
HETATM   23  H   UNK N   1      32.329  15.200  10.341  0.00  0.00     0.211 HD
ENDBRANCH   7  22
TORSDOF 1
ENDMDL
MODEL 5
REMARK VINA RESULT:      -6.9      1.457      6.593
REMARK  1 active torsions:
REMARK  status: ('A' for Active; 'I' for Inactive)
REMARK    1  A    between atoms: C_8  and  O_1 
ROOT
HETATM    1  O   UNK N   1      25.148  25.282  -5.196  0.00  0.00    -0.293 OA
HETATM    2  C   UNK N   1      31.725  22.023  -3.872  0.00  0.00     0.002 C 
HETATM    3  C   UNK N   1      32.171  21.222  -5.086  0.00  0.00     0.003 C 
HETATM    4  C   UNK N   1      30.191  21.959  -3.671  0.00  0.00    -0.005 C 
HETATM    5  C   UNK N   1      29.420  22.433  -4.966  0.00  0.00    -0.002 C 
HETATM    6  C   UNK N   1      31.640  21.949  -6.326  0.00  0.00     0.014 C 
HETATM    7  C   UNK N   1      33.706  21.198  -4.904  0.00  0.00     0.128 C 
HETATM    8  C   UNK N   1      32.562  21.439  -2.739  0.00  0.00     0.010 C 
HETATM    9  C   UNK N   1      30.099  22.003  -6.302  0.00  0.00     0.006 C 
HETATM   10  C   UNK N   1      29.034  23.925  -4.835  0.00  0.00     0.019 C 
HETATM   11  C   UNK N   1      33.876  20.989  -3.398  0.00  0.00     0.052 C 
HETATM   12  C   UNK N   1      29.876  22.802  -2.408  0.00  0.00     0.010 C 
HETATM   13  C   UNK N   1      31.622  19.777  -5.042  0.00  0.00     0.020 C 
HETATM   14  C   UNK N   1      28.465  23.376  -2.331  0.00  0.00     0.035 C 
HETATM   15  C   UNK N   1      28.055  23.977  -3.643  0.00  0.00    -0.072 C 
HETATM   16  C   UNK N   1      28.440  24.562  -6.115  0.00  0.00     0.017 C 
HETATM   17  C   UNK N   1      34.392  20.113  -5.640  0.00  0.00    -0.078 C 
HETATM   18  C   UNK N   1      26.962  24.252  -6.306  0.00  0.00     0.084 C 
HETATM   19  C   UNK N   1      26.776  24.377  -3.771  0.00  0.00     0.053 C 
HETATM   20  C   UNK N   1      26.226  24.715  -5.092  0.00  0.00     0.149 C 
HETATM   21  C   UNK N   1      34.944  19.243  -6.272  0.00  0.00     0.015 C 
ENDROOT
BRANCH   7  22
HETATM   22  O   UNK N   1      34.271  22.432  -5.250  0.00  0.00    -0.377 OA
HETATM   23  H   UNK N   1      34.889  23.120  -5.544  0.00  0.00     0.211 HD
ENDBRANCH   7  22
TORSDOF 1
ENDMDL
MODEL 6
REMARK VINA RESULT:      -6.9      2.136      2.969
REMARK  1 active torsions:
REMARK  status: ('A' for Active; 'I' for Inactive)
REMARK    1  A    between atoms: C_8  and  O_1 
ROOT
HETATM    1  O   UNK N   1      31.724  18.493  -9.042  0.00  0.00    -0.293 OA
HETATM    2  C   UNK N   1      27.906  23.526  -5.078  0.00  0.00     0.002 C 
HETATM    3  C   UNK N   1      27.146  24.463  -6.006  0.00  0.00     0.003 C 
HETATM    4  C   UNK N   1      29.280  23.121  -5.666  0.00  0.00    -0.005 C 
HETATM    5  C   UNK N   1      29.126  22.480  -7.102  0.00  0.00    -0.002 C 
HETATM    6  C   UNK N   1      26.755  23.650  -7.244  0.00  0.00     0.014 C 
HETATM    7  C   UNK N   1      25.989  24.939  -5.098  0.00  0.00     0.128 C 
HETATM    8  C   UNK N   1      27.954  24.297  -3.763  0.00  0.00     0.010 C 
HETATM    9  C   UNK N   1      28.013  23.136  -7.973  0.00  0.00     0.006 C 
HETATM   10  C   UNK N   1      29.099  20.938  -6.992  0.00  0.00     0.019 C 
HETATM   11  C   UNK N   1      26.670  25.140  -3.742  0.00  0.00     0.052 C 
HETATM   12  C   UNK N   1      29.946  22.182  -4.627  0.00  0.00     0.010 C 
HETATM   13  C   UNK N   1      28.013  25.674  -6.417  0.00  0.00     0.020 C 
HETATM   14  C   UNK N   1      30.982  21.210  -5.182  0.00  0.00     0.035 C 
HETATM   15  C   UNK N   1      30.489  20.557  -6.439  0.00  0.00    -0.072 C 
HETATM   16  C   UNK N   1      28.764  20.194  -8.308  0.00  0.00     0.017 C 
HETATM   17  C   UNK N   1      25.352  26.202  -5.531  0.00  0.00    -0.078 C 
HETATM   18  C   UNK N   1      29.961  20.054  -9.237  0.00  0.00     0.084 C 
HETATM   19  C   UNK N   1      31.362  19.797  -7.128  0.00  0.00     0.053 C 
HETATM   20  C   UNK N   1      31.051  19.353  -8.495  0.00  0.00     0.149 C 
HETATM   21  C   UNK N   1      24.820  27.217  -5.913  0.00  0.00     0.015 C 
ENDROOT
BRANCH   7  22
HETATM   22  O   UNK N   1      25.014  23.942  -4.964  0.00  0.00    -0.377 OA
HETATM   23  H   UNK N   1      24.569  23.097  -4.796  0.00  0.00     0.211 HD
ENDBRANCH   7  22
TORSDOF 1
ENDMDL
MODEL 7
REMARK VINA RESULT:      -6.8      2.885      4.541
REMARK  1 active torsions:
REMARK  status: ('A' for Active; 'I' for Inactive)
REMARK    1  A    between atoms: C_8  and  O_1 
ROOT
HETATM    1  O   UNK N   1      29.386  18.947  -8.262  0.00  0.00    -0.293 OA
HETATM    2  C   UNK N   1      26.507  25.434  -5.971  0.00  0.00     0.002 C 
HETATM    3  C   UNK N   1      27.282  25.962  -4.773  0.00  0.00     0.003 C 
HETATM    4  C   UNK N   1      26.388  23.891  -5.946  0.00  0.00    -0.005 C 
HETATM    5  C   UNK N   1      27.808  23.204  -5.855  0.00  0.00    -0.002 C 
HETATM    6  C   UNK N   1      28.736  25.510  -4.943  0.00  0.00     0.014 C 
HETATM    7  C   UNK N   1      27.015  27.482  -4.866  0.00  0.00     0.128 C 
HETATM    8  C   UNK N   1      25.189  26.197  -5.900  0.00  0.00     0.010 C 
HETATM    9  C   UNK N   1      28.826  23.971  -4.958  0.00  0.00     0.006 C 
HETATM   10  C   UNK N   1      28.295  22.806  -7.267  0.00  0.00     0.019 C 
HETATM   11  C   UNK N   1      25.540  27.553  -5.267  0.00  0.00     0.052 C 
HETATM   12  C   UNK N   1      25.577  23.490  -7.206  0.00  0.00     0.010 C 
HETATM   13  C   UNK N   1      26.708  25.417  -3.445  0.00  0.00     0.020 C 
HETATM   14  C   UNK N   1      25.814  22.075  -7.723  0.00  0.00     0.035 C 
HETATM   15  C   UNK N   1      27.278  21.750  -7.752  0.00  0.00    -0.072 C 
HETATM   16  C   UNK N   1      29.754  22.294  -7.337  0.00  0.00     0.017 C 
HETATM   17  C   UNK N   1      27.226  28.218  -3.601  0.00  0.00    -0.078 C 
HETATM   18  C   UNK N   1      29.896  20.833  -6.934  0.00  0.00     0.084 C 
HETATM   19  C   UNK N   1      27.627  20.480  -8.033  0.00  0.00     0.053 C 
HETATM   20  C   UNK N   1      29.005  20.017  -7.812  0.00  0.00     0.149 C 
HETATM   21  C   UNK N   1      27.433  28.814  -2.570  0.00  0.00     0.015 C 
ENDROOT
BRANCH   7  22
HETATM   22  O   UNK N   1      27.783  28.064  -5.883  0.00  0.00    -0.377 OA
HETATM   23  H   UNK N   1      28.394  28.193  -6.625  0.00  0.00     0.211 HD
ENDBRANCH   7  22
TORSDOF 1
ENDMDL
MODEL 8
REMARK VINA RESULT:      -6.8     13.328     17.627
REMARK  1 active torsions:
REMARK  status: ('A' for Active; 'I' for Inactive)
REMARK    1  A    between atoms: C_8  and  O_1 
ROOT
HETATM    1  O   UNK N   1      32.648  16.474   2.660  0.00  0.00    -0.293 OA
HETATM    2  C   UNK N   1      35.366  15.687   9.560  0.00  0.00     0.002 C 
HETATM    3  C   UNK N   1      35.535  14.212   9.896  0.00  0.00     0.003 C 
HETATM    4  C   UNK N   1      34.110  15.940   8.691  0.00  0.00    -0.005 C 
HETATM    5  C   UNK N   1      34.136  15.067   7.374  0.00  0.00    -0.002 C 
HETATM    6  C   UNK N   1      35.880  13.490   8.590  0.00  0.00     0.014 C 
HETATM    7  C   UNK N   1      36.642  14.257  10.975  0.00  0.00     0.128 C 
HETATM    8  C   UNK N   1      35.366  16.361  10.929  0.00  0.00     0.010 C 
HETATM    9  C   UNK N   1      34.735  13.641   7.569  0.00  0.00     0.006 C 
HETATM   10  C   UNK N   1      34.701  15.899   6.199  0.00  0.00     0.019 C 
HETATM   11  C   UNK N   1      36.263  15.480  11.813  0.00  0.00     0.052 C 
HETATM   12  C   UNK N   1      34.054  17.468   8.431  0.00  0.00     0.010 C 
HETATM   13  C   UNK N   1      34.243  13.621  10.505  0.00  0.00     0.020 C 
HETATM   14  C   UNK N   1      33.304  17.898   7.174  0.00  0.00     0.035 C 
HETATM   15  C   UNK N   1      33.685  17.044   6.001  0.00  0.00    -0.072 C 
HETATM   16  C   UNK N   1      34.955  15.104   4.896  0.00  0.00     0.017 C 
HETATM   17  C   UNK N   1      36.702  13.058  11.838  0.00  0.00    -0.078 C 
HETATM   18  C   UNK N   1      33.694  14.892   4.070  0.00  0.00     0.084 C 
HETATM   19  C   UNK N   1      32.983  17.204   4.863  0.00  0.00     0.053 C 
HETATM   20  C   UNK N   1      33.102  16.230   3.767  0.00  0.00     0.149 C 
HETATM   21  C   UNK N   1      36.762  12.059  12.516  0.00  0.00     0.015 C 
ENDROOT
BRANCH   7  22
HETATM   22  O   UNK N   1      37.897  14.484  10.395  0.00  0.00    -0.377 OA
HETATM   23  H   UNK N   1      38.854  14.546  10.250  0.00  0.00     0.211 HD
ENDBRANCH   7  22
TORSDOF 1
ENDMDL
MODEL 9
REMARK VINA RESULT:      -6.7      1.994      2.548
REMARK  1 active torsions:
REMARK  status: ('A' for Active; 'I' for Inactive)
REMARK    1  A    between atoms: C_8  and  O_1 
ROOT
HETATM    1  O   UNK N   1      33.103  19.511  -5.891  0.00  0.00    -0.293 OA
HETATM    2  C   UNK N   1      29.024  25.586  -4.449  0.00  0.00     0.002 C 
HETATM    3  C   UNK N   1      27.693  25.514  -5.183  0.00  0.00     0.003 C 
HETATM    4  C   UNK N   1      30.176  24.975  -5.284  0.00  0.00    -0.005 C 
HETATM    5  C   UNK N   1      29.854  23.488  -5.710  0.00  0.00    -0.002 C 
HETATM    6  C   UNK N   1      27.302  24.035  -5.263  0.00  0.00     0.014 C 
HETATM    7  C   UNK N   1      26.797  26.419  -4.306  0.00  0.00     0.128 C 
HETATM    8  C   UNK N   1      29.164  27.068  -4.119  0.00  0.00     0.010 C 
HETATM    9  C   UNK N   1      28.355  23.240  -6.061  0.00  0.00     0.006 C 
HETATM   10  C   UNK N   1      30.504  22.500  -4.715  0.00  0.00     0.019 C 
HETATM   11  C   UNK N   1      27.726  27.580  -3.941  0.00  0.00     0.052 C 
HETATM   12  C   UNK N   1      31.464  25.118  -4.431  0.00  0.00     0.010 C 
HETATM   13  C   UNK N   1      27.800  26.114  -6.604  0.00  0.00     0.020 C 
HETATM   14  C   UNK N   1      32.573  24.117  -4.734  0.00  0.00     0.035 C 
HETATM   15  C   UNK N   1      32.024  22.728  -4.867  0.00  0.00    -0.072 C 
HETATM   16  C   UNK N   1      30.108  21.017  -4.912  0.00  0.00     0.017 C 
HETATM   17  C   UNK N   1      25.594  26.937  -4.992  0.00  0.00    -0.078 C 
HETATM   18  C   UNK N   1      30.891  20.331  -6.023  0.00  0.00     0.084 C 
HETATM   19  C   UNK N   1      32.863  21.766  -5.294  0.00  0.00     0.053 C 
HETATM   20  C   UNK N   1      32.347  20.454  -5.713  0.00  0.00     0.149 C 
HETATM   21  C   UNK N   1      24.598  27.328  -5.553  0.00  0.00     0.015 C 
ENDROOT
BRANCH   7  22
HETATM   22  O   UNK N   1      26.421  25.761  -3.128  0.00  0.00    -0.377 OA
HETATM   23  H   UNK N   1      26.121  25.575  -2.225  0.00  0.00     0.211 HD
ENDBRANCH   7  22
TORSDOF 1
ENDMDL
