REMARK  1 active torsions:
REMARK  status: ('A' for Active; 'I' for Inactive)
REMARK    1  A    between atoms: C_8  and  O_1 
ROOT
HETATM    1  O   UNK N   1      -0.505  -2.466  -0.349  0.00  0.00    -0.293 OA
HETATM    2  C   UNK N   1       6.657  -0.438   0.115  0.00  0.00     0.002 C 
HETATM    3  C   UNK N   1       6.839   0.980  -0.406  0.00  0.00     0.003 C 
HETATM    4  C   UNK N   1       5.587  -1.215  -0.690  0.00  0.00    -0.005 C 
HETATM    5  C   UNK N   1       4.207  -0.446  -0.707  0.00  0.00    -0.002 C 
HETATM    6  C   UNK N   1       5.553   1.747  -0.082  0.00  0.00     0.014 C 
HETATM    7  C   UNK N   1       8.118   1.430   0.338  0.00  0.00     0.128 C 
HETATM    8  C   UNK N   1       8.068  -1.015   0.063  0.00  0.00     0.010 C 
HETATM    9  C   UNK N   1       4.346   1.104  -0.795  0.00  0.00     0.006 C 
HETATM   10  C   UNK N   1       3.282  -0.995   0.404  0.00  0.00     0.019 C 
HETATM   11  C   UNK N   1       9.003   0.182   0.296  0.00  0.00     0.052 C 
HETATM   12  C   UNK N   1       5.508  -2.633  -0.066  0.00  0.00     0.010 C 
HETATM   13  C   UNK N   1       7.096   0.992  -1.930  0.00  0.00     0.020 C 
HETATM   14  C   UNK N   1       4.187  -3.369  -0.261  0.00  0.00     0.035 C 
HETATM   15  C   UNK N   1       3.021  -2.465   0.010  0.00  0.00    -0.072 C 
HETATM   16  C   UNK N   1       1.971  -0.200   0.616  0.00  0.00     0.017 C 
HETATM   17  C   UNK N   1       8.824   2.566  -0.293  0.00  0.00    -0.078 C 
HETATM   18  C   UNK N   1       0.886  -0.556  -0.390  0.00  0.00     0.084 C 
HETATM   19  C   UNK N   1       1.792  -2.932  -0.279  0.00  0.00     0.053 C 
HETATM   20  C   UNK N   1       0.634  -2.026  -0.306  0.00  0.00     0.149 C 
HETATM   21  C   UNK N   1       9.374   3.515  -0.800  0.00  0.00     0.015 C 
ENDROOT
BRANCH   7  22
HETATM   22  O   UNK N   1       7.838   1.734   1.676  0.00  0.00    -0.377 OA
HETATM   23  H   UNK N   1       7.924   2.007   2.603  0.00  0.00     0.211 HD
ENDBRANCH   7  22
TORSDOF 1
