MODEL 1
REMARK VINA RESULT:      -6.5      0.000      0.000
REMARK  16 active torsions:
REMARK  status: ('A' for Active; 'I' for Inactive)
REMARK    1  A    between atoms: P_1  and  O_5 
REMARK    2  A    between atoms: P_1  and  O_6 
REMARK    3  A    between atoms: P_1  and  C_30 
REMARK    4  A    between atoms: O_2  and  C_29 
REMARK    5  A    between atoms: O_2  and  C_30 
REMARK    6  A    between atoms: O_3  and  C_26 
REMARK    7  A    between atoms: O_3  and  C_32 
REMARK    8  A    between atoms: O_4  and  C_27 
REMARK    9  A    between atoms: O_4  and  C_33 
REMARK   10  A    between atoms: O_5  and  C_32 
REMARK   11  A    between atoms: O_6  and  C_33 
REMARK   12  A    between atoms: N_10  and  C_28 
REMARK   13  A    between atoms: N_17  and  C_36 
REMARK   14  A    between atoms: C_18  and  C_26 
REMARK   15  A    between atoms: C_19  and  C_27 
REMARK   16  A    between atoms: C_28  and  C_29 
ROOT
HETATM    1  P   UNK N   1      26.534  25.510  -4.123  0.00  0.00     0.355 P 
HETATM    2  O   UNK N   1      26.366  24.358  -3.101  0.00  0.00    -0.256 OA
ENDROOT
BRANCH   1   3
HETATM    3  O   UNK N   1      25.263  24.861  -5.140  0.00  0.00    -0.286 OA
BRANCH   3   4
HETATM    4  C   UNK N   1      25.836  24.511  -6.368  0.00  0.00     0.358 C 
BRANCH   4   5
HETATM    5  O   UNK N   1      25.532  23.204  -6.668  0.00  0.00    -0.294 OA
BRANCH   5   6
HETATM    6  C   UNK N   1      25.347  22.628  -7.887  0.00  0.00     0.268 C 
HETATM    7  O   UNK N   1      24.204  22.588  -8.321  0.00  0.00    -0.264 OA
BRANCH   6   8
HETATM    8  C   UNK N   1      26.455  22.036  -8.752  0.00  0.00     0.037 C 
HETATM    9  C   UNK N   1      27.564  21.320  -8.005  0.00  0.00     0.025 C 
HETATM   10  C   UNK N   1      25.845  21.035  -9.718  0.00  0.00     0.025 C 
HETATM   11  C   UNK N   1      27.090  23.152  -9.561  0.00  0.00     0.025 C 
ENDBRANCH   6   8
ENDBRANCH   5   6
ENDBRANCH   4   5
ENDBRANCH   3   4
ENDBRANCH   1   3
BRANCH   1  12
HETATM   12  O   UNK N   1      28.135  24.937  -4.555  0.00  0.00    -0.286 OA
BRANCH  12  13
HETATM   13  C   UNK N   1      28.469  23.877  -3.702  0.00  0.00     0.358 C 
BRANCH  13  14
HETATM   14  O   UNK N   1      29.758  24.028  -3.236  0.00  0.00    -0.294 OA
BRANCH  14  15
HETATM   15  C   UNK N   1      30.546  23.063  -2.697  0.00  0.00     0.268 C 
HETATM   16  O   UNK N   1      30.583  22.973  -1.479  0.00  0.00    -0.264 OA
BRANCH  15  17
HETATM   17  C   UNK N   1      31.379  22.110  -3.539  0.00  0.00     0.037 C 
HETATM   18  C   UNK N   1      32.538  21.545  -2.741  0.00  0.00     0.025 C 
HETATM   19  C   UNK N   1      31.963  22.815  -4.756  0.00  0.00     0.025 C 
HETATM   20  C   UNK N   1      30.507  20.973  -4.035  0.00  0.00     0.025 C 
ENDBRANCH  15  17
ENDBRANCH  14  15
ENDBRANCH  13  14
ENDBRANCH  12  13
ENDBRANCH   1  12
BRANCH   1  21
HETATM   21  C   UNK N   1      26.213  26.760  -2.755  0.00  0.00     0.299 C 
BRANCH  21  22
HETATM   22  O   UNK N   1      25.516  27.918  -3.154  0.00  0.00    -0.378 OA
BRANCH  22  23
HETATM   23  C   UNK N   1      25.873  28.279  -4.471  0.00  0.00     0.188 C 
BRANCH  23  24
HETATM   24  C   UNK N   1      26.654  29.585  -4.598  0.00  0.00     0.157 C 
BRANCH  24  25
HETATM   25  N   UNK N   1      28.009  29.401  -4.126  0.00  0.00    -0.325 N 
HETATM   26  C   UNK N   1      28.438  29.593  -2.884  0.00  0.00     0.140 A 
HETATM   27  N   UNK N   1      27.710  29.989  -1.812  0.00  0.00    -0.336 N 
HETATM   28  C   UNK N   1      29.751  29.312  -2.815  0.00  0.00     0.122 A 
HETATM   29  C   UNK N   1      28.355  30.107  -0.613  0.00  0.00     0.183 A 
ATOM     30  HN  UNK N   1      26.715  30.194  -1.898  1.00  0.00     0.168 HD
HETATM   31  N   UNK N   1      29.697  29.826  -0.514  0.00  0.00    -0.337 N 
HETATM   32  C   UNK N   1      30.417  29.427  -1.607  0.00  0.00     0.131 A 
ATOM     33  HN  UNK N   1      30.164  29.918   0.388  1.00  0.00     0.168 HD
HETATM   34  N   UNK N   1      30.202  28.936  -4.028  0.00  0.00    -0.346 N 
HETATM   35  C   UNK N   1      29.099  28.998  -4.828  0.00  0.00     0.185 A 
ATOM     36  HN  UNK N   1      31.151  28.668  -4.289  1.00  0.00     0.167 HD
BRANCH  32  37
HETATM   37  N   UNK N   1      31.790  29.136  -1.496  0.00  0.00    -0.383 N 
HETATM   38  H   UNK N   1      32.099  28.373  -0.957  0.00  0.00     0.157 HD
HETATM   39  H   UNK N   1      32.448  29.702  -1.963  0.00  0.00     0.157 HD
ENDBRANCH  32  37
ENDBRANCH  24  25
ENDBRANCH  23  24
ENDBRANCH  22  23
ENDBRANCH  21  22
ENDBRANCH   1  21
TORSDOF 16
ENDMDL
MODEL 2
REMARK VINA RESULT:      -6.4     15.065     18.903
REMARK  16 active torsions:
REMARK  status: ('A' for Active; 'I' for Inactive)
REMARK    1  A    between atoms: P_1  and  O_5 
REMARK    2  A    between atoms: P_1  and  O_6 
REMARK    3  A    between atoms: P_1  and  C_30 
REMARK    4  A    between atoms: O_2  and  C_29 
REMARK    5  A    between atoms: O_2  and  C_30 
REMARK    6  A    between atoms: O_3  and  C_26 
REMARK    7  A    between atoms: O_3  and  C_32 
REMARK    8  A    between atoms: O_4  and  C_27 
REMARK    9  A    between atoms: O_4  and  C_33 
REMARK   10  A    between atoms: O_5  and  C_32 
REMARK   11  A    between atoms: O_6  and  C_33 
REMARK   12  A    between atoms: N_10  and  C_28 
REMARK   13  A    between atoms: N_17  and  C_36 
REMARK   14  A    between atoms: C_18  and  C_26 
REMARK   15  A    between atoms: C_19  and  C_27 
REMARK   16  A    between atoms: C_28  and  C_29 
ROOT
HETATM    1  P   UNK N   1      33.884  17.810   7.901  0.00  0.00     0.355 P 
HETATM    2  O   UNK N   1      34.788  18.998   8.315  0.00  0.00    -0.256 OA
ENDROOT
BRANCH   1   3
HETATM    3  O   UNK N   1      34.389  17.942   6.230  0.00  0.00    -0.286 OA
BRANCH   3   4
HETATM    4  C   UNK N   1      33.586  17.080   5.472  0.00  0.00     0.358 C 
BRANCH   4   5
HETATM    5  O   UNK N   1      34.113  15.811   5.497  0.00  0.00    -0.294 OA
BRANCH   5   6
HETATM    6  C   UNK N   1      33.477  14.625   5.699  0.00  0.00     0.268 C 
HETATM    7  O   UNK N   1      32.504  14.383   4.999  0.00  0.00    -0.264 OA
BRANCH   6   8
HETATM    8  C   UNK N   1      33.889  13.575   6.726  0.00  0.00     0.037 C 
HETATM    9  C   UNK N   1      35.326  13.649   7.205  0.00  0.00     0.025 C 
HETATM   10  C   UNK N   1      33.000  13.708   7.951  0.00  0.00     0.025 C 
HETATM   11  C   UNK N   1      33.673  12.198   6.128  0.00  0.00     0.025 C 
ENDBRANCH   6   8
ENDBRANCH   5   6
ENDBRANCH   4   5
ENDBRANCH   3   4
ENDBRANCH   1   3
BRANCH   1  12
HETATM   12  O   UNK N   1      32.440  18.738   8.270  0.00  0.00    -0.286 OA
BRANCH  12  13
HETATM   13  C   UNK N   1      31.411  17.844   8.589  0.00  0.00     0.358 C 
BRANCH  13  14
HETATM   14  O   UNK N   1      30.738  17.465   7.446  0.00  0.00    -0.294 OA
BRANCH  14  15
HETATM   15  C   UNK N   1      29.442  17.725   7.142  0.00  0.00     0.268 C 
HETATM   16  O   UNK N   1      28.736  18.206   8.017  0.00  0.00    -0.264 OA
BRANCH  15  17
HETATM   17  C   UNK N   1      28.840  17.439   5.775  0.00  0.00     0.037 C 
HETATM   18  C   UNK N   1      27.657  16.495   5.885  0.00  0.00     0.025 C 
HETATM   19  C   UNK N   1      29.858  16.787   4.849  0.00  0.00     0.025 C 
HETATM   20  C   UNK N   1      28.391  18.736   5.133  0.00  0.00     0.025 C 
ENDBRANCH  15  17
ENDBRANCH  14  15
ENDBRANCH  13  14
ENDBRANCH  12  13
ENDBRANCH   1  12
BRANCH   1  21
HETATM   21  C   UNK N   1      34.762  16.716   9.154  0.00  0.00     0.299 C 
BRANCH  21  22
HETATM   22  O   UNK N   1      35.467  17.406  10.161  0.00  0.00    -0.378 OA
BRANCH  22  23
HETATM   23  C   UNK N   1      35.625  16.590  11.301  0.00  0.00     0.188 C 
BRANCH  23  24
HETATM   24  C   UNK N   1      36.377  15.282  11.065  0.00  0.00     0.157 C 
BRANCH  24  25
HETATM   25  N   UNK N   1      35.773  14.216  11.833  0.00  0.00    -0.325 N 
HETATM   26  C   UNK N   1      35.983  13.961  13.120  0.00  0.00     0.140 A 
HETATM   27  N   UNK N   1      36.791  14.638  13.972  0.00  0.00    -0.336 N 
HETATM   28  C   UNK N   1      35.244  12.905  13.496  0.00  0.00     0.122 A 
HETATM   29  C   UNK N   1      36.846  14.212  15.270  0.00  0.00     0.183 A 
ATOM     30  HN  UNK N   1      37.340  15.437  13.656  1.00  0.00     0.168 HD
HETATM   31  N   UNK N   1      36.099  13.134  15.681  0.00  0.00    -0.337 N 
HETATM   32  C   UNK N   1      35.289  12.463  14.807  0.00  0.00     0.131 A 
ATOM     33  HN  UNK N   1      36.150  12.829  16.653  1.00  0.00     0.168 HD
HETATM   34  N   UNK N   1      34.536  12.445  12.444  0.00  0.00    -0.346 N 
HETATM   35  C   UNK N   1      34.881  13.279  11.420  0.00  0.00     0.185 A 
ATOM     36  HN  UNK N   1      33.892  11.655  12.419  1.00  0.00     0.167 HD
BRANCH  32  37
HETATM   37  N   UNK N   1      34.523  11.362  15.237  0.00  0.00    -0.383 N 
HETATM   38  H   UNK N   1      33.691  11.498  15.744  0.00  0.00     0.157 HD
HETATM   39  H   UNK N   1      34.823  10.447  15.027  0.00  0.00     0.157 HD
ENDBRANCH  32  37
ENDBRANCH  24  25
ENDBRANCH  23  24
ENDBRANCH  22  23
ENDBRANCH  21  22
ENDBRANCH   1  21
TORSDOF 16
ENDMDL
MODEL 3
REMARK VINA RESULT:      -6.4     12.665     16.564
REMARK  16 active torsions:
REMARK  status: ('A' for Active; 'I' for Inactive)
REMARK    1  A    between atoms: P_1  and  O_5 
REMARK    2  A    between atoms: P_1  and  O_6 
REMARK    3  A    between atoms: P_1  and  C_30 
REMARK    4  A    between atoms: O_2  and  C_29 
REMARK    5  A    between atoms: O_2  and  C_30 
REMARK    6  A    between atoms: O_3  and  C_26 
REMARK    7  A    between atoms: O_3  and  C_32 
REMARK    8  A    between atoms: O_4  and  C_27 
REMARK    9  A    between atoms: O_4  and  C_33 
REMARK   10  A    between atoms: O_5  and  C_32 
REMARK   11  A    between atoms: O_6  and  C_33 
REMARK   12  A    between atoms: N_10  and  C_28 
REMARK   13  A    between atoms: N_17  and  C_36 
REMARK   14  A    between atoms: C_18  and  C_26 
REMARK   15  A    between atoms: C_19  and  C_27 
REMARK   16  A    between atoms: C_28  and  C_29 
ROOT
HETATM    1  P   UNK N   1      34.176  17.621   8.318  0.00  0.00     0.355 P 
HETATM    2  O   UNK N   1      34.696  19.072   8.162  0.00  0.00    -0.256 OA
ENDROOT
BRANCH   1   3
HETATM    3  O   UNK N   1      35.202  17.350   9.712  0.00  0.00    -0.286 OA
BRANCH   3   4
HETATM    4  C   UNK N   1      34.775  16.170  10.334  0.00  0.00     0.358 C 
BRANCH   4   5
HETATM    5  O   UNK N   1      35.485  15.101   9.841  0.00  0.00    -0.294 OA
BRANCH   5   6
HETATM    6  C   UNK N   1      36.613  14.523  10.337  0.00  0.00     0.268 C 
HETATM    7  O   UNK N   1      37.687  14.960   9.947  0.00  0.00    -0.264 OA
BRANCH   6   8
HETATM    8  C   UNK N   1      36.638  13.379  11.346  0.00  0.00     0.037 C 
HETATM    9  C   UNK N   1      36.491  13.779  12.802  0.00  0.00     0.025 C 
HETATM   10  C   UNK N   1      35.508  12.416  11.029  0.00  0.00     0.025 C 
HETATM   11  C   UNK N   1      37.952  12.634  11.204  0.00  0.00     0.025 C 
ENDBRANCH   6   8
ENDBRANCH   5   6
ENDBRANCH   4   5
ENDBRANCH   3   4
ENDBRANCH   1   3
BRANCH   1  12
HETATM   12  O   UNK N   1      34.923  17.155   6.800  0.00  0.00    -0.286 OA
BRANCH  12  13
HETATM   13  C   UNK N   1      34.584  15.822   6.533  0.00  0.00     0.358 C 
BRANCH  13  14
HETATM   14  O   UNK N   1      33.230  15.713   6.296  0.00  0.00    -0.294 OA
BRANCH  14  15
HETATM   15  C   UNK N   1      32.637  15.235   5.173  0.00  0.00     0.268 C 
HETATM   16  O   UNK N   1      32.207  14.091   5.199  0.00  0.00    -0.264 OA
BRANCH  15  17
HETATM   17  C   UNK N   1      32.495  16.054   3.901  0.00  0.00     0.037 C 
HETATM   18  C   UNK N   1      32.538  17.540   4.200  0.00  0.00     0.025 C 
HETATM   19  C   UNK N   1      31.172  15.767   3.204  0.00  0.00     0.025 C 
HETATM   20  C   UNK N   1      33.613  15.701   2.940  0.00  0.00     0.025 C 
ENDBRANCH  15  17
ENDBRANCH  14  15
ENDBRANCH  13  14
ENDBRANCH  12  13
ENDBRANCH   1  12
BRANCH   1  21
HETATM   21  C   UNK N   1      32.417  18.274   8.453  0.00  0.00     0.299 C 
BRANCH  21  22
HETATM   22  O   UNK N   1      31.455  17.322   8.849  0.00  0.00    -0.378 OA
BRANCH  22  23
HETATM   23  C   UNK N   1      30.550  17.068   7.796  0.00  0.00     0.188 C 
BRANCH  23  24
HETATM   24  C   UNK N   1      29.190  17.749   7.929  0.00  0.00     0.157 C 
BRANCH  24  25
HETATM   25  N   UNK N   1      28.741  18.218   6.636  0.00  0.00    -0.325 N 
HETATM   26  C   UNK N   1      27.883  19.207   6.417  0.00  0.00     0.140 A 
HETATM   27  N   UNK N   1      27.260  19.978   7.341  0.00  0.00    -0.336 N 
HETATM   28  C   UNK N   1      27.713  19.369   5.094  0.00  0.00     0.122 A 
HETATM   29  C   UNK N   1      26.422  20.960   6.891  0.00  0.00     0.183 A 
ATOM     30  HN  UNK N   1      27.410  19.830   8.339  1.00  0.00     0.168 HD
HETATM   31  N   UNK N   1      26.231  21.147   5.543  0.00  0.00    -0.337 N 
HETATM   32  C   UNK N   1      26.868  20.360   4.624  0.00  0.00     0.131 A 
ATOM     33  HN  UNK N   1      25.603  21.884   5.222  1.00  0.00     0.168 HD
HETATM   34  N   UNK N   1      28.463  18.471   4.424  0.00  0.00    -0.346 N 
HETATM   35  C   UNK N   1      29.096  17.766   5.406  0.00  0.00     0.185 A 
ATOM     36  HN  UNK N   1      28.539  18.346   3.414  1.00  0.00     0.167 HD
BRANCH  32  37
HETATM   37  N   UNK N   1      26.671  20.561   3.244  0.00  0.00    -0.383 N 
HETATM   38  H   UNK N   1      26.247  19.865   2.691  0.00  0.00     0.157 HD
HETATM   39  H   UNK N   1      26.959  21.406   2.828  0.00  0.00     0.157 HD
ENDBRANCH  32  37
ENDBRANCH  24  25
ENDBRANCH  23  24
ENDBRANCH  22  23
ENDBRANCH  21  22
ENDBRANCH   1  21
TORSDOF 16
ENDMDL
MODEL 4
REMARK VINA RESULT:      -6.4     14.734     16.823
REMARK  16 active torsions:
REMARK  status: ('A' for Active; 'I' for Inactive)
REMARK    1  A    between atoms: P_1  and  O_5 
REMARK    2  A    between atoms: P_1  and  O_6 
REMARK    3  A    between atoms: P_1  and  C_30 
REMARK    4  A    between atoms: O_2  and  C_29 
REMARK    5  A    between atoms: O_2  and  C_30 
REMARK    6  A    between atoms: O_3  and  C_26 
REMARK    7  A    between atoms: O_3  and  C_32 
REMARK    8  A    between atoms: O_4  and  C_27 
REMARK    9  A    between atoms: O_4  and  C_33 
REMARK   10  A    between atoms: O_5  and  C_32 
REMARK   11  A    between atoms: O_6  and  C_33 
REMARK   12  A    between atoms: N_10  and  C_28 
REMARK   13  A    between atoms: N_17  and  C_36 
REMARK   14  A    between atoms: C_18  and  C_26 
REMARK   15  A    between atoms: C_19  and  C_27 
REMARK   16  A    between atoms: C_28  and  C_29 
ROOT
HETATM    1  P   UNK N   1      20.539  14.587   6.516  0.00  0.00     0.355 P 
HETATM    2  O   UNK N   1      21.282  13.405   5.845  0.00  0.00    -0.256 OA
ENDROOT
BRANCH   1   3
HETATM    3  O   UNK N   1      20.366  13.695   8.013  0.00  0.00    -0.286 OA
BRANCH   3   4
HETATM    4  C   UNK N   1      20.507  14.603   9.070  0.00  0.00     0.358 C 
BRANCH   4   5
HETATM    5  O   UNK N   1      21.611  14.276   9.820  0.00  0.00    -0.294 OA
BRANCH   5   6
HETATM    6  C   UNK N   1      21.983  13.060  10.306  0.00  0.00     0.268 C 
HETATM    7  O   UNK N   1      21.157  12.440  10.960  0.00  0.00    -0.264 OA
BRANCH   6   8
HETATM    8  C   UNK N   1      23.348  12.413  10.092  0.00  0.00     0.037 C 
HETATM    9  C   UNK N   1      24.068  11.960  11.348  0.00  0.00     0.025 C 
HETATM   10  C   UNK N   1      23.181  11.192   9.204  0.00  0.00     0.025 C 
HETATM   11  C   UNK N   1      24.249  13.402   9.376  0.00  0.00     0.025 C 
ENDBRANCH   6   8
ENDBRANCH   5   6
ENDBRANCH   4   5
ENDBRANCH   3   4
ENDBRANCH   1   3
BRANCH   1  12
HETATM   12  O   UNK N   1      19.178  14.392   5.425  0.00  0.00    -0.286 OA
BRANCH  12  13
HETATM   13  C   UNK N   1      19.566  13.537   4.385  0.00  0.00     0.358 C 
BRANCH  13  14
HETATM   14  O   UNK N   1      18.898  13.864   3.224  0.00  0.00    -0.294 OA
BRANCH  14  15
HETATM   15  C   UNK N   1      18.508  13.012   2.243  0.00  0.00     0.268 C 
HETATM   16  O   UNK N   1      17.704  12.139   2.533  0.00  0.00    -0.264 OA
BRANCH  15  17
HETATM   17  C   UNK N   1      19.031  13.098   0.818  0.00  0.00     0.037 C 
HETATM   18  C   UNK N   1      18.799  11.798   0.071  0.00  0.00     0.025 C 
HETATM   19  C   UNK N   1      20.528  13.376   0.795  0.00  0.00     0.025 C 
HETATM   20  C   UNK N   1      18.336  14.229   0.087  0.00  0.00     0.025 C 
ENDBRANCH  15  17
ENDBRANCH  14  15
ENDBRANCH  13  14
ENDBRANCH  12  13
ENDBRANCH   1  12
BRANCH   1  21
HETATM   21  C   UNK N   1      22.008  15.706   6.154  0.00  0.00     0.299 C 
BRANCH  21  22
HETATM   22  O   UNK N   1      22.427  15.725   4.808  0.00  0.00    -0.378 OA
BRANCH  22  23
HETATM   23  C   UNK N   1      23.501  16.625   4.639  0.00  0.00     0.188 C 
BRANCH  23  24
HETATM   24  C   UNK N   1      23.256  18.036   5.170  0.00  0.00     0.157 C 
BRANCH  24  25
HETATM   25  N   UNK N   1      22.849  18.909   4.091  0.00  0.00    -0.325 N 
HETATM   26  C   UNK N   1      21.667  18.905   3.484  0.00  0.00     0.140 A 
HETATM   27  N   UNK N   1      20.609  18.102   3.747  0.00  0.00    -0.336 N 
HETATM   28  C   UNK N   1      21.645  19.861   2.540  0.00  0.00     0.122 A 
HETATM   29  C   UNK N   1      19.474  18.282   3.006  0.00  0.00     0.183 A 
ATOM     30  HN  UNK N   1      20.657  17.385   4.471  1.00  0.00     0.168 HD
HETATM   31  N   UNK N   1      19.424  19.252   2.034  0.00  0.00    -0.337 N 
HETATM   32  C   UNK N   1      20.502  20.055   1.783  0.00  0.00     0.131 A 
ATOM     33  HN  UNK N   1      18.570  19.375   1.491  1.00  0.00     0.168 HD
HETATM   34  N   UNK N   1      22.830  20.504   2.512  0.00  0.00    -0.346 N 
HETATM   35  C   UNK N   1      23.563  19.894   3.489  0.00  0.00     0.185 A 
ATOM     36  HN  UNK N   1      23.113  21.270   1.902  1.00  0.00     0.167 HD
BRANCH  32  37
HETATM   37  N   UNK N   1      20.442  21.051   0.788  0.00  0.00    -0.383 N 
HETATM   38  H   UNK N   1      21.200  21.661   0.644  0.00  0.00     0.157 HD
HETATM   39  H   UNK N   1      19.633  21.136   0.232  0.00  0.00     0.157 HD
ENDBRANCH  32  37
ENDBRANCH  24  25
ENDBRANCH  23  24
ENDBRANCH  22  23
ENDBRANCH  21  22
ENDBRANCH   1  21
TORSDOF 16
ENDMDL
MODEL 5
REMARK VINA RESULT:      -6.4     15.110     18.555
REMARK  16 active torsions:
REMARK  status: ('A' for Active; 'I' for Inactive)
REMARK    1  A    between atoms: P_1  and  O_5 
REMARK    2  A    between atoms: P_1  and  O_6 
REMARK    3  A    between atoms: P_1  and  C_30 
REMARK    4  A    between atoms: O_2  and  C_29 
REMARK    5  A    between atoms: O_2  and  C_30 
REMARK    6  A    between atoms: O_3  and  C_26 
REMARK    7  A    between atoms: O_3  and  C_32 
REMARK    8  A    between atoms: O_4  and  C_27 
REMARK    9  A    between atoms: O_4  and  C_33 
REMARK   10  A    between atoms: O_5  and  C_32 
REMARK   11  A    between atoms: O_6  and  C_33 
REMARK   12  A    between atoms: N_10  and  C_28 
REMARK   13  A    between atoms: N_17  and  C_36 
REMARK   14  A    between atoms: C_18  and  C_26 
REMARK   15  A    between atoms: C_19  and  C_27 
REMARK   16  A    between atoms: C_28  and  C_29 
ROOT
HETATM    1  P   UNK N   1      33.814  17.647   7.849  0.00  0.00     0.355 P 
HETATM    2  O   UNK N   1      34.690  18.855   8.265  0.00  0.00    -0.256 OA
ENDROOT
BRANCH   1   3
HETATM    3  O   UNK N   1      34.375  17.746   6.193  0.00  0.00    -0.286 OA
BRANCH   3   4
HETATM    4  C   UNK N   1      33.282  17.486   5.356  0.00  0.00     0.358 C 
BRANCH   4   5
HETATM    5  O   UNK N   1      33.015  16.138   5.346  0.00  0.00    -0.294 OA
BRANCH   5   6
HETATM    6  C   UNK N   1      33.736  15.128   4.788  0.00  0.00     0.268 C 
HETATM    7  O   UNK N   1      34.818  14.864   5.292  0.00  0.00    -0.264 OA
BRANCH   6   8
HETATM    8  C   UNK N   1      33.294  14.298   3.586  0.00  0.00     0.037 C 
HETATM    9  C   UNK N   1      31.872  14.528   3.113  0.00  0.00     0.025 C 
HETATM   10  C   UNK N   1      34.212  14.599   2.414  0.00  0.00     0.025 C 
HETATM   11  C   UNK N   1      33.432  12.827   3.933  0.00  0.00     0.025 C 
ENDBRANCH   6   8
ENDBRANCH   5   6
ENDBRANCH   4   5
ENDBRANCH   3   4
ENDBRANCH   1   3
BRANCH   1  12
HETATM   12  O   UNK N   1      32.349  18.565   8.147  0.00  0.00    -0.286 OA
BRANCH  12  13
HETATM   13  C   UNK N   1      31.384  17.697   8.676  0.00  0.00     0.358 C 
BRANCH  13  14
HETATM   14  O   UNK N   1      30.759  17.005   7.661  0.00  0.00    -0.294 OA
BRANCH  14  15
HETATM   15  C   UNK N   1      29.479  17.160   7.239  0.00  0.00     0.268 C 
HETATM   16  O   UNK N   1      28.688  17.692   8.003  0.00  0.00    -0.264 OA
BRANCH  15  17
HETATM   17  C   UNK N   1      28.997  16.697   5.873  0.00  0.00     0.037 C 
HETATM   18  C   UNK N   1      29.579  17.557   4.767  0.00  0.00     0.025 C 
HETATM   19  C   UNK N   1      27.481  16.781   5.766  0.00  0.00     0.025 C 
HETATM   20  C   UNK N   1      29.400  15.252   5.653  0.00  0.00     0.025 C 
ENDBRANCH  15  17
ENDBRANCH  14  15
ENDBRANCH  13  14
ENDBRANCH  12  13
ENDBRANCH   1  12
BRANCH   1  21
HETATM   21  C   UNK N   1      34.662  16.593   9.157  0.00  0.00     0.299 C 
BRANCH  21  22
HETATM   22  O   UNK N   1      35.393  17.312  10.124  0.00  0.00    -0.378 OA
BRANCH  22  23
HETATM   23  C   UNK N   1      35.571  16.534  11.287  0.00  0.00     0.188 C 
BRANCH  23  24
HETATM   24  C   UNK N   1      36.364  15.244  11.091  0.00  0.00     0.157 C 
BRANCH  24  25
HETATM   25  N   UNK N   1      35.781  14.179  11.878  0.00  0.00    -0.325 N 
HETATM   26  C   UNK N   1      35.996  13.951  13.169  0.00  0.00     0.140 A 
HETATM   27  N   UNK N   1      36.789  14.659  14.010  0.00  0.00    -0.336 N 
HETATM   28  C   UNK N   1      35.277  12.886  13.562  0.00  0.00     0.122 A 
HETATM   29  C   UNK N   1      36.852  14.256  15.315  0.00  0.00     0.183 A 
ATOM     30  HN  UNK N   1      37.321  15.463  13.680  1.00  0.00     0.168 HD
HETATM   31  N   UNK N   1      36.127  13.170  15.743  0.00  0.00    -0.337 N 
HETATM   32  C   UNK N   1      35.332  12.468  14.881  0.00  0.00     0.131 A 
ATOM     33  HN  UNK N   1      36.184  12.883  16.721  1.00  0.00     0.168 HD
HETATM   34  N   UNK N   1      34.580  12.394  12.518  0.00  0.00    -0.346 N 
HETATM   35  C   UNK N   1      34.909  13.217  11.481  0.00  0.00     0.185 A 
ATOM     36  HN  UNK N   1      33.952  11.591  12.507  1.00  0.00     0.167 HD
BRANCH  32  37
HETATM   37  N   UNK N   1      34.588  11.359  15.329  0.00  0.00    -0.383 N 
HETATM   38  H   UNK N   1      33.753  11.486  15.834  0.00  0.00     0.157 HD
HETATM   39  H   UNK N   1      34.907  10.447  15.136  0.00  0.00     0.157 HD
ENDBRANCH  32  37
ENDBRANCH  24  25
ENDBRANCH  23  24
ENDBRANCH  22  23
ENDBRANCH  21  22
ENDBRANCH   1  21
TORSDOF 16
ENDMDL
MODEL 6
REMARK VINA RESULT:      -6.3     14.802     18.316
REMARK  16 active torsions:
REMARK  status: ('A' for Active; 'I' for Inactive)
REMARK    1  A    between atoms: P_1  and  O_5 
REMARK    2  A    between atoms: P_1  and  O_6 
REMARK    3  A    between atoms: P_1  and  C_30 
REMARK    4  A    between atoms: O_2  and  C_29 
REMARK    5  A    between atoms: O_2  and  C_30 
REMARK    6  A    between atoms: O_3  and  C_26 
REMARK    7  A    between atoms: O_3  and  C_32 
REMARK    8  A    between atoms: O_4  and  C_27 
REMARK    9  A    between atoms: O_4  and  C_33 
REMARK   10  A    between atoms: O_5  and  C_32 
REMARK   11  A    between atoms: O_6  and  C_33 
REMARK   12  A    between atoms: N_10  and  C_28 
REMARK   13  A    between atoms: N_17  and  C_36 
REMARK   14  A    between atoms: C_18  and  C_26 
REMARK   15  A    between atoms: C_19  and  C_27 
REMARK   16  A    between atoms: C_28  and  C_29 
ROOT
HETATM    1  P   UNK N   1      32.203  16.639   8.556  0.00  0.00     0.355 P 
HETATM    2  O   UNK N   1      31.858  15.322   7.817  0.00  0.00    -0.256 OA
ENDROOT
BRANCH   1   3
HETATM    3  O   UNK N   1      30.612  16.706   9.285  0.00  0.00    -0.286 OA
BRANCH   3   4
HETATM    4  C   UNK N   1      30.052  17.951   8.975  0.00  0.00     0.358 C 
BRANCH   4   5
HETATM    5  O   UNK N   1      28.834  17.774   8.364  0.00  0.00    -0.294 OA
BRANCH   5   6
HETATM    6  C   UNK N   1      28.354  18.355   7.230  0.00  0.00     0.268 C 
HETATM    7  O   UNK N   1      28.070  19.543   7.284  0.00  0.00    -0.264 OA
BRANCH   6   8
HETATM    8  C   UNK N   1      28.151  17.638   5.899  0.00  0.00     0.037 C 
HETATM    9  C   UNK N   1      26.722  17.248   5.571  0.00  0.00     0.025 C 
HETATM   10  C   UNK N   1      28.641  18.535   4.776  0.00  0.00     0.025 C 
HETATM   11  C   UNK N   1      28.986  16.371   5.895  0.00  0.00     0.025 C 
ENDBRANCH   6   8
ENDBRANCH   5   6
ENDBRANCH   4   5
ENDBRANCH   3   4
ENDBRANCH   1   3
BRANCH   1  12
HETATM   12  O   UNK N   1      32.311  17.503   7.033  0.00  0.00    -0.286 OA
BRANCH  12  13
HETATM   13  C   UNK N   1      33.645  17.880   6.834  0.00  0.00     0.358 C 
BRANCH  13  14
HETATM   14  O   UNK N   1      34.069  17.488   5.581  0.00  0.00    -0.294 OA
BRANCH  14  15
HETATM   15  C   UNK N   1      33.949  16.254   5.031  0.00  0.00     0.268 C 
HETATM   16  O   UNK N   1      34.646  15.358   5.484  0.00  0.00    -0.264 OA
BRANCH  15  17
HETATM   17  C   UNK N   1      32.998  15.948   3.885  0.00  0.00     0.037 C 
HETATM   18  C   UNK N   1      32.293  17.205   3.410  0.00  0.00     0.025 C 
HETATM   19  C   UNK N   1      31.924  14.955   4.308  0.00  0.00     0.025 C 
HETATM   20  C   UNK N   1      33.769  15.337   2.732  0.00  0.00     0.025 C 
ENDBRANCH  15  17
ENDBRANCH  14  15
ENDBRANCH  13  14
ENDBRANCH  12  13
ENDBRANCH   1  12
BRANCH   1  21
HETATM   21  C   UNK N   1      33.669  15.788   9.373  0.00  0.00     0.299 C 
BRANCH  21  22
HETATM   22  O   UNK N   1      34.770  16.625   9.646  0.00  0.00    -0.378 OA
BRANCH  22  23
HETATM   23  C   UNK N   1      35.239  16.410  10.959  0.00  0.00     0.188 C 
BRANCH  23  24
HETATM   24  C   UNK N   1      36.269  15.292  11.107  0.00  0.00     0.157 C 
BRANCH  24  25
HETATM   25  N   UNK N   1      35.753  14.253  11.971  0.00  0.00    -0.325 N 
HETATM   26  C   UNK N   1      36.021  14.106  13.264  0.00  0.00     0.140 A 
HETATM   27  N   UNK N   1      36.815  14.886  14.035  0.00  0.00    -0.336 N 
HETATM   28  C   UNK N   1      35.356  13.040  13.741  0.00  0.00     0.122 A 
HETATM   29  C   UNK N   1      36.938  14.560  15.357  0.00  0.00     0.183 A 
ATOM     30  HN  UNK N   1      37.306  15.690  13.643  1.00  0.00     0.168 HD
HETATM   31  N   UNK N   1      36.269  13.475  15.871  0.00  0.00    -0.337 N 
HETATM   32  C   UNK N   1      35.471  12.698  15.078  0.00  0.00     0.131 A 
ATOM     33  HN  UNK N   1      36.370  13.245  16.859  1.00  0.00     0.168 HD
HETATM   34  N   UNK N   1      34.643  12.466  12.751  0.00  0.00    -0.346 N 
HETATM   35  C   UNK N   1      34.905  13.240  11.659  0.00  0.00     0.185 A 
ATOM     36  HN  UNK N   1      34.045  11.642  12.806  1.00  0.00     0.167 HD
BRANCH  32  37
HETATM   37  N   UNK N   1      34.784  11.591  15.613  0.00  0.00    -0.383 N 
HETATM   38  H   UNK N   1      33.830  11.656  15.843  0.00  0.00     0.157 HD
HETATM   39  H   UNK N   1      35.264  10.743  15.757  0.00  0.00     0.157 HD
ENDBRANCH  32  37
ENDBRANCH  24  25
ENDBRANCH  23  24
ENDBRANCH  22  23
ENDBRANCH  21  22
ENDBRANCH   1  21
TORSDOF 16
ENDMDL
MODEL 7
REMARK VINA RESULT:      -6.2     17.102     20.828
REMARK  16 active torsions:
REMARK  status: ('A' for Active; 'I' for Inactive)
REMARK    1  A    between atoms: P_1  and  O_5 
REMARK    2  A    between atoms: P_1  and  O_6 
REMARK    3  A    between atoms: P_1  and  C_30 
REMARK    4  A    between atoms: O_2  and  C_29 
REMARK    5  A    between atoms: O_2  and  C_30 
REMARK    6  A    between atoms: O_3  and  C_26 
REMARK    7  A    between atoms: O_3  and  C_32 
REMARK    8  A    between atoms: O_4  and  C_27 
REMARK    9  A    between atoms: O_4  and  C_33 
REMARK   10  A    between atoms: O_5  and  C_32 
REMARK   11  A    between atoms: O_6  and  C_33 
REMARK   12  A    between atoms: N_10  and  C_28 
REMARK   13  A    between atoms: N_17  and  C_36 
REMARK   14  A    between atoms: C_18  and  C_26 
REMARK   15  A    between atoms: C_19  and  C_27 
REMARK   16  A    between atoms: C_28  and  C_29 
ROOT
HETATM    1  P   UNK N   1      35.734  14.855  10.986  0.00  0.00     0.355 P 
HETATM    2  O   UNK N   1      34.427  14.502  11.739  0.00  0.00    -0.256 OA
ENDROOT
BRANCH   1   3
HETATM    3  O   UNK N   1      35.379  13.695   9.723  0.00  0.00    -0.286 OA
BRANCH   3   4
HETATM    4  C   UNK N   1      34.647  12.649  10.297  0.00  0.00     0.358 C 
BRANCH   4   5
HETATM    5  O   UNK N   1      35.415  11.509  10.332  0.00  0.00    -0.294 OA
BRANCH   5   6
HETATM    6  C   UNK N   1      35.838  10.798  11.412  0.00  0.00     0.268 C 
HETATM    7  O   UNK N   1      36.978  10.999  11.806  0.00  0.00    -0.264 OA
BRANCH   6   8
HETATM    8  C   UNK N   1      34.998   9.775  12.170  0.00  0.00     0.037 C 
HETATM    9  C   UNK N   1      33.835  10.335  12.965  0.00  0.00     0.025 C 
HETATM   10  C   UNK N   1      34.425   8.776  11.179  0.00  0.00     0.025 C 
HETATM   11  C   UNK N   1      35.897   9.025  13.135  0.00  0.00     0.025 C 
ENDBRANCH   6   8
ENDBRANCH   5   6
ENDBRANCH   4   5
ENDBRANCH   3   4
ENDBRANCH   1   3
BRANCH   1  12
HETATM   12  O   UNK N   1      36.703  14.193  12.291  0.00  0.00    -0.286 OA
BRANCH  12  13
HETATM   13  C   UNK N   1      35.932  14.203  13.461  0.00  0.00     0.358 C 
BRANCH  13  14
HETATM   14  O   UNK N   1      36.694  13.801  14.537  0.00  0.00    -0.294 OA
BRANCH  14  15
HETATM   15  C   UNK N   1      36.570  12.643  15.234  0.00  0.00     0.268 C 
HETATM   16  O   UNK N   1      37.333  11.729  14.959  0.00  0.00    -0.264 OA
BRANCH  15  17
HETATM   17  C   UNK N   1      35.530  12.441  16.324  0.00  0.00     0.037 C 
HETATM   18  C   UNK N   1      35.815  11.186  17.126  0.00  0.00     0.025 C 
HETATM   19  C   UNK N   1      34.133  12.298  15.734  0.00  0.00     0.025 C 
HETATM   20  C   UNK N   1      35.522  13.641  17.250  0.00  0.00     0.025 C 
ENDBRANCH  15  17
ENDBRANCH  14  15
ENDBRANCH  13  14
ENDBRANCH  12  13
ENDBRANCH   1  12
BRANCH   1  21
HETATM   21  C   UNK N   1      35.192  16.655  10.906  0.00  0.00     0.299 C 
BRANCH  21  22
HETATM   22  O   UNK N   1      35.204  17.227   9.618  0.00  0.00    -0.378 OA
BRANCH  22  23
HETATM   23  C   UNK N   1      34.042  16.861   8.905  0.00  0.00     0.188 C 
BRANCH  23  24
HETATM   24  C   UNK N   1      33.356  18.000   8.153  0.00  0.00     0.157 C 
BRANCH  24  25
HETATM   25  N   UNK N   1      32.060  17.569   7.676  0.00  0.00    -0.325 N 
HETATM   26  C   UNK N   1      30.895  17.777   8.279  0.00  0.00     0.140 A 
HETATM   27  N   UNK N   1      30.676  18.430   9.446  0.00  0.00    -0.336 N 
HETATM   28  C   UNK N   1      29.906  17.247   7.540  0.00  0.00     0.122 A 
HETATM   29  C   UNK N   1      29.385  18.543   9.880  0.00  0.00     0.183 A 
ATOM     30  HN  UNK N   1      31.449  18.821   9.984  1.00  0.00     0.168 HD
HETATM   31  N   UNK N   1      28.354  18.011   9.143  0.00  0.00    -0.337 N 
HETATM   32  C   UNK N   1      28.593  17.356   7.967  0.00  0.00     0.131 A 
ATOM     33  HN  UNK N   1      27.396  18.105   9.479  1.00  0.00     0.168 HD
HETATM   34  N   UNK N   1      30.420  16.673   6.434  0.00  0.00    -0.346 N 
HETATM   35  C   UNK N   1      31.763  16.888   6.540  0.00  0.00     0.185 A 
ATOM     36  HN  UNK N   1      29.919  16.189   5.689  1.00  0.00     0.167 HD
BRANCH  32  37
HETATM   37  N   UNK N   1      27.531  16.817   7.215  0.00  0.00    -0.383 N 
HETATM   38  H   UNK N   1      27.671  16.532   6.283  0.00  0.00     0.157 HD
HETATM   39  H   UNK N   1      26.640  16.725   7.625  0.00  0.00     0.157 HD
ENDBRANCH  32  37
ENDBRANCH  24  25
ENDBRANCH  23  24
ENDBRANCH  22  23
ENDBRANCH  21  22
ENDBRANCH   1  21
TORSDOF 16
ENDMDL
MODEL 8
REMARK VINA RESULT:      -6.2     15.681     19.506
REMARK  16 active torsions:
REMARK  status: ('A' for Active; 'I' for Inactive)
REMARK    1  A    between atoms: P_1  and  O_5 
REMARK    2  A    between atoms: P_1  and  O_6 
REMARK    3  A    between atoms: P_1  and  C_30 
REMARK    4  A    between atoms: O_2  and  C_29 
REMARK    5  A    between atoms: O_2  and  C_30 
REMARK    6  A    between atoms: O_3  and  C_26 
REMARK    7  A    between atoms: O_3  and  C_32 
REMARK    8  A    between atoms: O_4  and  C_27 
REMARK    9  A    between atoms: O_4  and  C_33 
REMARK   10  A    between atoms: O_5  and  C_32 
REMARK   11  A    between atoms: O_6  and  C_33 
REMARK   12  A    between atoms: N_10  and  C_28 
REMARK   13  A    between atoms: N_17  and  C_36 
REMARK   14  A    between atoms: C_18  and  C_26 
REMARK   15  A    between atoms: C_19  and  C_27 
REMARK   16  A    between atoms: C_28  and  C_29 
ROOT
HETATM    1  P   UNK N   1      33.901  16.747   7.247  0.00  0.00     0.355 P 
HETATM    2  O   UNK N   1      34.444  18.163   6.932  0.00  0.00    -0.256 OA
ENDROOT
BRANCH   1   3
HETATM    3  O   UNK N   1      35.218  15.992   6.374  0.00  0.00    -0.286 OA
BRANCH   3   4
HETATM    4  C   UNK N   1      35.255  14.641   6.742  0.00  0.00     0.358 C 
BRANCH   4   5
HETATM    5  O   UNK N   1      36.382  14.394   7.489  0.00  0.00    -0.294 OA
BRANCH   5   6
HETATM    6  C   UNK N   1      37.269  13.366   7.384  0.00  0.00     0.268 C 
HETATM    7  O   UNK N   1      37.304  12.559   8.301  0.00  0.00    -0.264 OA
BRANCH   6   8
HETATM    8  C   UNK N   1      38.215  13.144   6.207  0.00  0.00     0.037 C 
HETATM    9  C   UNK N   1      38.604  14.386   5.430  0.00  0.00     0.025 C 
HETATM   10  C   UNK N   1      39.498  12.513   6.719  0.00  0.00     0.025 C 
HETATM   11  C   UNK N   1      37.564  12.177   5.236  0.00  0.00     0.025 C 
ENDBRANCH   6   8
ENDBRANCH   5   6
ENDBRANCH   4   5
ENDBRANCH   3   4
ENDBRANCH   1   3
BRANCH   1  12
HETATM   12  O   UNK N   1      32.481  17.036   6.256  0.00  0.00    -0.286 OA
BRANCH  12  13
HETATM   13  C   UNK N   1      31.556  16.013   6.503  0.00  0.00     0.358 C 
BRANCH  13  14
HETATM   14  O   UNK N   1      30.657  16.406   7.471  0.00  0.00    -0.294 OA
BRANCH  14  15
HETATM   15  C   UNK N   1      29.669  17.327   7.337  0.00  0.00     0.268 C 
HETATM   16  O   UNK N   1      29.193  17.494   6.224  0.00  0.00    -0.264 OA
BRANCH  15  17
HETATM   17  C   UNK N   1      29.145  18.152   8.502  0.00  0.00     0.037 C 
HETATM   18  C   UNK N   1      28.101  19.150   8.039  0.00  0.00     0.025 C 
HETATM   19  C   UNK N   1      30.266  18.939   9.168  0.00  0.00     0.025 C 
HETATM   20  C   UNK N   1      28.538  17.235   9.544  0.00  0.00     0.025 C 
ENDBRANCH  15  17
ENDBRANCH  14  15
ENDBRANCH  13  14
ENDBRANCH  12  13
ENDBRANCH   1  12
BRANCH   1  21
HETATM   21  C   UNK N   1      33.980  17.135   9.086  0.00  0.00     0.299 C 
BRANCH  21  22
HETATM   22  O   UNK N   1      35.270  17.401   9.586  0.00  0.00    -0.378 OA
BRANCH  22  23
HETATM   23  C   UNK N   1      35.478  16.718  10.803  0.00  0.00     0.188 C 
BRANCH  23  24
HETATM   24  C   UNK N   1      36.358  15.473  10.708  0.00  0.00     0.157 C 
BRANCH  24  25
HETATM   25  N   UNK N   1      35.713  14.358  11.369  0.00  0.00    -0.325 N 
HETATM   26  C   UNK N   1      35.850  14.020  12.646  0.00  0.00     0.140 A 
HETATM   27  N   UNK N   1      36.605  14.638  13.586  0.00  0.00    -0.336 N 
HETATM   28  C   UNK N   1      35.093  12.941  12.907  0.00  0.00     0.122 A 
HETATM   29  C   UNK N   1      36.587  14.127  14.854  0.00  0.00     0.183 A 
ATOM     30  HN  UNK N   1      37.169  15.456  13.355  1.00  0.00     0.168 HD
HETATM   31  N   UNK N   1      35.821  13.024  15.148  0.00  0.00    -0.337 N 
HETATM   32  C   UNK N   1      35.065  12.413  14.187  0.00  0.00     0.131 A 
ATOM     33  HN  UNK N   1      35.817  12.655  16.099  1.00  0.00     0.168 HD
HETATM   34  N   UNK N   1      34.450  12.552  11.788  0.00  0.00    -0.346 N 
HETATM   35  C   UNK N   1      34.850  13.451  10.844  0.00  0.00     0.185 A 
ATOM     36  HN  UNK N   1      33.810  11.766  11.674  1.00  0.00     0.167 HD
BRANCH  32  37
HETATM   37  N   UNK N   1      34.279  11.286  14.498  0.00  0.00    -0.383 N 
HETATM   38  H   UNK N   1      34.436  10.426  14.047  0.00  0.00     0.157 HD
HETATM   39  H   UNK N   1      33.566  11.361  15.173  0.00  0.00     0.157 HD
ENDBRANCH  32  37
ENDBRANCH  24  25
ENDBRANCH  23  24
ENDBRANCH  22  23
ENDBRANCH  21  22
ENDBRANCH   1  21
TORSDOF 16
ENDMDL
MODEL 9
REMARK VINA RESULT:      -6.2     14.809     18.463
REMARK  16 active torsions:
REMARK  status: ('A' for Active; 'I' for Inactive)
REMARK    1  A    between atoms: P_1  and  O_5 
REMARK    2  A    between atoms: P_1  and  O_6 
REMARK    3  A    between atoms: P_1  and  C_30 
REMARK    4  A    between atoms: O_2  and  C_29 
REMARK    5  A    between atoms: O_2  and  C_30 
REMARK    6  A    between atoms: O_3  and  C_26 
REMARK    7  A    between atoms: O_3  and  C_32 
REMARK    8  A    between atoms: O_4  and  C_27 
REMARK    9  A    between atoms: O_4  and  C_33 
REMARK   10  A    between atoms: O_5  and  C_32 
REMARK   11  A    between atoms: O_6  and  C_33 
REMARK   12  A    between atoms: N_10  and  C_28 
REMARK   13  A    between atoms: N_17  and  C_36 
REMARK   14  A    between atoms: C_18  and  C_26 
REMARK   15  A    between atoms: C_19  and  C_27 
REMARK   16  A    between atoms: C_28  and  C_29 
ROOT
HETATM    1  P   UNK N   1      33.911  17.433   7.752  0.00  0.00     0.355 P 
HETATM    2  O   UNK N   1      34.794  18.667   8.069  0.00  0.00    -0.256 OA
ENDROOT
BRANCH   1   3
HETATM    3  O   UNK N   1      34.410  17.445   6.073  0.00  0.00    -0.286 OA
BRANCH   3   4
HETATM    4  C   UNK N   1      33.261  17.603   5.287  0.00  0.00     0.358 C 
BRANCH   4   5
HETATM    5  O   UNK N   1      33.271  16.690   4.260  0.00  0.00    -0.294 OA
BRANCH   5   6
HETATM    6  C   UNK N   1      32.425  15.647   4.037  0.00  0.00     0.268 C 
HETATM    7  O   UNK N   1      31.633  15.754   3.112  0.00  0.00    -0.264 OA
BRANCH   6   8
HETATM    8  C   UNK N   1      32.396  14.355   4.849  0.00  0.00     0.037 C 
HETATM    9  C   UNK N   1      33.708  13.950   5.493  0.00  0.00     0.025 C 
HETATM   10  C   UNK N   1      31.373  14.496   5.963  0.00  0.00     0.025 C 
HETATM   11  C   UNK N   1      31.958  13.220   3.942  0.00  0.00     0.025 C 
ENDBRANCH   6   8
ENDBRANCH   5   6
ENDBRANCH   4   5
ENDBRANCH   3   4
ENDBRANCH   1   3
BRANCH   1  12
HETATM   12  O   UNK N   1      32.452  18.360   8.054  0.00  0.00    -0.286 OA
BRANCH  12  13
HETATM   13  C   UNK N   1      31.548  17.544   8.747  0.00  0.00     0.358 C 
BRANCH  13  14
HETATM   14  O   UNK N   1      30.486  17.211   7.934  0.00  0.00    -0.294 OA
BRANCH  14  15
HETATM   15  C   UNK N   1      29.350  17.930   7.743  0.00  0.00     0.268 C 
HETATM   16  O   UNK N   1      28.945  18.611   8.674  0.00  0.00    -0.264 OA
BRANCH  15  17
HETATM   17  C   UNK N   1      28.572  17.916   6.438  0.00  0.00     0.037 C 
HETATM   18  C   UNK N   1      27.550  16.794   6.423  0.00  0.00     0.025 C 
HETATM   19  C   UNK N   1      29.497  17.706   5.246  0.00  0.00     0.025 C 
HETATM   20  C   UNK N   1      27.865  19.243   6.250  0.00  0.00     0.025 C 
ENDBRANCH  15  17
ENDBRANCH  14  15
ENDBRANCH  13  14
ENDBRANCH  12  13
ENDBRANCH   1  12
BRANCH   1  21
HETATM   21  C   UNK N   1      34.814  16.456   9.082  0.00  0.00     0.299 C 
BRANCH  21  22
HETATM   22  O   UNK N   1      35.351  17.229  10.131  0.00  0.00    -0.378 OA
BRANCH  22  23
HETATM   23  C   UNK N   1      35.658  16.411  11.239  0.00  0.00     0.188 C 
BRANCH  23  24
HETATM   24  C   UNK N   1      36.028  14.969  10.900  0.00  0.00     0.157 C 
BRANCH  24  25
HETATM   25  N   UNK N   1      35.684  14.096  12.001  0.00  0.00    -0.325 N 
HETATM   26  C   UNK N   1      35.059  12.927  11.908  0.00  0.00     0.140 A 
HETATM   27  N   UNK N   1      34.623  12.313  10.782  0.00  0.00    -0.336 N 
HETATM   28  C   UNK N   1      34.921  12.394  13.134  0.00  0.00     0.122 A 
HETATM   29  C   UNK N   1      34.015  11.096  10.915  0.00  0.00     0.183 A 
ATOM     30  HN  UNK N   1      34.743  12.745   9.866  1.00  0.00     0.168 HD
HETATM   31  N   UNK N   1      33.861  10.528  12.157  0.00  0.00    -0.337 N 
HETATM   32  C   UNK N   1      34.307  11.162  13.283  0.00  0.00     0.131 A 
ATOM     33  HN  UNK N   1      33.406   9.618  12.240  1.00  0.00     0.168 HD
HETATM   34  N   UNK N   1      35.454  13.221  14.055  0.00  0.00    -0.346 N 
HETATM   35  C   UNK N   1      35.925  14.273  13.325  0.00  0.00     0.185 A 
ATOM     36  HN  UNK N   1      35.496  13.090  15.066  1.00  0.00     0.167 HD
BRANCH  32  37
HETATM   37  N   UNK N   1      34.150  10.570  14.552  0.00  0.00    -0.383 N 
HETATM   38  H   UNK N   1      33.715  11.063  15.284  0.00  0.00     0.157 HD
HETATM   39  H   UNK N   1      34.479   9.655  14.708  0.00  0.00     0.157 HD
ENDBRANCH  32  37
ENDBRANCH  24  25
ENDBRANCH  23  24
ENDBRANCH  22  23
ENDBRANCH  21  22
ENDBRANCH   1  21
TORSDOF 16
ENDMDL
