MODEL 1
REMARK VINA RESULT:      -7.1      0.000      0.000
REMARK  0 active torsions:
REMARK  status: ('A' for Active; 'I' for Inactive)
ROOT
HETATM    1  N   UNK N   1      26.108  23.850 -10.432  0.00  0.00     0.084 N 
HETATM    2  N   UNK N   1      28.725  22.107  -6.678  0.00  0.00    -0.365 N 
ATOM      3  HN  UNK N   1      28.255  22.006  -7.578  1.00  0.00     0.165 HD
HETATM    4  C   UNK N   1      26.627  23.843  -7.614  0.00  0.00    -0.063 C 
HETATM    5  C   UNK N   1      25.520  24.681  -8.204  0.00  0.00     0.065 C 
HETATM    6  C   UNK N   1      26.969  22.660  -8.486  0.00  0.00     0.065 C 
HETATM    7  C   UNK N   1      25.895  25.062  -9.638  0.00  0.00     0.276 C 
HETATM    8  C   UNK N   1      27.267  23.136  -9.902  0.00  0.00     0.276 C 
HETATM    9  C   UNK N   1      27.226  24.098  -6.377  0.00  0.00     0.004 C 
HETATM   10  C   UNK N   1      26.724  25.307  -5.554  0.00  0.00    -0.017 A 
HETATM   11  C   UNK N   1      28.339  23.142  -5.869  0.00  0.00     0.049 A 
HETATM   12  C   UNK N   1      26.748  25.369  -4.133  0.00  0.00    -0.047 A 
HETATM   13  C   UNK N   1      27.313  24.295  -3.306  0.00  0.00     0.044 C 
HETATM   14  C   UNK N   1      28.769  24.309  -3.627  0.00  0.00     0.045 C 
HETATM   15  C   UNK N   1      29.028  23.259  -4.625  0.00  0.00    -0.030 A 
HETATM   16  C   UNK N   1      26.437  24.258 -11.785  0.00  0.00     0.309 C 
HETATM   17  C   UNK N   1      26.166  26.421  -6.221  0.00  0.00     0.013 A 
HETATM   18  C   UNK N   1      26.228  26.476  -3.451  0.00  0.00     0.008 A 
HETATM   19  C   UNK N   1      30.018  22.332  -4.286  0.00  0.00     0.011 A 
HETATM   20  C   UNK N   1      25.658  27.524  -5.534  0.00  0.00     0.001 A 
HETATM   21  C   UNK N   1      25.683  27.549  -4.147  0.00  0.00     0.001 A 
HETATM   22  C   UNK N   1      30.354  21.302  -5.152  0.00  0.00     0.018 A 
HETATM   23  C   UNK N   1      29.689  21.208  -6.363  0.00  0.00     0.088 A 
ENDROOT
TORSDOF 0
ENDMDL
MODEL 2
REMARK VINA RESULT:      -7.1     12.808     15.300
REMARK  0 active torsions:
REMARK  status: ('A' for Active; 'I' for Inactive)
ROOT
HETATM    1  N   UNK N   1      27.925  16.029   2.644  0.00  0.00     0.084 N 
HETATM    2  N   UNK N   1      28.830  17.961   7.052  0.00  0.00    -0.365 N 
ATOM      3  HN  UNK N   1      28.290  17.888   6.190  1.00  0.00     0.165 HD
HETATM    4  C   UNK N   1      29.852  16.878   4.588  0.00  0.00    -0.063 C 
HETATM    5  C   UNK N   1      30.280  16.339   3.245  0.00  0.00     0.065 C 
HETATM    6  C   UNK N   1      28.458  17.454   4.550  0.00  0.00     0.065 C 
HETATM    7  C   UNK N   1      29.221  15.353   2.745  0.00  0.00     0.276 C 
HETATM    8  C   UNK N   1      27.492  16.421   3.983  0.00  0.00     0.276 C 
HETATM    9  C   UNK N   1      30.672  16.896   5.719  0.00  0.00     0.004 C 
HETATM   10  C   UNK N   1      32.108  16.338   5.595  0.00  0.00    -0.017 A 
HETATM   11  C   UNK N   1      30.121  17.506   7.037  0.00  0.00     0.049 A 
HETATM   12  C   UNK N   1      33.212  16.796   6.368  0.00  0.00    -0.047 A 
HETATM   13  C   UNK N   1      33.073  17.818   7.413  0.00  0.00     0.044 C 
HETATM   14  C   UNK N   1      32.229  17.168   8.456  0.00  0.00     0.045 C 
HETATM   15  C   UNK N   1      30.840  17.612   8.266  0.00  0.00    -0.030 A 
HETATM   16  C   UNK N   1      26.962  15.066   2.146  0.00  0.00     0.309 C 
HETATM   17  C   UNK N   1      32.386  15.337   4.637  0.00  0.00     0.013 A 
HETATM   18  C   UNK N   1      34.497  16.279   6.165  0.00  0.00     0.008 A 
HETATM   19  C   UNK N   1      30.225  18.179   9.386  0.00  0.00     0.011 A 
HETATM   20  C   UNK N   1      33.669  14.821   4.447  0.00  0.00     0.001 A 
HETATM   21  C   UNK N   1      34.727  15.298   5.208  0.00  0.00     0.001 A 
HETATM   22  C   UNK N   1      28.914  18.627   9.327  0.00  0.00     0.018 A 
HETATM   23  C   UNK N   1      28.222  18.504   8.135  0.00  0.00     0.088 A 
ENDROOT
TORSDOF 0
ENDMDL
MODEL 3
REMARK VINA RESULT:      -7.1      2.009      5.314
REMARK  0 active torsions:
REMARK  status: ('A' for Active; 'I' for Inactive)
ROOT
HETATM    1  N   UNK N   1      25.933  26.690  -4.023  0.00  0.00     0.084 N 
HETATM    2  N   UNK N   1      26.008  22.775  -6.963  0.00  0.00    -0.365 N 
ATOM      3  HN  UNK N   1      25.527  23.459  -6.379  1.00  0.00     0.165 HD
HETATM    4  C   UNK N   1      27.279  24.314  -4.887  0.00  0.00    -0.063 C 
HETATM    5  C   UNK N   1      27.835  25.167  -3.775  0.00  0.00     0.065 C 
HETATM    6  C   UNK N   1      25.787  24.478  -5.037  0.00  0.00     0.065 C 
HETATM    7  C   UNK N   1      27.396  26.617  -3.994  0.00  0.00     0.276 C 
HETATM    8  C   UNK N   1      25.446  25.955  -5.187  0.00  0.00     0.276 C 
HETATM    9  C   UNK N   1      28.047  23.429  -5.651  0.00  0.00     0.004 C 
HETATM   10  C   UNK N   1      29.556  23.309  -5.339  0.00  0.00    -0.017 A 
HETATM   11  C   UNK N   1      27.348  22.585  -6.752  0.00  0.00     0.049 A 
HETATM   12  C   UNK N   1      30.320  22.126  -5.544  0.00  0.00    -0.047 A 
HETATM   13  C   UNK N   1      29.748  20.909  -6.134  0.00  0.00     0.044 C 
HETATM   14  C   UNK N   1      29.421  21.297  -7.536  0.00  0.00     0.045 C 
HETATM   15  C   UNK N   1      27.990  21.631  -7.597  0.00  0.00    -0.030 A 
HETATM   16  C   UNK N   1      25.563  28.081  -4.207  0.00  0.00     0.309 C 
HETATM   17  C   UNK N   1      30.243  24.410  -4.780  0.00  0.00     0.013 A 
HETATM   18  C   UNK N   1      31.674  22.073  -5.190  0.00  0.00     0.008 A 
HETATM   19  C   UNK N   1      27.245  20.938  -8.556  0.00  0.00     0.011 A 
HETATM   20  C   UNK N   1      31.594  24.351  -4.437  0.00  0.00     0.001 A 
HETATM   21  C   UNK N   1      32.309  23.179  -4.637  0.00  0.00     0.001 A 
HETATM   22  C   UNK N   1      25.888  21.175  -8.710  0.00  0.00     0.018 A 
HETATM   23  C   UNK N   1      25.280  22.114  -7.895  0.00  0.00     0.088 A 
ENDROOT
TORSDOF 0
ENDMDL
MODEL 4
REMARK VINA RESULT:      -7.0      2.557      3.953
REMARK  0 active torsions:
REMARK  status: ('A' for Active; 'I' for Inactive)
ROOT
HETATM    1  N   UNK N   1      29.365  20.094  -9.423  0.00  0.00     0.084 N 
HETATM    2  N   UNK N   1      32.029  20.134  -5.314  0.00  0.00    -0.365 N 
ATOM      3  HN  UNK N   1      31.685  19.689  -6.165  1.00  0.00     0.165 HD
HETATM    4  C   UNK N   1      29.620  20.909  -6.688  0.00  0.00    -0.063 C 
HETATM    5  C   UNK N   1      28.379  21.223  -7.486  0.00  0.00     0.065 C 
HETATM    6  C   UNK N   1      30.352  19.705  -7.227  0.00  0.00     0.065 C 
HETATM    7  C   UNK N   1      28.756  21.345  -8.965  0.00  0.00     0.276 C 
HETATM    8  C   UNK N   1      30.627  19.895  -8.714  0.00  0.00     0.276 C 
HETATM    9  C   UNK N   1      30.015  21.615  -5.547  0.00  0.00     0.004 C 
HETATM   10  C   UNK N   1      29.128  22.785  -5.064  0.00  0.00    -0.017 A 
HETATM   11  C   UNK N   1      31.302  21.173  -4.799  0.00  0.00     0.049 A 
HETATM   12  C   UNK N   1      29.011  23.188  -3.705  0.00  0.00    -0.047 A 
HETATM   13  C   UNK N   1      29.778  22.555  -2.625  0.00  0.00     0.044 C 
HETATM   14  C   UNK N   1      31.195  22.914  -2.920  0.00  0.00     0.045 C 
HETATM   15  C   UNK N   1      31.821  21.779  -3.615  0.00  0.00    -0.030 A 
HETATM   16  C   UNK N   1      29.683  20.246 -10.830  0.00  0.00     0.309 C 
HETATM   17  C   UNK N   1      28.342  23.497  -5.999  0.00  0.00     0.013 A 
HETATM   18  C   UNK N   1      28.147  24.225  -3.333  0.00  0.00     0.008 A 
HETATM   19  C   UNK N   1      32.997  21.288  -3.039  0.00  0.00     0.011 A 
HETATM   20  C   UNK N   1      27.490  24.535  -5.621  0.00  0.00     0.001 A 
HETATM   21  C   UNK N   1      27.387  24.895  -4.285  0.00  0.00     0.001 A 
HETATM   22  C   UNK N   1      33.679  20.225  -3.612  0.00  0.00     0.018 A 
HETATM   23  C   UNK N   1      33.174  19.656  -4.768  0.00  0.00     0.088 A 
ENDROOT
TORSDOF 0
ENDMDL
MODEL 5
REMARK VINA RESULT:      -7.0     11.141     14.007
REMARK  0 active torsions:
REMARK  status: ('A' for Active; 'I' for Inactive)
ROOT
HETATM    1  N   UNK N   1      23.357  14.371   6.277  0.00  0.00     0.084 N 
HETATM    2  N   UNK N   1      21.598  18.019   3.524  0.00  0.00    -0.365 N 
ATOM      3  HN  UNK N   1      21.579  17.063   3.879  1.00  0.00     0.165 HD
HETATM    4  C   UNK N   1      23.881  16.656   4.630  0.00  0.00    -0.063 C 
HETATM    5  C   UNK N   1      25.005  15.843   5.221  0.00  0.00     0.065 C 
HETATM    6  C   UNK N   1      22.612  15.851   4.489  0.00  0.00     0.065 C 
HETATM    7  C   UNK N   1      24.528  15.213   6.532  0.00  0.00     0.276 C 
HETATM    8  C   UNK N   1      22.255  15.218   5.828  0.00  0.00     0.276 C 
HETATM    9  C   UNK N   1      24.014  17.982   4.207  0.00  0.00     0.004 C 
HETATM   10  C   UNK N   1      25.396  18.661   4.345  0.00  0.00    -0.017 A 
HETATM   11  C   UNK N   1      22.783  18.701   3.589  0.00  0.00     0.049 A 
HETATM   12  C   UNK N   1      25.869  19.687   3.480  0.00  0.00    -0.047 A 
HETATM   13  C   UNK N   1      25.052  20.243   2.394  0.00  0.00     0.044 C 
HETATM   14  C   UNK N   1      23.933  20.938   3.093  0.00  0.00     0.045 C 
HETATM   15  C   UNK N   1      22.767  20.040   3.097  0.00  0.00    -0.030 A 
HETATM   16  C   UNK N   1      22.955  13.779   7.539  0.00  0.00     0.309 C 
HETATM   17  C   UNK N   1      26.284  18.236   5.358  0.00  0.00     0.013 A 
HETATM   18  C   UNK N   1      27.154  20.222   3.632  0.00  0.00     0.008 A 
HETATM   19  C   UNK N   1      21.589  20.574   2.567  0.00  0.00     0.011 A 
HETATM   20  C   UNK N   1      27.560  18.779   5.508  0.00  0.00     0.001 A 
HETATM   21  C   UNK N   1      27.998  19.770   4.640  0.00  0.00     0.001 A 
HETATM   22  C   UNK N   1      20.424  19.823   2.526  0.00  0.00     0.018 A 
HETATM   23  C   UNK N   1      20.448  18.530   3.021  0.00  0.00     0.088 A 
ENDROOT
TORSDOF 0
ENDMDL
MODEL 6
REMARK VINA RESULT:      -7.0     13.023     15.337
REMARK  0 active torsions:
REMARK  status: ('A' for Active; 'I' for Inactive)
ROOT
HETATM    1  N   UNK N   1      34.612  15.939   5.507  0.00  0.00     0.084 N 
HETATM    2  N   UNK N   1      30.166  15.830   3.457  0.00  0.00    -0.365 N 
ATOM      3  HN  UNK N   1      31.185  15.820   3.410  1.00  0.00     0.165 HD
HETATM    4  C   UNK N   1      31.895  16.849   5.522  0.00  0.00    -0.063 C 
HETATM    5  C   UNK N   1      32.895  17.355   6.532  0.00  0.00     0.065 C 
HETATM    6  C   UNK N   1      32.560  16.361   4.259  0.00  0.00     0.065 C 
HETATM    7  C   UNK N   1      33.951  16.273   6.771  0.00  0.00     0.276 C 
HETATM    8  C   UNK N   1      33.632  15.336   4.607  0.00  0.00     0.276 C 
HETATM    9  C   UNK N   1      30.510  16.882   5.711  0.00  0.00     0.004 C 
HETATM   10  C   UNK N   1      29.962  17.477   7.028  0.00  0.00    -0.017 A 
HETATM   11  C   UNK N   1      29.585  16.353   4.581  0.00  0.00     0.049 A 
HETATM   12  C   UNK N   1      28.702  18.128   7.146  0.00  0.00    -0.047 A 
HETATM   13  C   UNK N   1      27.766  18.244   6.020  0.00  0.00     0.044 C 
HETATM   14  C   UNK N   1      27.350  16.840   5.739  0.00  0.00     0.045 C 
HETATM   15  C   UNK N   1      28.158  16.338   4.617  0.00  0.00    -0.030 A 
HETATM   16  C   UNK N   1      35.617  14.931   5.786  0.00  0.00     0.309 C 
HETATM   17  C   UNK N   1      30.751  17.424   8.199  0.00  0.00     0.013 A 
HETATM   18  C   UNK N   1      28.292  18.690   8.361  0.00  0.00     0.008 A 
HETATM   19  C   UNK N   1      27.439  15.829   3.532  0.00  0.00     0.011 A 
HETATM   20  C   UNK N   1      30.332  17.979   9.408  0.00  0.00     0.001 A 
HETATM   21  C   UNK N   1      29.103  18.619   9.487  0.00  0.00     0.001 A 
HETATM   22  C   UNK N   1      28.094  15.320   2.420  0.00  0.00     0.018 A 
HETATM   23  C   UNK N   1      29.478  15.326   2.404  0.00  0.00     0.088 A 
ENDROOT
TORSDOF 0
ENDMDL
MODEL 7
REMARK VINA RESULT:      -6.9     23.212     26.672
REMARK  0 active torsions:
REMARK  status: ('A' for Active; 'I' for Inactive)
ROOT
HETATM    1  N   UNK N   1      37.882   7.163  14.565  0.00  0.00     0.084 N 
HETATM    2  N   UNK N   1      37.736  11.351  12.029  0.00  0.00    -0.365 N 
ATOM      3  HN  UNK N   1      38.097  10.413  12.209  1.00  0.00     0.165 HD
HETATM    4  C   UNK N   1      37.575  10.012  14.574  0.00  0.00    -0.063 C 
HETATM    5  C   UNK N   1      37.554   9.219  15.856  0.00  0.00     0.065 C 
HETATM    6  C   UNK N   1      38.330   9.300  13.478  0.00  0.00     0.065 C 
HETATM    7  C   UNK N   1      37.027   7.812  15.562  0.00  0.00     0.276 C 
HETATM    8  C   UNK N   1      37.773   7.892  13.304  0.00  0.00     0.276 C 
HETATM    9  C   UNK N   1      37.013  11.285  14.433  0.00  0.00     0.004 C 
HETATM   10  C   UNK N   1      36.333  11.927  15.663  0.00  0.00    -0.017 A 
HETATM   11  C   UNK N   1      37.128  12.009  13.064  0.00  0.00     0.049 A 
HETATM   12  C   UNK N   1      36.266  13.329  15.896  0.00  0.00    -0.047 A 
HETATM   13  C   UNK N   1      36.797  14.313  14.944  0.00  0.00     0.044 C 
HETATM   14  C   UNK N   1      35.927  14.170  13.742  0.00  0.00     0.045 C 
HETATM   15  C   UNK N   1      36.623  13.312  12.771  0.00  0.00    -0.030 A 
HETATM   16  C   UNK N   1      37.360   5.829  14.335  0.00  0.00     0.309 C 
HETATM   17  C   UNK N   1      35.764  11.099  16.657  0.00  0.00     0.013 A 
HETATM   18  C   UNK N   1      35.678  13.839  17.060  0.00  0.00     0.008 A 
HETATM   19  C   UNK N   1      36.787  13.851  11.492  0.00  0.00     0.011 A 
HETATM   20  C   UNK N   1      35.172  11.615  17.810  0.00  0.00     0.001 A 
HETATM   21  C   UNK N   1      35.134  12.987  18.015  0.00  0.00     0.001 A 
HETATM   22  C   UNK N   1      37.421  13.129  10.492  0.00  0.00     0.018 A 
HETATM   23  C   UNK N   1      37.892  11.861  10.783  0.00  0.00     0.088 A 
ENDROOT
TORSDOF 0
ENDMDL
MODEL 8
REMARK VINA RESULT:      -6.9     12.069     14.636
REMARK  0 active torsions:
REMARK  status: ('A' for Active; 'I' for Inactive)
ROOT
HETATM    1  N   UNK N   1      31.464  15.864   7.104  0.00  0.00     0.084 N 
HETATM    2  N   UNK N   1      27.983  19.267   6.566  0.00  0.00    -0.365 N 
ATOM      3  HN  UNK N   1      28.683  18.767   7.115  1.00  0.00     0.165 HD
HETATM    4  C   UNK N   1      28.969  16.638   5.927  0.00  0.00    -0.063 C 
HETATM    5  C   UNK N   1      29.552  15.266   5.694  0.00  0.00     0.065 C 
HETATM    6  C   UNK N   1      29.464  17.254   7.212  0.00  0.00     0.065 C 
HETATM    7  C   UNK N   1      31.077  15.352   5.787  0.00  0.00     0.276 C 
HETATM    8  C   UNK N   1      30.987  17.238   7.235  0.00  0.00     0.276 C 
HETATM    9  C   UNK N   1      28.034  17.243   5.081  0.00  0.00     0.004 C 
HETATM   10  C   UNK N   1      27.560  16.463   3.834  0.00  0.00    -0.017 A 
HETATM   11  C   UNK N   1      27.490  18.651   5.448  0.00  0.00     0.049 A 
HETATM   12  C   UNK N   1      26.272  16.608   3.245  0.00  0.00    -0.047 A 
HETATM   13  C   UNK N   1      25.281  17.570   3.743  0.00  0.00     0.044 C 
HETATM   14  C   UNK N   1      25.887  18.903   3.463  0.00  0.00     0.045 C 
HETATM   15  C   UNK N   1      26.523  19.386   4.698  0.00  0.00    -0.030 A 
HETATM   16  C   UNK N   1      32.913  15.905   7.155  0.00  0.00     0.309 C 
HETATM   17  C   UNK N   1      28.418  15.511   3.238  0.00  0.00     0.013 A 
HETATM   18  C   UNK N   1      25.892  15.830   2.145  0.00  0.00     0.008 A 
HETATM   19  C   UNK N   1      26.119  20.651   5.135  0.00  0.00     0.011 A 
HETATM   20  C   UNK N   1      28.034  14.746   2.136  0.00  0.00     0.001 A 
HETATM   21  C   UNK N   1      26.766  14.901   1.593  0.00  0.00     0.001 A 
HETATM   22  C   UNK N   1      26.657  21.213   6.283  0.00  0.00     0.018 A 
HETATM   23  C   UNK N   1      27.604  20.496   6.993  0.00  0.00     0.088 A 
ENDROOT
TORSDOF 0
ENDMDL
MODEL 9
REMARK VINA RESULT:      -6.9      1.953      3.048
REMARK  0 active torsions:
REMARK  status: ('A' for Active; 'I' for Inactive)
ROOT
HETATM    1  N   UNK N   1      29.230  20.142  -9.479  0.00  0.00     0.084 N 
HETATM    2  N   UNK N   1      30.512  21.410  -4.926  0.00  0.00    -0.365 N 
ATOM      3  HN  UNK N   1      30.464  20.749  -5.702  1.00  0.00     0.165 HD
HETATM    4  C   UNK N   1      28.603  21.571  -7.077  0.00  0.00    -0.063 C 
HETATM    5  C   UNK N   1      27.651  21.552  -8.246  0.00  0.00     0.065 C 
HETATM    6  C   UNK N   1      29.518  20.371  -7.069  0.00  0.00     0.065 C 
HETATM    7  C   UNK N   1      28.454  21.383  -9.538  0.00  0.00     0.276 C 
HETATM    8  C   UNK N   1      30.223  20.256  -8.414  0.00  0.00     0.276 C 
HETATM    9  C   UNK N   1      28.600  22.555  -6.083  0.00  0.00     0.004 C 
HETATM   10  C   UNK N   1      27.556  23.691  -6.178  0.00  0.00    -0.017 A 
HETATM   11  C   UNK N   1      29.616  22.445  -4.914  0.00  0.00     0.049 A 
HETATM   12  C   UNK N   1      27.012  24.371  -5.052  0.00  0.00    -0.047 A 
HETATM   13  C   UNK N   1      27.442  24.089  -3.677  0.00  0.00     0.044 C 
HETATM   14  C   UNK N   1      28.864  24.537  -3.636  0.00  0.00     0.045 C 
HETATM   15  C   UNK N   1      29.723  23.357  -3.820  0.00  0.00    -0.030 A 
HETATM   16  C   UNK N   1      29.954  20.012 -10.730  0.00  0.00     0.309 C 
HETATM   17  C   UNK N   1      27.061  24.079  -7.444  0.00  0.00     0.013 A 
HETATM   18  C   UNK N   1      26.030  25.356  -5.211  0.00  0.00     0.008 A 
HETATM   19  C   UNK N   1      30.688  23.148  -2.831  0.00  0.00     0.011 A 
HETATM   20  C   UNK N   1      26.088  25.068  -7.594  0.00  0.00     0.001 A 
HETATM   21  C   UNK N   1      25.568  25.703  -6.475  0.00  0.00     0.001 A 
HETATM   22  C   UNK N   1      31.559  22.071  -2.903  0.00  0.00     0.018 A 
HETATM   23  C   UNK N   1      31.456  21.204  -3.976  0.00  0.00     0.088 A 
ENDROOT
TORSDOF 0
ENDMDL
