MODEL 1
REMARK VINA RESULT:      -4.8      0.000      0.000
REMARK  6 active torsions:
REMARK  status: ('A' for Active; 'I' for Inactive)
REMARK    1  A    between atoms: P_3  and  O_5 
REMARK    2  A    between atoms: P_3  and  O_6 
REMARK    3  A    between atoms: P_3  and  C_11 
REMARK    4  A    between atoms: P_4  and  O_7 
REMARK    5  A    between atoms: P_4  and  O_8 
REMARK    6  A    between atoms: P_4  and  C_11 
ROOT
HETATM    1 Cl   UNK N   1      35.350  15.135   7.344  0.00  0.00    -0.076 Cl
HETATM    2 Cl   UNK N   1      32.577  15.211   8.182  0.00  0.00    -0.076 Cl
HETATM    3  C   UNK N   1      34.175  15.962   8.391  0.00  0.00     0.305 C 
ENDROOT
BRANCH   3   4
HETATM    4  P   UNK N   1      34.078  17.755   7.892  0.00  0.00     0.288 P 
HETATM    5  O   UNK N   1      32.694  18.367   8.243  0.00  0.00    -0.651 OA
BRANCH   4   6
HETATM    6  O   UNK N   1      34.220  18.004   6.179  0.00  0.00    -0.327 OA
HETATM    7  H   UNK N   1      34.259  17.383   5.435  0.00  0.00     0.220 HD
ENDBRANCH   4   6
BRANCH   4   8
HETATM    8  O   UNK N   1      35.225  18.817   8.643  0.00  0.00    -0.327 OA
HETATM    9  H   UNK N   1      35.843  18.763   9.388  0.00  0.00     0.220 HD
ENDBRANCH   4   8
ENDBRANCH   3   4
BRANCH   3  10
HETATM   10  P   UNK N   1      34.708  15.772  10.168  0.00  0.00     0.288 P 
HETATM   11  O   UNK N   1      36.016  14.943  10.278  0.00  0.00    -0.651 OA
BRANCH  10  12
HETATM   12  O   UNK N   1      35.104  17.276  10.939  0.00  0.00    -0.327 OA
HETATM   13  H   UNK N   1      35.521  18.060  10.548  0.00  0.00     0.220 HD
ENDBRANCH  10  12
BRANCH  10  14
HETATM   14  O   UNK N   1      33.590  14.958  11.216  0.00  0.00    -0.327 OA
HETATM   15  H   UNK N   1      32.649  15.022  11.446  0.00  0.00     0.220 HD
ENDBRANCH  10  14
ENDBRANCH   3  10
TORSDOF 6
ENDMDL
MODEL 2
REMARK VINA RESULT:      -4.7      0.205      3.948
REMARK  6 active torsions:
REMARK  status: ('A' for Active; 'I' for Inactive)
REMARK    1  A    between atoms: P_3  and  O_5 
REMARK    2  A    between atoms: P_3  and  O_6 
REMARK    3  A    between atoms: P_3  and  C_11 
REMARK    4  A    between atoms: P_4  and  O_7 
REMARK    5  A    between atoms: P_4  and  O_8 
REMARK    6  A    between atoms: P_4  and  C_11 
ROOT
HETATM    1 Cl   UNK N   1      32.706  15.196   8.257  0.00  0.00    -0.076 Cl
HETATM    2 Cl   UNK N   1      35.440  15.224   7.296  0.00  0.00    -0.076 Cl
HETATM    3  C   UNK N   1      34.280  16.013   8.388  0.00  0.00     0.305 C 
ENDROOT
BRANCH   3   4
HETATM    4  P   UNK N   1      34.893  15.864  10.142  0.00  0.00     0.288 P 
HETATM    5  O   UNK N   1      35.169  17.260  10.766  0.00  0.00    -0.651 OA
BRANCH   4   6
HETATM    6  O   UNK N   1      36.417  15.042  10.275  0.00  0.00    -0.327 OA
HETATM    7  H   UNK N   1      36.941  14.542   9.630  0.00  0.00     0.220 HD
ENDBRANCH   4   6
BRANCH   4   8
HETATM    8  O   UNK N   1      33.816  15.093  11.262  0.00  0.00    -0.327 OA
HETATM    9  H   UNK N   1      33.067  14.481  11.201  0.00  0.00     0.220 HD
ENDBRANCH   4   8
ENDBRANCH   3   4
BRANCH   3  10
HETATM   10  P   UNK N   1      34.082  17.796   7.880  0.00  0.00     0.288 P 
HETATM   11  O   UNK N   1      34.210  17.960   6.341  0.00  0.00    -0.651 OA
BRANCH  10  12
HETATM   12  O   UNK N   1      32.515  18.451   8.238  0.00  0.00    -0.327 OA
HETATM   13  H   UNK N   1      31.648  18.028   8.132  0.00  0.00     0.220 HD
ENDBRANCH  10  12
BRANCH  10  14
HETATM   14  O   UNK N   1      35.244  18.908   8.532  0.00  0.00    -0.327 OA
HETATM   15  H   UNK N   1      35.353  19.437   9.337  0.00  0.00     0.220 HD
ENDBRANCH  10  14
ENDBRANCH   3  10
TORSDOF 6
ENDMDL
MODEL 3
REMARK VINA RESULT:      -4.7      0.115      3.982
REMARK  6 active torsions:
REMARK  status: ('A' for Active; 'I' for Inactive)
REMARK    1  A    between atoms: P_3  and  O_5 
REMARK    2  A    between atoms: P_3  and  O_6 
REMARK    3  A    between atoms: P_3  and  C_11 
REMARK    4  A    between atoms: P_4  and  O_7 
REMARK    5  A    between atoms: P_4  and  O_8 
REMARK    6  A    between atoms: P_4  and  C_11 
ROOT
HETATM    1 Cl   UNK N   1      32.623  15.130   8.102  0.00  0.00    -0.076 Cl
HETATM    2 Cl   UNK N   1      35.430  15.133   7.382  0.00  0.00    -0.076 Cl
HETATM    3  C   UNK N   1      34.188  15.927   8.377  0.00  0.00     0.305 C 
ENDROOT
BRANCH   3   4
HETATM    4  P   UNK N   1      34.644  15.755  10.176  0.00  0.00     0.288 P 
HETATM    5  O   UNK N   1      35.869  14.818  10.363  0.00  0.00    -0.651 OA
BRANCH   4   6
HETATM    6  O   UNK N   1      33.403  15.013  11.137  0.00  0.00    -0.327 OA
HETATM    7  H   UNK N   1      32.990  14.136  11.096  0.00  0.00     0.220 HD
ENDBRANCH   4   6
BRANCH   4   8
HETATM    8  O   UNK N   1      35.091  17.220  10.991  0.00  0.00    -0.327 OA
HETATM    9  H   UNK N   1      34.620  17.953  11.418  0.00  0.00     0.220 HD
ENDBRANCH   4   8
ENDBRANCH   3   4
BRANCH   3  10
HETATM   10  P   UNK N   1      34.055  17.716   7.870  0.00  0.00     0.288 P 
HETATM   11  O   UNK N   1      32.696  18.326   8.309  0.00  0.00    -0.651 OA
BRANCH  10  12
HETATM   12  O   UNK N   1      35.233  18.742   8.627  0.00  0.00    -0.327 OA
HETATM   13  H   UNK N   1      36.152  18.900   8.359  0.00  0.00     0.220 HD
ENDBRANCH  10  12
BRANCH  10  14
HETATM   14  O   UNK N   1      34.143  18.034   6.166  0.00  0.00    -0.327 OA
HETATM   15  H   UNK N   1      33.543  18.015   5.404  0.00  0.00     0.220 HD
ENDBRANCH  10  14
ENDBRANCH   3  10
TORSDOF 6
ENDMDL
MODEL 4
REMARK VINA RESULT:      -4.7      1.722      2.302
REMARK  6 active torsions:
REMARK  status: ('A' for Active; 'I' for Inactive)
REMARK    1  A    between atoms: P_3  and  O_5 
REMARK    2  A    between atoms: P_3  and  O_6 
REMARK    3  A    between atoms: P_3  and  C_11 
REMARK    4  A    between atoms: P_4  and  O_7 
REMARK    5  A    between atoms: P_4  and  O_8 
REMARK    6  A    between atoms: P_4  and  C_11 
ROOT
HETATM    1 Cl   UNK N   1      35.581  16.459  10.255  0.00  0.00    -0.076 Cl
HETATM    2 Cl   UNK N   1      35.362  15.158   7.674  0.00  0.00    -0.076 Cl
HETATM    3  C   UNK N   1      34.539  16.228   8.832  0.00  0.00     0.305 C 
ENDROOT
BRANCH   3   4
HETATM    4  P   UNK N   1      34.240  17.883   8.030  0.00  0.00     0.288 P 
HETATM    5  O   UNK N   1      32.811  18.411   8.337  0.00  0.00    -0.651 OA
BRANCH   4   6
HETATM    6  O   UNK N   1      34.299  17.832   6.295  0.00  0.00    -0.327 OA
HETATM    7  H   UNK N   1      33.761  18.266   5.615  0.00  0.00     0.220 HD
ENDBRANCH   4   6
BRANCH   4   8
HETATM    8  O   UNK N   1      35.293  19.171   8.523  0.00  0.00    -0.327 OA
HETATM    9  H   UNK N   1      35.250  20.139   8.543  0.00  0.00     0.220 HD
ENDBRANCH   4   8
ENDBRANCH   3   4
BRANCH   3  10
HETATM   10  P   UNK N   1      32.944  15.428   9.372  0.00  0.00     0.288 P 
HETATM   11  O   UNK N   1      32.683  14.110   8.594  0.00  0.00    -0.651 OA
BRANCH  10  12
HETATM   12  O   UNK N   1      32.943  14.934  11.036  0.00  0.00    -0.327 OA
HETATM   13  H   UNK N   1      32.499  15.357  11.788  0.00  0.00     0.220 HD
ENDBRANCH  10  12
BRANCH  10  14
HETATM   14  O   UNK N   1      31.503  16.365   9.133  0.00  0.00    -0.327 OA
HETATM   15  H   UNK N   1      30.896  16.568   8.404  0.00  0.00     0.220 HD
ENDBRANCH  10  14
ENDBRANCH   3  10
TORSDOF 6
ENDMDL
MODEL 5
REMARK VINA RESULT:      -4.4      1.412      4.056
REMARK  6 active torsions:
REMARK  status: ('A' for Active; 'I' for Inactive)
REMARK    1  A    between atoms: P_3  and  O_5 
REMARK    2  A    between atoms: P_3  and  O_6 
REMARK    3  A    between atoms: P_3  and  C_11 
REMARK    4  A    between atoms: P_4  and  O_7 
REMARK    5  A    between atoms: P_4  and  O_8 
REMARK    6  A    between atoms: P_4  and  C_11 
ROOT
HETATM    1 Cl   UNK N   1      31.536  16.710   8.668  0.00  0.00    -0.076 Cl
HETATM    2 Cl   UNK N   1      32.756  14.351   7.510  0.00  0.00    -0.076 Cl
HETATM    3  C   UNK N   1      33.078  15.951   8.215  0.00  0.00     0.305 C 
ENDROOT
BRANCH   3   4
HETATM    4  P   UNK N   1      34.121  15.745   9.746  0.00  0.00     0.288 P 
HETATM    5  O   UNK N   1      35.334  14.811   9.484  0.00  0.00    -0.651 OA
BRANCH   4   6
HETATM    6  O   UNK N   1      33.282  14.977  11.058  0.00  0.00    -0.327 OA
HETATM    7  H   UNK N   1      33.461  14.944  12.010  0.00  0.00     0.220 HD
ENDBRANCH   4   6
BRANCH   4   8
HETATM    8  O   UNK N   1      34.823  17.196  10.390  0.00  0.00    -0.327 OA
HETATM    9  H   UNK N   1      35.690  17.458  10.736  0.00  0.00     0.220 HD
ENDBRANCH   4   8
ENDBRANCH   3   4
BRANCH   3  10
HETATM   10  P   UNK N   1      33.929  17.017   6.944  0.00  0.00     0.288 P 
HETATM   11  O   UNK N   1      35.039  16.227   6.199  0.00  0.00    -0.651 OA
BRANCH  10  12
HETATM   12  O   UNK N   1      32.877  17.554   5.672  0.00  0.00    -0.327 OA
HETATM   13  H   UNK N   1      32.706  17.132   4.815  0.00  0.00     0.220 HD
ENDBRANCH  10  12
BRANCH  10  14
HETATM   14  O   UNK N   1      34.735  18.429   7.550  0.00  0.00    -0.327 OA
HETATM   15  H   UNK N   1      35.635  18.791   7.556  0.00  0.00     0.220 HD
ENDBRANCH  10  14
ENDBRANCH   3  10
TORSDOF 6
ENDMDL
MODEL 6
REMARK VINA RESULT:      -4.4      1.443      1.863
REMARK  6 active torsions:
REMARK  status: ('A' for Active; 'I' for Inactive)
REMARK    1  A    between atoms: P_3  and  O_5 
REMARK    2  A    between atoms: P_3  and  O_6 
REMARK    3  A    between atoms: P_3  and  C_11 
REMARK    4  A    between atoms: P_4  and  O_7 
REMARK    5  A    between atoms: P_4  and  O_8 
REMARK    6  A    between atoms: P_4  and  C_11 
ROOT
HETATM    1 Cl   UNK N   1      32.697  14.331   7.535  0.00  0.00    -0.076 Cl
HETATM    2 Cl   UNK N   1      31.588  16.794   8.582  0.00  0.00    -0.076 Cl
HETATM    3  C   UNK N   1      33.093  15.949   8.157  0.00  0.00     0.305 C 
ENDROOT
BRANCH   3   4
HETATM    4  P   UNK N   1      33.976  16.908   6.824  0.00  0.00     0.288 P 
HETATM    5  O   UNK N   1      34.659  18.179   7.399  0.00  0.00    -0.651 OA
BRANCH   4   6
HETATM    6  O   UNK N   1      32.915  17.525   5.597  0.00  0.00    -0.327 OA
HETATM    7  H   UNK N   1      32.921  17.438   4.631  0.00  0.00     0.220 HD
ENDBRANCH   4   6
BRANCH   4   8
HETATM    8  O   UNK N   1      35.250  16.067   5.999  0.00  0.00    -0.327 OA
HETATM    9  H   UNK N   1      36.095  15.662   6.247  0.00  0.00     0.220 HD
ENDBRANCH   4   8
ENDBRANCH   3   4
BRANCH   3  10
HETATM   10  P   UNK N   1      34.145  15.771   9.686  0.00  0.00     0.288 P 
HETATM   11  O   UNK N   1      35.423  14.940   9.396  0.00  0.00    -0.651 OA
BRANCH  10  12
HETATM   12  O   UNK N   1      34.758  17.280  10.286  0.00  0.00    -0.327 OA
HETATM   13  H   UNK N   1      35.627  17.682  10.126  0.00  0.00     0.220 HD
ENDBRANCH  10  12
BRANCH  10  14
HETATM   14  O   UNK N   1      33.401  14.968  11.032  0.00  0.00    -0.327 OA
HETATM   15  H   UNK N   1      33.101  14.072  11.253  0.00  0.00     0.220 HD
ENDBRANCH  10  14
ENDBRANCH   3  10
TORSDOF 6
ENDMDL
MODEL 7
REMARK VINA RESULT:      -4.3      3.003      5.289
REMARK  6 active torsions:
REMARK  status: ('A' for Active; 'I' for Inactive)
REMARK    1  A    between atoms: P_3  and  O_5 
REMARK    2  A    between atoms: P_3  and  O_6 
REMARK    3  A    between atoms: P_3  and  C_11 
REMARK    4  A    between atoms: P_4  and  O_7 
REMARK    5  A    between atoms: P_4  and  O_8 
REMARK    6  A    between atoms: P_4  and  C_11 
ROOT
HETATM    1 Cl   UNK N   1      35.029  12.380  10.421  0.00  0.00    -0.076 Cl
HETATM    2 Cl   UNK N   1      37.304  14.141  10.072  0.00  0.00    -0.076 Cl
HETATM    3  C   UNK N   1      35.771  13.909  10.943  0.00  0.00     0.305 C 
ENDROOT
BRANCH   3   4
HETATM    4  P   UNK N   1      36.115  13.818  12.773  0.00  0.00     0.288 P 
HETATM    5  O   UNK N   1      34.854  13.375  13.565  0.00  0.00    -0.651 OA
BRANCH   4   6
HETATM    6  O   UNK N   1      36.529  15.351  13.476  0.00  0.00    -0.327 OA
HETATM    7  H   UNK N   1      36.014  15.984  13.999  0.00  0.00     0.220 HD
ENDBRANCH   4   6
BRANCH   4   8
HETATM    8  O   UNK N   1      37.349  12.701  13.261  0.00  0.00    -0.327 OA
HETATM    9  H   UNK N   1      37.373  11.804  13.629  0.00  0.00     0.220 HD
ENDBRANCH   4   8
ENDBRANCH   3   4
BRANCH   3  10
HETATM   10  P   UNK N   1      34.618  15.315  10.531  0.00  0.00     0.288 P 
HETATM   11  O   UNK N   1      34.502  15.516   8.995  0.00  0.00    -0.651 OA
BRANCH  10  12
HETATM   12  O   UNK N   1      32.981  15.042  11.038  0.00  0.00    -0.327 OA
HETATM   13  H   UNK N   1      32.432  15.593  11.618  0.00  0.00     0.220 HD
ENDBRANCH  10  12
BRANCH  10  14
HETATM   14  O   UNK N   1      35.072  16.875  11.139  0.00  0.00    -0.327 OA
HETATM   15  H   UNK N   1      34.908  17.805  10.914  0.00  0.00     0.220 HD
ENDBRANCH  10  14
ENDBRANCH   3  10
TORSDOF 6
ENDMDL
MODEL 8
REMARK VINA RESULT:      -4.2     10.959     12.409
REMARK  6 active torsions:
REMARK  status: ('A' for Active; 'I' for Inactive)
REMARK    1  A    between atoms: P_3  and  O_5 
REMARK    2  A    between atoms: P_3  and  O_6 
REMARK    3  A    between atoms: P_3  and  C_11 
REMARK    4  A    between atoms: P_4  and  O_7 
REMARK    5  A    between atoms: P_4  and  O_8 
REMARK    6  A    between atoms: P_4  and  C_11 
ROOT
HETATM    1 Cl   UNK N   1      43.734  20.693   1.126  0.00  0.00    -0.076 Cl
HETATM    2 Cl   UNK N   1      42.587  20.496   3.779  0.00  0.00    -0.076 Cl
HETATM    3  C   UNK N   1      42.952  21.604   2.437  0.00  0.00     0.305 C 
ENDROOT
BRANCH   3   4
HETATM    4  P   UNK N   1      41.361  22.335   1.798  0.00  0.00     0.288 P 
HETATM    5  O   UNK N   1      41.191  22.078   0.276  0.00  0.00    -0.651 OA
BRANCH   4   6
HETATM    6  O   UNK N   1      41.289  24.064   1.938  0.00  0.00    -0.327 OA
HETATM    7  H   UNK N   1      41.695  24.774   1.416  0.00  0.00     0.220 HD
ENDBRANCH   4   6
BRANCH   4   8
HETATM    8  O   UNK N   1      39.901  21.721   2.507  0.00  0.00    -0.327 OA
HETATM    9  H   UNK N   1      39.467  21.779   3.372  0.00  0.00     0.220 HD
ENDBRANCH   4   8
ENDBRANCH   3   4
BRANCH   3  10
HETATM   10  P   UNK N   1      44.121  22.925   3.040  0.00  0.00     0.288 P 
HETATM   11  O   UNK N   1      44.553  23.865   1.882  0.00  0.00    -0.651 OA
BRANCH  10  12
HETATM   12  O   UNK N   1      43.414  23.999   4.206  0.00  0.00    -0.327 OA
HETATM   13  H   UNK N   1      43.034  24.880   4.059  0.00  0.00     0.220 HD
ENDBRANCH  10  12
BRANCH  10  14
HETATM   14  O   UNK N   1      45.615  22.366   3.724  0.00  0.00    -0.327 OA
HETATM   15  H   UNK N   1      46.033  22.335   4.598  0.00  0.00     0.220 HD
ENDBRANCH  10  14
ENDBRANCH   3  10
TORSDOF 6
ENDMDL
MODEL 9
REMARK VINA RESULT:      -4.2     18.088     18.838
REMARK  6 active torsions:
REMARK  status: ('A' for Active; 'I' for Inactive)
REMARK    1  A    between atoms: P_3  and  O_5 
REMARK    2  A    between atoms: P_3  and  O_6 
REMARK    3  A    between atoms: P_3  and  C_11 
REMARK    4  A    between atoms: P_4  and  O_7 
REMARK    5  A    between atoms: P_4  and  O_8 
REMARK    6  A    between atoms: P_4  and  C_11 
ROOT
HETATM    1 Cl   UNK N   1      27.072  27.575  -6.608  0.00  0.00    -0.076 Cl
HETATM    2 Cl   UNK N   1      24.353  27.310  -5.641  0.00  0.00    -0.076 Cl
HETATM    3  C   UNK N   1      26.066  27.044  -5.242  0.00  0.00     0.305 C 
ENDROOT
BRANCH   3   4
HETATM    4  P   UNK N   1      26.507  28.054  -3.739  0.00  0.00     0.288 P 
HETATM    5  O   UNK N   1      25.863  27.467  -2.453  0.00  0.00    -0.651 OA
BRANCH   4   6
HETATM    6  O   UNK N   1      25.906  29.682  -3.799  0.00  0.00    -0.327 OA
HETATM    7  H   UNK N   1      25.665  30.309  -3.100  0.00  0.00     0.220 HD
ENDBRANCH   4   6
BRANCH   4   8
HETATM    8  O   UNK N   1      28.198  28.164  -3.366  0.00  0.00    -0.327 OA
HETATM    9  H   UNK N   1      28.973  27.590  -3.462  0.00  0.00     0.220 HD
ENDBRANCH   4   8
ENDBRANCH   3   4
BRANCH   3  10
HETATM   10  P   UNK N   1      26.347  25.224  -4.953  0.00  0.00     0.288 P 
HETATM   11  O   UNK N   1      27.751  24.786  -5.449  0.00  0.00    -0.651 OA
BRANCH  10  12
HETATM   12  O   UNK N   1      26.342  24.778  -3.276  0.00  0.00    -0.327 OA
HETATM   13  H   UNK N   1      27.016  24.964  -2.602  0.00  0.00     0.220 HD
ENDBRANCH  10  12
BRANCH  10  14
HETATM   14  O   UNK N   1      25.248  24.146  -5.755  0.00  0.00    -0.327 OA
HETATM   15  H   UNK N   1      24.637  23.435  -5.507  0.00  0.00     0.220 HD
ENDBRANCH  10  14
ENDBRANCH   3  10
TORSDOF 6
ENDMDL
