REMARK  8 active torsions:
REMARK  status: ('A' for Active; 'I' for Inactive)
REMARK    1  A    between atoms: O_1  and  C_8 
REMARK    2  A    between atoms: O_1  and  C_11 
REMARK    3  A    between atoms: N_3  and  C_5 
REMARK    4  A    between atoms: N_3  and  C_6 
REMARK    5  A    between atoms: N_3  and  C_7 
REMARK    6  A    between atoms: N_4  and  C_15 
REMARK    7  A    between atoms: C_5  and  C_8 
REMARK    8  A    between atoms: C_11  and  C_12 
ROOT
HETATM    1  O   UNK N   1       0.494   0.827  -0.088  0.00  0.00    -0.259 OA
HETATM    2  C   UNK N   1       1.636   0.397  -0.016  0.00  0.00     0.293 C 
ENDROOT
BRANCH   2   3
HETATM    3  O   UNK N   1       2.649   1.303   0.010  0.00  0.00    -0.316 OA
BRANCH   3   4
HETATM    4  C   UNK N   1       3.982   1.054   0.247  0.00  0.00     0.209 C 
BRANCH   4   5
HETATM    5  C   UNK N   1       4.837   2.166  -0.367  0.00  0.00     0.299 C 
BRANCH   5   6
HETATM    6  N   UNK N   1       4.477   3.492   0.134  0.00  0.00     0.089 N 
BRANCH   6   7
HETATM    7  C   UNK N   1       5.594   4.366  -0.210  0.00  0.00     0.268 C 
HETATM    8  C   UNK N   1       5.452   5.735   0.440  0.00  0.00     0.037 C 
ENDBRANCH   6   7
BRANCH   6   9
HETATM    9  C   UNK N   1       3.314   3.950  -0.622  0.00  0.00     0.268 C 
HETATM   10  C   UNK N   1       2.403   4.774   0.270  0.00  0.00     0.037 C 
ENDBRANCH   6   9
ENDBRANCH   5   6
ENDBRANCH   4   5
ENDBRANCH   3   4
ENDBRANCH   2   3
BRANCH   2  11
HETATM   11  C   UNK N   1       1.831  -1.083   0.016  0.00  0.00     0.039 A 
HETATM   12  C   UNK N   1       3.105  -1.675   0.009  0.00  0.00     0.020 A 
HETATM   13  C   UNK N   1       3.240  -3.068   0.020  0.00  0.00     0.030 A 
HETATM   14  C   UNK N   1       2.104  -3.882   0.037  0.00  0.00     0.025 A 
HETATM   15  C   UNK N   1       0.834  -3.305   0.043  0.00  0.00     0.030 A 
HETATM   16  C   UNK N   1       0.700  -1.916   0.030  0.00  0.00     0.020 A 
BRANCH  14  17
HETATM   17  N   UNK N   1       2.239  -5.284   0.047  0.00  0.00    -0.399 N 
HETATM   18  H   UNK N   1       1.438  -5.856   0.053  0.00  0.00     0.156 HD
HETATM   19  H   UNK N   1       3.135  -5.692   0.047  0.00  0.00     0.156 HD
ENDBRANCH  14  17
ENDBRANCH   2  11
TORSDOF 8
