MODEL 1
REMARK VINA RESULT:      -4.8      0.000      0.000
REMARK  8 active torsions:
REMARK  status: ('A' for Active; 'I' for Inactive)
REMARK    1  A    between atoms: O_1  and  C_8 
REMARK    2  A    between atoms: O_1  and  C_11 
REMARK    3  A    between atoms: N_3  and  C_5 
REMARK    4  A    between atoms: N_3  and  C_6 
REMARK    5  A    between atoms: N_3  and  C_7 
REMARK    6  A    between atoms: N_4  and  C_15 
REMARK    7  A    between atoms: C_5  and  C_8 
REMARK    8  A    between atoms: C_11  and  C_12 
ROOT
HETATM    1  O   UNK N   1      35.333  19.204   8.466  0.00  0.00    -0.259 OA
HETATM    2  C   UNK N   1      34.714  18.178   8.710  0.00  0.00     0.293 C 
ENDROOT
BRANCH   2   3
HETATM    3  O   UNK N   1      35.140  17.420   9.755  0.00  0.00    -0.316 OA
BRANCH   3   4
HETATM    4  C   UNK N   1      35.414  16.071   9.746  0.00  0.00     0.209 C 
BRANCH   4   5
HETATM    5  C   UNK N   1      34.308  15.310  10.483  0.00  0.00     0.299 C 
BRANCH   5   6
HETATM    6  N   UNK N   1      34.087  13.972   9.936  0.00  0.00     0.089 N 
BRANCH   6   7
HETATM    7  C   UNK N   1      34.141  14.119   8.485  0.00  0.00     0.268 C 
HETATM    8  C   UNK N   1      32.751  14.056   7.866  0.00  0.00     0.037 C 
ENDBRANCH   6   7
BRANCH   6   9
HETATM    9  C   UNK N   1      35.220  13.139  10.333  0.00  0.00     0.268 C 
HETATM   10  C   UNK N   1      35.701  12.315   9.152  0.00  0.00     0.037 C 
ENDBRANCH   6   9
ENDBRANCH   5   6
ENDBRANCH   4   5
ENDBRANCH   3   4
ENDBRANCH   2   3
BRANCH   2  11
HETATM   11  C   UNK N   1      33.558  17.827   7.832  0.00  0.00     0.039 A 
HETATM   12  C   UNK N   1      32.241  17.756   8.315  0.00  0.00     0.020 A 
HETATM   13  C   UNK N   1      31.190  17.404   7.460  0.00  0.00     0.030 A 
HETATM   14  C   UNK N   1      31.446  17.118   6.116  0.00  0.00     0.025 A 
HETATM   15  C   UNK N   1      32.751  17.184   5.626  0.00  0.00     0.030 A 
HETATM   16  C   UNK N   1      33.798  17.533   6.480  0.00  0.00     0.020 A 
BRANCH  14  17
HETATM   17  N   UNK N   1      30.390  16.762   5.255  0.00  0.00    -0.399 N 
HETATM   18  H   UNK N   1      30.476  16.903   4.285  0.00  0.00     0.156 HD
HETATM   19  H   UNK N   1      29.564  16.372   5.624  0.00  0.00     0.156 HD
ENDBRANCH  14  17
ENDBRANCH   2  11
TORSDOF 8
ENDMDL
MODEL 2
REMARK VINA RESULT:      -4.8      5.896      9.319
REMARK  8 active torsions:
REMARK  status: ('A' for Active; 'I' for Inactive)
REMARK    1  A    between atoms: O_1  and  C_8 
REMARK    2  A    between atoms: O_1  and  C_11 
REMARK    3  A    between atoms: N_3  and  C_5 
REMARK    4  A    between atoms: N_3  and  C_6 
REMARK    5  A    between atoms: N_3  and  C_7 
REMARK    6  A    between atoms: N_4  and  C_15 
REMARK    7  A    between atoms: C_5  and  C_8 
REMARK    8  A    between atoms: C_11  and  C_12 
ROOT
HETATM    1  O   UNK N   1      35.143  11.113  14.192  0.00  0.00    -0.259 OA
HETATM    2  C   UNK N   1      35.045  12.217  14.708  0.00  0.00     0.293 C 
ENDROOT
BRANCH   2   3
HETATM    3  O   UNK N   1      34.860  13.282  13.883  0.00  0.00    -0.316 OA
BRANCH   3   4
HETATM    4  C   UNK N   1      35.820  13.946  13.154  0.00  0.00     0.209 C 
BRANCH   4   5
HETATM    5  C   UNK N   1      35.183  14.596  11.923  0.00  0.00     0.299 C 
BRANCH   5   6
HETATM    6  N   UNK N   1      36.130  15.413  11.166  0.00  0.00     0.089 N 
BRANCH   6   7
HETATM    7  C   UNK N   1      36.400  14.676   9.936  0.00  0.00     0.268 C 
HETATM    8  C   UNK N   1      37.847  14.206   9.873  0.00  0.00     0.037 C 
ENDBRANCH   6   7
BRANCH   6   9
HETATM    9  C   UNK N   1      35.448  16.650  10.793  0.00  0.00     0.268 C 
HETATM   10  C   UNK N   1      34.597  16.425   9.557  0.00  0.00     0.037 C 
ENDBRANCH   6   9
ENDBRANCH   5   6
ENDBRANCH   4   5
ENDBRANCH   3   4
ENDBRANCH   2   3
BRANCH   2  11
HETATM   11  C   UNK N   1      35.158  12.314  16.193  0.00  0.00     0.039 A 
HETATM   12  C   UNK N   1      35.302  11.182  17.013  0.00  0.00     0.020 A 
HETATM   13  C   UNK N   1      35.384  11.319  18.403  0.00  0.00     0.030 A 
HETATM   14  C   UNK N   1      35.322  12.587  18.988  0.00  0.00     0.025 A 
HETATM   15  C   UNK N   1      35.178  13.718  18.183  0.00  0.00     0.030 A 
HETATM   16  C   UNK N   1      35.094  13.581  16.797  0.00  0.00     0.020 A 
BRANCH  14  17
HETATM   17  N   UNK N   1      35.403  12.726  20.387  0.00  0.00    -0.399 N 
HETATM   18  H   UNK N   1      36.182  13.170  20.793  0.00  0.00     0.156 HD
HETATM   19  H   UNK N   1      34.681  12.379  20.959  0.00  0.00     0.156 HD
ENDBRANCH  14  17
ENDBRANCH   2  11
TORSDOF 8
ENDMDL
MODEL 3
REMARK VINA RESULT:      -4.8      1.049      2.148
REMARK  8 active torsions:
REMARK  status: ('A' for Active; 'I' for Inactive)
REMARK    1  A    between atoms: O_1  and  C_8 
REMARK    2  A    between atoms: O_1  and  C_11 
REMARK    3  A    between atoms: N_3  and  C_5 
REMARK    4  A    between atoms: N_3  and  C_6 
REMARK    5  A    between atoms: N_3  and  C_7 
REMARK    6  A    between atoms: N_4  and  C_15 
REMARK    7  A    between atoms: C_5  and  C_8 
REMARK    8  A    between atoms: C_11  and  C_12 
ROOT
HETATM    1  O   UNK N   1      35.195  19.062   8.312  0.00  0.00    -0.259 OA
HETATM    2  C   UNK N   1      34.420  18.152   8.567  0.00  0.00     0.293 C 
ENDROOT
BRANCH   2   3
HETATM    3  O   UNK N   1      34.520  17.563   9.788  0.00  0.00    -0.316 OA
BRANCH   3   4
HETATM    4  C   UNK N   1      35.427  16.603  10.177  0.00  0.00     0.209 C 
BRANCH   4   5
HETATM    5  C   UNK N   1      35.316  15.380   9.263  0.00  0.00     0.299 C 
BRANCH   5   6
HETATM    6  N   UNK N   1      34.569  14.284   9.880  0.00  0.00     0.089 N 
BRANCH   6   7
HETATM    7  C   UNK N   1      34.563  14.562  11.313  0.00  0.00     0.268 C 
HETATM    8  C   UNK N   1      35.025  13.356  12.117  0.00  0.00     0.037 C 
ENDBRANCH   6   7
BRANCH   6   9
HETATM    9  C   UNK N   1      33.188  14.371   9.411  0.00  0.00     0.268 C 
HETATM   10  C   UNK N   1      33.114  14.014   7.938  0.00  0.00     0.037 C 
ENDBRANCH   6   9
ENDBRANCH   5   6
ENDBRANCH   4   5
ENDBRANCH   3   4
ENDBRANCH   2   3
BRANCH   2  11
HETATM   11  C   UNK N   1      33.442  17.744   7.515  0.00  0.00     0.039 A 
HETATM   12  C   UNK N   1      33.812  17.562   6.172  0.00  0.00     0.020 A 
HETATM   13  C   UNK N   1      32.857  17.198   5.216  0.00  0.00     0.030 A 
HETATM   14  C   UNK N   1      31.523  17.016   5.592  0.00  0.00     0.025 A 
HETATM   15  C   UNK N   1      31.144  17.196   6.922  0.00  0.00     0.030 A 
HETATM   16  C   UNK N   1      32.096  17.560   7.875  0.00  0.00     0.020 A 
BRANCH  14  17
HETATM   17  N   UNK N   1      30.561  16.651   4.630  0.00  0.00    -0.399 N 
HETATM   18  H   UNK N   1      30.648  15.799   4.145  0.00  0.00     0.156 HD
HETATM   19  H   UNK N   1      29.801  17.249   4.443  0.00  0.00     0.156 HD
ENDBRANCH  14  17
ENDBRANCH   2  11
TORSDOF 8
ENDMDL
MODEL 4
REMARK VINA RESULT:      -4.7      6.020      9.427
REMARK  8 active torsions:
REMARK  status: ('A' for Active; 'I' for Inactive)
REMARK    1  A    between atoms: O_1  and  C_8 
REMARK    2  A    between atoms: O_1  and  C_11 
REMARK    3  A    between atoms: N_3  and  C_5 
REMARK    4  A    between atoms: N_3  and  C_6 
REMARK    5  A    between atoms: N_3  and  C_7 
REMARK    6  A    between atoms: N_4  and  C_15 
REMARK    7  A    between atoms: C_5  and  C_8 
REMARK    8  A    between atoms: C_11  and  C_12 
ROOT
HETATM    1  O   UNK N   1      36.866  13.934  14.914  0.00  0.00    -0.259 OA
HETATM    2  C   UNK N   1      35.801  13.399  15.187  0.00  0.00     0.293 C 
ENDROOT
BRANCH   2   3
HETATM    3  O   UNK N   1      34.867  13.318  14.203  0.00  0.00    -0.316 OA
BRANCH   3   4
HETATM    4  C   UNK N   1      35.029  12.781  12.946  0.00  0.00     0.209 C 
BRANCH   4   5
HETATM    5  C   UNK N   1      35.098  13.903  11.905  0.00  0.00     0.299 C 
BRANCH   5   6
HETATM    6  N   UNK N   1      36.472  14.236  11.531  0.00  0.00     0.089 N 
BRANCH   6   7
HETATM    7  C   UNK N   1      37.172  12.961  11.404  0.00  0.00     0.268 C 
HETATM    8  C   UNK N   1      38.445  13.103  10.583  0.00  0.00     0.037 C 
ENDBRANCH   6   7
BRANCH   6   9
HETATM    9  C   UNK N   1      36.433  14.847  10.204  0.00  0.00     0.268 C 
HETATM   10  C   UNK N   1      35.031  15.342   9.899  0.00  0.00     0.037 C 
ENDBRANCH   6   9
ENDBRANCH   5   6
ENDBRANCH   4   5
ENDBRANCH   3   4
ENDBRANCH   2   3
BRANCH   2  11
HETATM   11  C   UNK N   1      35.601  12.898  16.580  0.00  0.00     0.039 A 
HETATM   12  C   UNK N   1      35.294  13.754  17.651  0.00  0.00     0.020 A 
HETATM   13  C   UNK N   1      35.134  13.243  18.944  0.00  0.00     0.030 A 
HETATM   14  C   UNK N   1      35.280  11.873  19.179  0.00  0.00     0.025 A 
HETATM   15  C   UNK N   1      35.585  11.014  18.123  0.00  0.00     0.030 A 
HETATM   16  C   UNK N   1      35.747  11.525  16.834  0.00  0.00     0.020 A 
BRANCH  14  17
HETATM   17  N   UNK N   1      35.120  11.357  20.480  0.00  0.00    -0.399 N 
HETATM   18  H   UNK N   1      34.285  11.521  20.975  0.00  0.00     0.156 HD
HETATM   19  H   UNK N   1      35.843  10.833  20.893  0.00  0.00     0.156 HD
ENDBRANCH  14  17
ENDBRANCH   2  11
TORSDOF 8
ENDMDL
MODEL 5
REMARK VINA RESULT:      -4.7      6.391      9.671
REMARK  8 active torsions:
REMARK  status: ('A' for Active; 'I' for Inactive)
REMARK    1  A    between atoms: O_1  and  C_8 
REMARK    2  A    between atoms: O_1  and  C_11 
REMARK    3  A    between atoms: N_3  and  C_5 
REMARK    4  A    between atoms: N_3  and  C_6 
REMARK    5  A    between atoms: N_3  and  C_7 
REMARK    6  A    between atoms: N_4  and  C_15 
REMARK    7  A    between atoms: C_5  and  C_8 
REMARK    8  A    between atoms: C_11  and  C_12 
ROOT
HETATM    1  O   UNK N   1      34.192  11.211  14.401  0.00  0.00    -0.259 OA
HETATM    2  C   UNK N   1      34.558  12.280  14.867  0.00  0.00     0.293 C 
ENDROOT
BRANCH   2   3
HETATM    3  O   UNK N   1      34.691  13.327  14.010  0.00  0.00    -0.316 OA
BRANCH   3   4
HETATM    4  C   UNK N   1      35.860  13.827  13.482  0.00  0.00     0.209 C 
BRANCH   4   5
HETATM    5  C   UNK N   1      36.225  13.061  12.207  0.00  0.00     0.299 C 
BRANCH   5   6
HETATM    6  N   UNK N   1      37.568  12.486  12.264  0.00  0.00     0.089 N 
BRANCH   6   7
HETATM    7  C   UNK N   1      37.406  11.146  12.819  0.00  0.00     0.268 C 
HETATM    8  C   UNK N   1      38.018  11.040  14.209  0.00  0.00     0.037 C 
ENDBRANCH   6   7
BRANCH   6   9
HETATM    9  C   UNK N   1      38.044  12.336  10.891  0.00  0.00     0.268 C 
HETATM   10  C   UNK N   1      37.927  13.656  10.151  0.00  0.00     0.037 C 
ENDBRANCH   6   9
ENDBRANCH   5   6
ENDBRANCH   4   5
ENDBRANCH   3   4
ENDBRANCH   2   3
BRANCH   2  11
HETATM   11  C   UNK N   1      34.851  12.348  16.329  0.00  0.00     0.039 A 
HETATM   12  C   UNK N   1      34.864  13.561  17.038  0.00  0.00     0.020 A 
HETATM   13  C   UNK N   1      35.163  13.580  18.405  0.00  0.00     0.030 A 
HETATM   14  C   UNK N   1      35.453  12.388  19.076  0.00  0.00     0.025 A 
HETATM   15  C   UNK N   1      35.444  11.179  18.381  0.00  0.00     0.030 A 
HETATM   16  C   UNK N   1      35.148  11.161  17.018  0.00  0.00     0.020 A 
BRANCH  14  17
HETATM   17  N   UNK N   1      35.755  12.407  20.452  0.00  0.00    -0.399 N 
HETATM   18  H   UNK N   1      36.644  12.121  20.765  0.00  0.00     0.156 HD
HETATM   19  H   UNK N   1      35.078  12.706  21.100  0.00  0.00     0.156 HD
ENDBRANCH  14  17
ENDBRANCH   2  11
TORSDOF 8
ENDMDL
MODEL 6
REMARK VINA RESULT:      -4.6     12.908     15.791
REMARK  8 active torsions:
REMARK  status: ('A' for Active; 'I' for Inactive)
REMARK    1  A    between atoms: O_1  and  C_8 
REMARK    2  A    between atoms: O_1  and  C_11 
REMARK    3  A    between atoms: N_3  and  C_5 
REMARK    4  A    between atoms: N_3  and  C_6 
REMARK    5  A    between atoms: N_3  and  C_7 
REMARK    6  A    between atoms: N_4  and  C_15 
REMARK    7  A    between atoms: C_5  and  C_8 
REMARK    8  A    between atoms: C_11  and  C_12 
ROOT
HETATM    1  O   UNK N   1      30.421  23.086  -1.334  0.00  0.00    -0.259 OA
HETATM    2  C   UNK N   1      30.057  22.743  -2.450  0.00  0.00     0.293 C 
ENDROOT
BRANCH   2   3
HETATM    3  O   UNK N   1      28.846  23.186  -2.880  0.00  0.00    -0.316 OA
BRANCH   3   4
HETATM    4  C   UNK N   1      28.589  24.315  -3.624  0.00  0.00     0.209 C 
BRANCH   4   5
HETATM    5  C   UNK N   1      27.078  24.547  -3.714  0.00  0.00     0.299 C 
BRANCH   5   6
HETATM    6  N   UNK N   1      26.743  25.816  -4.359  0.00  0.00     0.089 N 
BRANCH   6   7
HETATM    7  C   UNK N   1      25.587  25.542  -5.206  0.00  0.00     0.268 C 
HETATM    8  C   UNK N   1      25.337  26.673  -6.193  0.00  0.00     0.037 C 
ENDBRANCH   6   7
BRANCH   6   9
HETATM    9  C   UNK N   1      26.310  26.742  -3.314  0.00  0.00     0.268 C 
HETATM   10  C   UNK N   1      27.189  27.980  -3.317  0.00  0.00     0.037 C 
ENDBRANCH   6   9
ENDBRANCH   5   6
ENDBRANCH   4   5
ENDBRANCH   3   4
ENDBRANCH   2   3
BRANCH   2  11
HETATM   11  C   UNK N   1      30.957  21.853  -3.242  0.00  0.00     0.039 A 
HETATM   12  C   UNK N   1      30.511  21.141  -4.368  0.00  0.00     0.020 A 
HETATM   13  C   UNK N   1      31.385  20.302  -5.069  0.00  0.00     0.030 A 
HETATM   14  C   UNK N   1      32.712  20.166  -4.651  0.00  0.00     0.025 A 
HETATM   15  C   UNK N   1      33.165  20.868  -3.534  0.00  0.00     0.030 A 
HETATM   16  C   UNK N   1      32.293  21.703  -2.834  0.00  0.00     0.020 A 
BRANCH  14  17
HETATM   17  N   UNK N   1      33.592  19.322  -5.355  0.00  0.00    -0.399 N 
HETATM   18  H   UNK N   1      33.265  18.471  -5.728  0.00  0.00     0.156 HD
HETATM   19  H   UNK N   1      34.533  19.583  -5.476  0.00  0.00     0.156 HD
ENDBRANCH  14  17
ENDBRANCH   2  11
TORSDOF 8
ENDMDL
MODEL 7
REMARK VINA RESULT:      -4.5      6.585     10.008
REMARK  8 active torsions:
REMARK  status: ('A' for Active; 'I' for Inactive)
REMARK    1  A    between atoms: O_1  and  C_8 
REMARK    2  A    between atoms: O_1  and  C_11 
REMARK    3  A    between atoms: N_3  and  C_5 
REMARK    4  A    between atoms: N_3  and  C_6 
REMARK    5  A    between atoms: N_3  and  C_7 
REMARK    6  A    between atoms: N_4  and  C_15 
REMARK    7  A    between atoms: C_5  and  C_8 
REMARK    8  A    between atoms: C_11  and  C_12 
ROOT
HETATM    1  O   UNK N   1      34.163  13.044  15.250  0.00  0.00    -0.259 OA
HETATM    2  C   UNK N   1      35.250  13.099  15.806  0.00  0.00     0.293 C 
ENDROOT
BRANCH   2   3
HETATM    3  O   UNK N   1      36.263  13.720  15.147  0.00  0.00    -0.316 OA
BRANCH   3   4
HETATM    4  C   UNK N   1      36.251  14.186  13.851  0.00  0.00     0.209 C 
BRANCH   4   5
HETATM    5  C   UNK N   1      36.733  13.088  12.898  0.00  0.00     0.299 C 
BRANCH   5   6
HETATM    6  N   UNK N   1      35.747  12.769  11.866  0.00  0.00     0.089 N 
BRANCH   6   7
HETATM    7  C   UNK N   1      36.510  12.543  10.642  0.00  0.00     0.268 C 
HETATM    8  C   UNK N   1      37.966  12.954  10.808  0.00  0.00     0.037 C 
ENDBRANCH   6   7
BRANCH   6   9
HETATM    9  C   UNK N   1      35.119  11.502  12.230  0.00  0.00     0.268 C 
HETATM   10  C   UNK N   1      36.076  10.665  13.060  0.00  0.00     0.037 C 
ENDBRANCH   6   9
ENDBRANCH   5   6
ENDBRANCH   4   5
ENDBRANCH   3   4
ENDBRANCH   2   3
BRANCH   2  11
HETATM   11  C   UNK N   1      35.387  12.463  17.150  0.00  0.00     0.039 A 
HETATM   12  C   UNK N   1      35.725  11.109  17.312  0.00  0.00     0.020 A 
HETATM   13  C   UNK N   1      35.823  10.550  18.591  0.00  0.00     0.030 A 
HETATM   14  C   UNK N   1      35.585  11.339  19.720  0.00  0.00     0.025 A 
HETATM   15  C   UNK N   1      35.248  12.684  19.572  0.00  0.00     0.030 A 
HETATM   16  C   UNK N   1      35.148  13.240  18.296  0.00  0.00     0.020 A 
BRANCH  14  17
HETATM   17  N   UNK N   1      35.682  10.777  21.008  0.00  0.00    -0.399 N 
HETATM   18  H   UNK N   1      35.954   9.837  21.117  0.00  0.00     0.156 HD
HETATM   19  H   UNK N   1      35.480  11.325  21.801  0.00  0.00     0.156 HD
ENDBRANCH  14  17
ENDBRANCH   2  11
TORSDOF 8
ENDMDL
MODEL 8
REMARK VINA RESULT:      -4.5      4.464      7.798
REMARK  8 active torsions:
REMARK  status: ('A' for Active; 'I' for Inactive)
REMARK    1  A    between atoms: O_1  and  C_8 
REMARK    2  A    between atoms: O_1  and  C_11 
REMARK    3  A    between atoms: N_3  and  C_5 
REMARK    4  A    between atoms: N_3  and  C_6 
REMARK    5  A    between atoms: N_3  and  C_7 
REMARK    6  A    between atoms: N_4  and  C_15 
REMARK    7  A    between atoms: C_5  and  C_8 
REMARK    8  A    between atoms: C_11  and  C_12 
ROOT
HETATM    1  O   UNK N   1      30.049  15.148   5.741  0.00  0.00    -0.259 OA
HETATM    2  C   UNK N   1      30.202  16.360   5.716  0.00  0.00     0.293 C 
ENDROOT
BRANCH   2   3
HETATM    3  O   UNK N   1      29.308  17.093   5.002  0.00  0.00    -0.316 OA
BRANCH   3   4
HETATM    4  C   UNK N   1      28.667  18.244   5.401  0.00  0.00     0.209 C 
BRANCH   4   5
HETATM    5  C   UNK N   1      27.266  18.300   4.787  0.00  0.00     0.299 C 
BRANCH   5   6
HETATM    6  N   UNK N   1      26.688  19.643   4.830  0.00  0.00     0.089 N 
BRANCH   6   7
HETATM    7  C   UNK N   1      27.590  20.440   5.654  0.00  0.00     0.268 C 
HETATM    8  C   UNK N   1      26.854  21.578   6.348  0.00  0.00     0.037 C 
ENDBRANCH   6   7
BRANCH   6   9
HETATM    9  C   UNK N   1      26.734  20.188   3.476  0.00  0.00     0.268 C 
HETATM   10  C   UNK N   1      25.328  20.327   2.920  0.00  0.00     0.037 C 
ENDBRANCH   6   9
ENDBRANCH   5   6
ENDBRANCH   4   5
ENDBRANCH   3   4
ENDBRANCH   2   3
BRANCH   2  11
HETATM   11  C   UNK N   1      31.366  16.938   6.452  0.00  0.00     0.039 A 
HETATM   12  C   UNK N   1      31.279  17.359   7.789  0.00  0.00     0.020 A 
HETATM   13  C   UNK N   1      32.391  17.913   8.433  0.00  0.00     0.030 A 
HETATM   14  C   UNK N   1      33.600  18.054   7.746  0.00  0.00     0.025 A 
HETATM   15  C   UNK N   1      33.698  17.641   6.417  0.00  0.00     0.030 A 
HETATM   16  C   UNK N   1      32.588  17.090   5.775  0.00  0.00     0.020 A 
BRANCH  14  17
HETATM   17  N   UNK N   1      34.720  18.613   8.392  0.00  0.00    -0.399 N 
HETATM   18  H   UNK N   1      35.625  18.442   8.046  0.00  0.00     0.156 HD
HETATM   19  H   UNK N   1      34.596  19.175   9.191  0.00  0.00     0.156 HD
ENDBRANCH  14  17
ENDBRANCH   2  11
TORSDOF 8
ENDMDL
MODEL 9
REMARK VINA RESULT:      -4.5      3.733      5.026
REMARK  8 active torsions:
REMARK  status: ('A' for Active; 'I' for Inactive)
REMARK    1  A    between atoms: O_1  and  C_8 
REMARK    2  A    between atoms: O_1  and  C_11 
REMARK    3  A    between atoms: N_3  and  C_5 
REMARK    4  A    between atoms: N_3  and  C_6 
REMARK    5  A    between atoms: N_3  and  C_7 
REMARK    6  A    between atoms: N_4  and  C_15 
REMARK    7  A    between atoms: C_5  and  C_8 
REMARK    8  A    between atoms: C_11  and  C_12 
ROOT
HETATM    1  O   UNK N   1      27.528  17.471   9.443  0.00  0.00    -0.259 OA
HETATM    2  C   UNK N   1      28.462  17.992   8.852  0.00  0.00     0.293 C 
ENDROOT
BRANCH   2   3
HETATM    3  O   UNK N   1      29.656  18.060   9.497  0.00  0.00    -0.316 OA
BRANCH   3   4
HETATM    4  C   UNK N   1      30.905  18.166   8.928  0.00  0.00     0.209 C 
BRANCH   4   5
HETATM    5  C   UNK N   1      31.412  16.779   8.521  0.00  0.00     0.299 C 
BRANCH   5   6
HETATM    6  N   UNK N   1      32.689  16.835   7.811  0.00  0.00     0.089 N 
BRANCH   6   7
HETATM    7  C   UNK N   1      33.170  18.205   7.959  0.00  0.00     0.268 C 
HETATM    8  C   UNK N   1      34.663  18.245   8.249  0.00  0.00     0.037 C 
ENDBRANCH   6   7
BRANCH   6   9
HETATM    9  C   UNK N   1      33.626  15.964   8.517  0.00  0.00     0.268 C 
HETATM   10  C   UNK N   1      32.875  15.053   9.471  0.00  0.00     0.037 C 
ENDBRANCH   6   9
ENDBRANCH   5   6
ENDBRANCH   4   5
ENDBRANCH   3   4
ENDBRANCH   2   3
BRANCH   2  11
HETATM   11  C   UNK N   1      28.216  18.531   7.481  0.00  0.00     0.039 A 
HETATM   12  C   UNK N   1      27.783  19.848   7.256  0.00  0.00     0.020 A 
HETATM   13  C   UNK N   1      27.546  20.305   5.955  0.00  0.00     0.030 A 
HETATM   14  C   UNK N   1      27.737  19.449   4.866  0.00  0.00     0.025 A 
HETATM   15  C   UNK N   1      28.166  18.139   5.078  0.00  0.00     0.030 A 
HETATM   16  C   UNK N   1      28.400  17.683   6.376  0.00  0.00     0.020 A 
BRANCH  14  17
HETATM   17  N   UNK N   1      27.498  19.907   3.556  0.00  0.00    -0.399 N 
HETATM   18  H   UNK N   1      26.655  19.681   3.102  0.00  0.00     0.156 HD
HETATM   19  H   UNK N   1      28.173  20.455   3.095  0.00  0.00     0.156 HD
ENDBRANCH  14  17
ENDBRANCH   2  11
TORSDOF 8
ENDMDL
