MODEL 1
REMARK VINA RESULT:      -6.9      0.000      0.000
REMARK  15 active torsions:
REMARK  status: ('A' for Active; 'I' for Inactive)
REMARK    1  A    between atoms: O_2  and  C_18 
REMARK    2  A    between atoms: O_4  and  C_22 
REMARK       I    between atoms: N_6  and  C_14 
REMARK    3  A    between atoms: C_13  and  N_7 
REMARK    4  A    between atoms: C_16  and  N_7 
REMARK    5  A    between atoms: N_8  and  C_23 
REMARK    6  A    between atoms: C_9  and  C_18 
REMARK    7  A    between atoms: C_13  and  C_14 
REMARK    8  A    between atoms: C_13  and  C_15 
REMARK    9  A    between atoms: C_15  and  C_17 
REMARK   10  A    between atoms: C_16  and  C_19 
REMARK   11  A    between atoms: C_16  and  C_22 
REMARK   12  A    between atoms: C_17  and  C_20 
REMARK   13  A    between atoms: C_19  and  C_21 
REMARK   14  A    between atoms: C_20  and  C_23 
REMARK   15  A    between atoms: C_21  and  C_24 
ROOT
HETATM    1  C   UNK N   1      36.314  14.821  10.632  0.00  0.00     0.170 C 
ENDROOT
BRANCH   1   2
HETATM    2  N   UNK N   1      36.288  14.742  12.112  0.00  0.00    -0.396 N 
HETATM    3  H   UNK N   1      36.831  15.402  12.671  0.00  0.00     0.155 HD
BRANCH   2   4
HETATM    4  C   UNK N   1      35.475  13.706  12.772  0.00  0.00     0.176 C 
BRANCH   4   5
HETATM    5  C   UNK N   1      35.724  13.592  14.274  0.00  0.00     0.040 C 
BRANCH   5   6
HETATM    6  C   UNK N   1      34.624  12.781  14.963  0.00  0.00     0.041 C 
BRANCH   6   7
HETATM    7  C   UNK N   1      34.932  12.494  16.404  0.00  0.00    -0.058 A 
HETATM    8  C   UNK N   1      35.312  11.201  16.783  0.00  0.00     0.007 A 
HETATM    9  C   UNK N   1      35.627  10.924  18.118  0.00  0.00     0.001 A 
HETATM   10  C   UNK N   1      35.569  11.940  19.076  0.00  0.00     0.000 A 
HETATM   11  C   UNK N   1      35.189  13.232  18.702  0.00  0.00     0.001 A 
HETATM   12  C   UNK N   1      34.868  13.509  17.370  0.00  0.00     0.007 A 
ENDBRANCH   6   7
ENDBRANCH   5   6
ENDBRANCH   4   5
BRANCH   4  13
HETATM   13  C   UNK N   1      35.394  12.386  12.056  0.00  0.00     0.163 C 
HETATM   14  O   UNK N   1      36.325  11.601  12.137  0.00  0.00    -0.648 OA
BRANCH  13  15
HETATM   15  O   UNK N   1      34.284  12.031  11.385  0.00  0.00    -0.775 OA
HETATM   16  H   UNK N   1      34.097  11.943  10.471  0.00  0.00     0.167 HD
ENDBRANCH  13  15
ENDBRANCH   4  13
ENDBRANCH   2   4
ENDBRANCH   1   2
BRANCH   1  17
HETATM   17  C   UNK N   1      35.640  16.101  10.146  0.00  0.00     0.243 C 
HETATM   18  O   UNK N   1      36.098  17.172  10.511  0.00  0.00    -0.271 OA
HETATM   19  N   UNK N   1      34.504  16.076   9.373  0.00  0.00    -0.336 N 
HETATM   20  C   UNK N   1      33.766  17.269   9.008  0.00  0.00     0.185 C 
HETATM   21  C   UNK N   1      33.893  14.854   8.934  0.00  0.00     0.127 C 
HETATM   22  C   UNK N   1      32.485  16.746   8.367  0.00  0.00     0.038 C 
HETATM   23  C   UNK N   1      32.729  15.275   8.060  0.00  0.00     0.022 C 
BRANCH  20  24
HETATM   24  C   UNK N   1      34.521  18.184   8.068  0.00  0.00     0.163 C 
HETATM   25  O   UNK N   1      34.524  17.961   6.869  0.00  0.00    -0.648 OA
BRANCH  24  26
HETATM   26  O   UNK N   1      35.253  19.208   8.550  0.00  0.00    -0.775 OA
HETATM   27  H   UNK N   1      35.041  20.058   8.884  0.00  0.00     0.167 HD
ENDBRANCH  24  26
ENDBRANCH  20  24
ENDBRANCH   1  17
BRANCH   1  28
HETATM   28  C   UNK N   1      37.651  14.504   9.958  0.00  0.00     0.034 C 
BRANCH  28  29
HETATM   29  C   UNK N   1      37.328  13.817   8.638  0.00  0.00     0.004 C 
BRANCH  29  30
HETATM   30  C   UNK N   1      37.344  12.308   8.770  0.00  0.00     0.019 C 
BRANCH  30  31
HETATM   31  C   UNK N   1      38.628  11.861   9.453  0.00  0.00     0.111 C 
BRANCH  31  32
HETATM   32  N   UNK N   1      38.404  10.654  10.232  0.00  0.00    -0.430 N 
HETATM   33  H   UNK N   1      38.892   9.995  10.840  0.00  0.00     0.149 HD
HETATM   34  H   UNK N   1      37.429  10.369  10.138  0.00  0.00     0.149 HD
ENDBRANCH  31  32
ENDBRANCH  30  31
ENDBRANCH  29  30
ENDBRANCH  28  29
ENDBRANCH   1  28
TORSDOF 15
ENDMDL
MODEL 2
REMARK VINA RESULT:      -6.7     12.503     15.220
REMARK  15 active torsions:
REMARK  status: ('A' for Active; 'I' for Inactive)
REMARK    1  A    between atoms: O_2  and  C_18 
REMARK    2  A    between atoms: O_4  and  C_22 
REMARK       I    between atoms: N_6  and  C_14 
REMARK    3  A    between atoms: C_13  and  N_7 
REMARK    4  A    between atoms: C_16  and  N_7 
REMARK    5  A    between atoms: N_8  and  C_23 
REMARK    6  A    between atoms: C_9  and  C_18 
REMARK    7  A    between atoms: C_13  and  C_14 
REMARK    8  A    between atoms: C_13  and  C_15 
REMARK    9  A    between atoms: C_15  and  C_17 
REMARK   10  A    between atoms: C_16  and  C_19 
REMARK   11  A    between atoms: C_16  and  C_22 
REMARK   12  A    between atoms: C_17  and  C_20 
REMARK   13  A    between atoms: C_19  and  C_21 
REMARK   14  A    between atoms: C_20  and  C_23 
REMARK   15  A    between atoms: C_21  and  C_24 
ROOT
HETATM    1  C   UNK N   1      21.294  16.636   5.845  0.00  0.00     0.170 C 
ENDROOT
BRANCH   1   2
HETATM    2  N   UNK N   1      20.158  16.350   6.754  0.00  0.00    -0.396 N 
HETATM    3  H   UNK N   1      19.285  15.974   6.382  0.00  0.00     0.155 HD
BRANCH   2   4
HETATM    4  C   UNK N   1      20.297  16.611   8.197  0.00  0.00     0.176 C 
BRANCH   4   5
HETATM    5  C   UNK N   1      19.997  15.398   9.073  0.00  0.00     0.040 C 
BRANCH   5   6
HETATM    6  C   UNK N   1      20.681  14.138   8.536  0.00  0.00     0.041 C 
BRANCH   6   7
HETATM    7  C   UNK N   1      21.390  13.362   9.609  0.00  0.00    -0.058 A 
HETATM    8  C   UNK N   1      22.786  13.263   9.579  0.00  0.00     0.007 A 
HETATM    9  C   UNK N   1      23.463  12.565  10.585  0.00  0.00     0.001 A 
HETATM   10  C   UNK N   1      22.747  11.970  11.628  0.00  0.00     0.000 A 
HETATM   11  C   UNK N   1      21.352  12.066  11.661  0.00  0.00     0.001 A 
HETATM   12  C   UNK N   1      20.674  12.758  10.653  0.00  0.00     0.007 A 
ENDBRANCH   6   7
ENDBRANCH   5   6
ENDBRANCH   4   5
BRANCH   4  13
HETATM   13  C   UNK N   1      19.691  17.896   8.688  0.00  0.00     0.163 C 
HETATM   14  O   UNK N   1      18.647  17.864   9.322  0.00  0.00    -0.648 OA
BRANCH  13  15
HETATM   15  O   UNK N   1      20.315  19.072   8.499  0.00  0.00    -0.775 OA
HETATM   16  H   UNK N   1      21.165  19.385   8.741  0.00  0.00     0.167 HD
ENDBRANCH  13  15
ENDBRANCH   4  13
ENDBRANCH   2   4
ENDBRANCH   1   2
BRANCH   1  17
HETATM   17  C   UNK N   1      21.077  17.954   5.107  0.00  0.00     0.243 C 
HETATM   18  O   UNK N   1      21.133  18.993   5.747  0.00  0.00    -0.271 OA
HETATM   19  N   UNK N   1      20.758  17.995   3.772  0.00  0.00    -0.336 N 
HETATM   20  C   UNK N   1      20.416  19.220   3.074  0.00  0.00     0.185 C 
HETATM   21  C   UNK N   1      20.645  16.814   2.966  0.00  0.00     0.127 C 
HETATM   22  C   UNK N   1      19.918  18.758   1.709  0.00  0.00     0.038 C 
HETATM   23  C   UNK N   1      20.357  17.307   1.561  0.00  0.00     0.022 C 
BRANCH  20  24
HETATM   24  C   UNK N   1      21.573  20.185   2.942  0.00  0.00     0.163 C 
HETATM   25  O   UNK N   1      22.720  19.771   2.963  0.00  0.00    -0.648 OA
BRANCH  24  26
HETATM   26  O   UNK N   1      21.354  21.513   2.873  0.00  0.00    -0.775 OA
HETATM   27  H   UNK N   1      20.896  22.066   2.271  0.00  0.00     0.167 HD
ENDBRANCH  24  26
ENDBRANCH  20  24
ENDBRANCH   1  17
BRANCH   1  28
HETATM   28  C   UNK N   1      22.696  16.452   6.430  0.00  0.00     0.034 C 
BRANCH  28  29
HETATM   29  C   UNK N   1      23.194  15.090   5.963  0.00  0.00     0.004 C 
BRANCH  29  30
HETATM   30  C   UNK N   1      24.407  14.634   6.747  0.00  0.00     0.019 C 
BRANCH  30  31
HETATM   31  C   UNK N   1      25.665  15.268   6.170  0.00  0.00     0.111 C 
BRANCH  31  32
HETATM   32  N   UNK N   1      26.368  16.032   7.187  0.00  0.00    -0.430 N 
HETATM   33  H   UNK N   1      26.427  16.972   7.580  0.00  0.00     0.149 HD
HETATM   34  H   UNK N   1      27.025  15.422   7.673  0.00  0.00     0.149 HD
ENDBRANCH  31  32
ENDBRANCH  30  31
ENDBRANCH  29  30
ENDBRANCH  28  29
ENDBRANCH   1  28
TORSDOF 15
ENDMDL
MODEL 3
REMARK VINA RESULT:      -6.6      1.909      2.308
REMARK  15 active torsions:
REMARK  status: ('A' for Active; 'I' for Inactive)
REMARK    1  A    between atoms: O_2  and  C_18 
REMARK    2  A    between atoms: O_4  and  C_22 
REMARK       I    between atoms: N_6  and  C_14 
REMARK    3  A    between atoms: C_13  and  N_7 
REMARK    4  A    between atoms: C_16  and  N_7 
REMARK    5  A    between atoms: N_8  and  C_23 
REMARK    6  A    between atoms: C_9  and  C_18 
REMARK    7  A    between atoms: C_13  and  C_14 
REMARK    8  A    between atoms: C_13  and  C_15 
REMARK    9  A    between atoms: C_15  and  C_17 
REMARK   10  A    between atoms: C_16  and  C_19 
REMARK   11  A    between atoms: C_16  and  C_22 
REMARK   12  A    between atoms: C_17  and  C_20 
REMARK   13  A    between atoms: C_19  and  C_21 
REMARK   14  A    between atoms: C_20  and  C_23 
REMARK   15  A    between atoms: C_21  and  C_24 
ROOT
HETATM    1  C   UNK N   1      34.292  14.178  10.063  0.00  0.00     0.170 C 
ENDROOT
BRANCH   1   2
HETATM    2  N   UNK N   1      34.320  13.966  11.530  0.00  0.00    -0.396 N 
HETATM    3  H   UNK N   1      33.678  14.480  12.135  0.00  0.00     0.155 HD
BRANCH   2   4
HETATM    4  C   UNK N   1      35.280  13.010  12.109  0.00  0.00     0.176 C 
BRANCH   4   5
HETATM    5  C   UNK N   1      34.692  12.146  13.221  0.00  0.00     0.040 C 
BRANCH   5   6
HETATM    6  C   UNK N   1      35.791  11.535  14.094  0.00  0.00     0.041 C 
BRANCH   6   7
HETATM    7  C   UNK N   1      35.581  11.797  15.557  0.00  0.00    -0.058 A 
HETATM    8  C   UNK N   1      35.852  10.784  16.484  0.00  0.00     0.007 A 
HETATM    9  C   UNK N   1      35.685  11.020  17.853  0.00  0.00     0.001 A 
HETATM   10  C   UNK N   1      35.254  12.273  18.300  0.00  0.00     0.000 A 
HETATM   11  C   UNK N   1      34.982  13.288  17.377  0.00  0.00     0.001 A 
HETATM   12  C   UNK N   1      35.142  13.051  16.008  0.00  0.00     0.007 A 
ENDBRANCH   6   7
ENDBRANCH   5   6
ENDBRANCH   4   5
BRANCH   4  13
HETATM   13  C   UNK N   1      36.647  13.559  12.409  0.00  0.00     0.163 C 
HETATM   14  O   UNK N   1      37.620  13.095  11.835  0.00  0.00    -0.648 OA
BRANCH  13  15
HETATM   15  O   UNK N   1      36.806  14.599  13.248  0.00  0.00    -0.775 OA
HETATM   16  H   UNK N   1      36.486  14.771  14.111  0.00  0.00     0.167 HD
ENDBRANCH  13  15
ENDBRANCH   4  13
ENDBRANCH   2   4
ENDBRANCH   1   2
BRANCH   1  17
HETATM   17  C   UNK N   1      34.283  15.668   9.731  0.00  0.00     0.243 C 
HETATM   18  O   UNK N   1      35.132  16.381  10.242  0.00  0.00    -0.271 OA
HETATM   19  N   UNK N   1      33.315  16.229   8.934  0.00  0.00    -0.336 N 
HETATM   20  C   UNK N   1      33.201  17.657   8.709  0.00  0.00     0.185 C 
HETATM   21  C   UNK N   1      32.270  15.457   8.326  0.00  0.00     0.127 C 
HETATM   22  C   UNK N   1      31.875  17.824   7.975  0.00  0.00     0.038 C 
HETATM   23  C   UNK N   1      31.477  16.438   7.485  0.00  0.00     0.022 C 
BRANCH  20  24
HETATM   24  C   UNK N   1      34.349  18.237   7.915  0.00  0.00     0.163 C 
HETATM   25  O   UNK N   1      34.513  17.915   6.750  0.00  0.00    -0.648 OA
BRANCH  24  26
HETATM   26  O   UNK N   1      35.243  19.059   8.501  0.00  0.00    -0.775 OA
HETATM   27  H   UNK N   1      35.571  19.914   8.300  0.00  0.00     0.167 HD
ENDBRANCH  24  26
ENDBRANCH  20  24
ENDBRANCH   1  17
BRANCH   1  28
HETATM   28  C   UNK N   1      35.273  13.343   9.237  0.00  0.00     0.034 C 
BRANCH  28  29
HETATM   29  C   UNK N   1      34.443  12.341   8.446  0.00  0.00     0.004 C 
BRANCH  29  30
HETATM   30  C   UNK N   1      34.701  10.917   8.893  0.00  0.00     0.019 C 
BRANCH  30  31
HETATM   31  C   UNK N   1      33.639  10.489   9.897  0.00  0.00     0.111 C 
BRANCH  31  32
HETATM   32  N   UNK N   1      32.368  11.134   9.606  0.00  0.00    -0.430 N 
HETATM   33  H   UNK N   1      31.783  11.914   9.907  0.00  0.00     0.149 HD
HETATM   34  H   UNK N   1      31.905  10.639   8.844  0.00  0.00     0.149 HD
ENDBRANCH  31  32
ENDBRANCH  30  31
ENDBRANCH  29  30
ENDBRANCH  28  29
ENDBRANCH   1  28
TORSDOF 15
ENDMDL
MODEL 4
REMARK VINA RESULT:      -6.6      1.193      1.687
REMARK  15 active torsions:
REMARK  status: ('A' for Active; 'I' for Inactive)
REMARK    1  A    between atoms: O_2  and  C_18 
REMARK    2  A    between atoms: O_4  and  C_22 
REMARK       I    between atoms: N_6  and  C_14 
REMARK    3  A    between atoms: C_13  and  N_7 
REMARK    4  A    between atoms: C_16  and  N_7 
REMARK    5  A    between atoms: N_8  and  C_23 
REMARK    6  A    between atoms: C_9  and  C_18 
REMARK    7  A    between atoms: C_13  and  C_14 
REMARK    8  A    between atoms: C_13  and  C_15 
REMARK    9  A    between atoms: C_15  and  C_17 
REMARK   10  A    between atoms: C_16  and  C_19 
REMARK   11  A    between atoms: C_16  and  C_22 
REMARK   12  A    between atoms: C_17  and  C_20 
REMARK   13  A    between atoms: C_19  and  C_21 
REMARK   14  A    between atoms: C_20  and  C_23 
REMARK   15  A    between atoms: C_21  and  C_24 
ROOT
HETATM    1  C   UNK N   1      36.210  14.494  10.276  0.00  0.00     0.170 C 
ENDROOT
BRANCH   1   2
HETATM    2  N   UNK N   1      36.047  14.146  11.708  0.00  0.00    -0.396 N 
HETATM    3  H   UNK N   1      36.652  14.572  12.412  0.00  0.00     0.155 HD
BRANCH   2   4
HETATM    4  C   UNK N   1      35.009  13.181  12.110  0.00  0.00     0.176 C 
BRANCH   4   5
HETATM    5  C   UNK N   1      35.070  12.790  13.584  0.00  0.00     0.040 C 
BRANCH   5   6
HETATM    6  C   UNK N   1      36.464  13.034  14.169  0.00  0.00     0.041 C 
BRANCH   6   7
HETATM    7  C   UNK N   1      36.428  13.851  15.428  0.00  0.00    -0.058 A 
HETATM    8  C   UNK N   1      35.618  13.440  16.493  0.00  0.00     0.007 A 
HETATM    9  C   UNK N   1      35.592  14.177  17.682  0.00  0.00     0.001 A 
HETATM   10  C   UNK N   1      36.382  15.323  17.813  0.00  0.00     0.000 A 
HETATM   11  C   UNK N   1      37.192  15.738  16.750  0.00  0.00     0.001 A 
HETATM   12  C   UNK N   1      37.213  15.006  15.559  0.00  0.00     0.007 A 
ENDBRANCH   6   7
ENDBRANCH   5   6
ENDBRANCH   4   5
BRANCH   4  13
HETATM   13  C   UNK N   1      34.793  12.027  11.171  0.00  0.00     0.163 C 
HETATM   14  O   UNK N   1      35.497  11.034  11.268  0.00  0.00    -0.648 OA
BRANCH  13  15
HETATM   15  O   UNK N   1      33.792  12.045  10.272  0.00  0.00    -0.775 OA
HETATM   16  H   UNK N   1      33.146  11.411  10.030  0.00  0.00     0.167 HD
ENDBRANCH  13  15
ENDBRANCH   4  13
ENDBRANCH   2   4
ENDBRANCH   1   2
BRANCH   1  17
HETATM   17  C   UNK N   1      35.625  15.873   9.985  0.00  0.00     0.243 C 
HETATM   18  O   UNK N   1      36.167  16.849  10.479  0.00  0.00    -0.271 OA
HETATM   19  N   UNK N   1      34.479  16.034   9.244  0.00  0.00    -0.336 N 
HETATM   20  C   UNK N   1      33.826  17.316   9.062  0.00  0.00     0.185 C 
HETATM   21  C   UNK N   1      33.773  14.931   8.660  0.00  0.00     0.127 C 
HETATM   22  C   UNK N   1      32.500  16.978   8.388  0.00  0.00     0.038 C 
HETATM   23  C   UNK N   1      32.630  15.548   7.879  0.00  0.00     0.022 C 
BRANCH  20  24
HETATM   24  C   UNK N   1      34.632  18.294   8.236  0.00  0.00     0.163 C 
HETATM   25  O   UNK N   1      34.634  18.211   7.019  0.00  0.00    -0.648 OA
BRANCH  24  26
HETATM   26  O   UNK N   1      35.409  19.219   8.833  0.00  0.00    -0.775 OA
HETATM   27  H   UNK N   1      36.329  19.398   8.827  0.00  0.00     0.167 HD
ENDBRANCH  24  26
ENDBRANCH  20  24
ENDBRANCH   1  17
BRANCH   1  28
HETATM   28  C   UNK N   1      37.592  14.241   9.669  0.00  0.00     0.034 C 
BRANCH  28  29
HETATM   29  C   UNK N   1      38.194  13.061  10.420  0.00  0.00     0.004 C 
BRANCH  29  30
HETATM   30  C   UNK N   1      39.112  12.241   9.537  0.00  0.00     0.019 C 
BRANCH  30  31
HETATM   31  C   UNK N   1      38.705  10.775   9.588  0.00  0.00     0.111 C 
BRANCH  31  32
HETATM   32  N   UNK N   1      38.210  10.425  10.910  0.00  0.00    -0.430 N 
HETATM   33  H   UNK N   1      37.441  10.623  11.551  0.00  0.00     0.149 HD
HETATM   34  H   UNK N   1      38.847   9.758  11.344  0.00  0.00     0.149 HD
ENDBRANCH  31  32
ENDBRANCH  30  31
ENDBRANCH  29  30
ENDBRANCH  28  29
ENDBRANCH   1  28
TORSDOF 15
ENDMDL
MODEL 5
REMARK VINA RESULT:      -6.5     13.385     15.383
REMARK  15 active torsions:
REMARK  status: ('A' for Active; 'I' for Inactive)
REMARK    1  A    between atoms: O_2  and  C_18 
REMARK    2  A    between atoms: O_4  and  C_22 
REMARK       I    between atoms: N_6  and  C_14 
REMARK    3  A    between atoms: C_13  and  N_7 
REMARK    4  A    between atoms: C_16  and  N_7 
REMARK    5  A    between atoms: N_8  and  C_23 
REMARK    6  A    between atoms: C_9  and  C_18 
REMARK    7  A    between atoms: C_13  and  C_14 
REMARK    8  A    between atoms: C_13  and  C_15 
REMARK    9  A    between atoms: C_15  and  C_17 
REMARK   10  A    between atoms: C_16  and  C_19 
REMARK   11  A    between atoms: C_16  and  C_22 
REMARK   12  A    between atoms: C_17  and  C_20 
REMARK   13  A    between atoms: C_19  and  C_21 
REMARK   14  A    between atoms: C_20  and  C_23 
REMARK   15  A    between atoms: C_21  and  C_24 
ROOT
HETATM    1  C   UNK N   1      21.295  16.454   5.909  0.00  0.00     0.170 C 
ENDROOT
BRANCH   1   2
HETATM    2  N   UNK N   1      20.130  16.278   6.809  0.00  0.00    -0.396 N 
HETATM    3  H   UNK N   1      19.231  15.977   6.432  0.00  0.00     0.155 HD
BRANCH   2   4
HETATM    4  C   UNK N   1      20.278  16.543   8.251  0.00  0.00     0.176 C 
BRANCH   4   5
HETATM    5  C   UNK N   1      20.001  15.327   9.131  0.00  0.00     0.040 C 
BRANCH   5   6
HETATM    6  C   UNK N   1      20.621  14.057   8.540  0.00  0.00     0.041 C 
BRANCH   6   7
HETATM    7  C   UNK N   1      21.554  13.371   9.495  0.00  0.00    -0.058 A 
HETATM    8  C   UNK N   1      21.035  12.738  10.631  0.00  0.00     0.007 A 
HETATM    9  C   UNK N   1      21.888  12.073  11.517  0.00  0.00     0.001 A 
HETATM   10  C   UNK N   1      23.263  12.032  11.267  0.00  0.00     0.000 A 
HETATM   11  C   UNK N   1      23.786  12.664  10.135  0.00  0.00     0.001 A 
HETATM   12  C   UNK N   1      22.935  13.335   9.252  0.00  0.00     0.007 A 
ENDBRANCH   6   7
ENDBRANCH   5   6
ENDBRANCH   4   5
BRANCH   4  13
HETATM   13  C   UNK N   1      19.658  17.820   8.746  0.00  0.00     0.163 C 
HETATM   14  O   UNK N   1      18.645  17.772   9.426  0.00  0.00    -0.648 OA
BRANCH  13  15
HETATM   15  O   UNK N   1      20.240  19.009   8.509  0.00  0.00    -0.775 OA
HETATM   16  H   UNK N   1      19.929  19.800   8.113  0.00  0.00     0.167 HD
ENDBRANCH  13  15
ENDBRANCH   4  13
ENDBRANCH   2   4
ENDBRANCH   1   2
BRANCH   1  17
HETATM   17  C   UNK N   1      21.272  17.832   5.256  0.00  0.00     0.243 C 
HETATM   18  O   UNK N   1      21.545  18.804   5.942  0.00  0.00    -0.271 OA
HETATM   19  N   UNK N   1      20.890  18.010   3.948  0.00  0.00    -0.336 N 
HETATM   20  C   UNK N   1      20.729  19.315   3.338  0.00  0.00     0.185 C 
HETATM   21  C   UNK N   1      20.526  16.917   3.092  0.00  0.00     0.127 C 
HETATM   22  C   UNK N   1      20.081  19.030   1.987  0.00  0.00     0.038 C 
HETATM   23  C   UNK N   1      20.249  17.537   1.737  0.00  0.00     0.022 C 
BRANCH  20  24
HETATM   24  C   UNK N   1      22.028  20.073   3.179  0.00  0.00     0.163 C 
HETATM   25  O   UNK N   1      22.021  21.219   2.762  0.00  0.00    -0.648 OA
BRANCH  24  26
HETATM   26  O   UNK N   1      23.209  19.470   3.426  0.00  0.00    -0.775 OA
HETATM   27  H   UNK N   1      24.067  19.545   3.057  0.00  0.00     0.167 HD
ENDBRANCH  24  26
ENDBRANCH  20  24
ENDBRANCH   1  17
BRANCH   1  28
HETATM   28  C   UNK N   1      22.656  16.033   6.470  0.00  0.00     0.034 C 
BRANCH  28  29
HETATM   29  C   UNK N   1      23.329  15.182   5.402  0.00  0.00     0.004 C 
BRANCH  29  30
HETATM   30  C   UNK N   1      22.456  14.021   4.973  0.00  0.00     0.019 C 
BRANCH  30  31
HETATM   31  C   UNK N   1      22.832  13.584   3.564  0.00  0.00     0.111 C 
BRANCH  31  32
HETATM   32  N   UNK N   1      22.810  12.134   3.453  0.00  0.00    -0.430 N 
HETATM   33  H   UNK N   1      22.647  11.294   4.010  0.00  0.00     0.149 HD
HETATM   34  H   UNK N   1      23.032  11.865   2.495  0.00  0.00     0.149 HD
ENDBRANCH  31  32
ENDBRANCH  30  31
ENDBRANCH  29  30
ENDBRANCH  28  29
ENDBRANCH   1  28
TORSDOF 15
ENDMDL
MODEL 6
REMARK VINA RESULT:      -6.4      2.291      3.591
REMARK  15 active torsions:
REMARK  status: ('A' for Active; 'I' for Inactive)
REMARK    1  A    between atoms: O_2  and  C_18 
REMARK    2  A    between atoms: O_4  and  C_22 
REMARK       I    between atoms: N_6  and  C_14 
REMARK    3  A    between atoms: C_13  and  N_7 
REMARK    4  A    between atoms: C_16  and  N_7 
REMARK    5  A    between atoms: N_8  and  C_23 
REMARK    6  A    between atoms: C_9  and  C_18 
REMARK    7  A    between atoms: C_13  and  C_14 
REMARK    8  A    between atoms: C_13  and  C_15 
REMARK    9  A    between atoms: C_15  and  C_17 
REMARK   10  A    between atoms: C_16  and  C_19 
REMARK   11  A    between atoms: C_16  and  C_22 
REMARK   12  A    between atoms: C_17  and  C_20 
REMARK   13  A    between atoms: C_19  and  C_21 
REMARK   14  A    between atoms: C_20  and  C_23 
REMARK   15  A    between atoms: C_21  and  C_24 
ROOT
HETATM    1  C   UNK N   1      35.465  14.723  10.696  0.00  0.00     0.170 C 
ENDROOT
BRANCH   1   2
HETATM    2  N   UNK N   1      35.233  13.672   9.677  0.00  0.00    -0.396 N 
HETATM    3  H   UNK N   1      35.408  13.865   8.690  0.00  0.00     0.155 HD
BRANCH   2   4
HETATM    4  C   UNK N   1      34.749  12.345  10.097  0.00  0.00     0.176 C 
BRANCH   4   5
HETATM    5  C   UNK N   1      35.856  11.414  10.587  0.00  0.00     0.040 C 
BRANCH   5   6
HETATM    6  C   UNK N   1      35.280  10.109  11.144  0.00  0.00     0.041 C 
BRANCH   6   7
HETATM    7  C   UNK N   1      35.062  10.160  12.629  0.00  0.00    -0.058 A 
HETATM    8  C   UNK N   1      36.112   9.821  13.491  0.00  0.00     0.007 A 
HETATM    9  C   UNK N   1      35.933   9.888  14.877  0.00  0.00     0.001 A 
HETATM   10  C   UNK N   1      34.706  10.301  15.405  0.00  0.00     0.000 A 
HETATM   11  C   UNK N   1      33.655  10.639  14.547  0.00  0.00     0.001 A 
HETATM   12  C   UNK N   1      33.831  10.566  13.162  0.00  0.00     0.007 A 
ENDBRANCH   6   7
ENDBRANCH   5   6
ENDBRANCH   4   5
BRANCH   4  13
HETATM   13  C   UNK N   1      33.753  11.694   9.179  0.00  0.00     0.163 C 
HETATM   14  O   UNK N   1      34.120  11.276   8.092  0.00  0.00    -0.648 OA
BRANCH  13  15
HETATM   15  O   UNK N   1      32.478  11.503   9.566  0.00  0.00    -0.775 OA
HETATM   16  H   UNK N   1      31.729  12.065   9.580  0.00  0.00     0.167 HD
ENDBRANCH  13  15
ENDBRANCH   4  13
ENDBRANCH   2   4
ENDBRANCH   1   2
BRANCH   1  17
HETATM   17  C   UNK N   1      35.084  16.097  10.152  0.00  0.00     0.243 C 
HETATM   18  O   UNK N   1      35.752  17.061  10.491  0.00  0.00    -0.271 OA
HETATM   19  N   UNK N   1      33.981  16.282   9.353  0.00  0.00    -0.336 N 
HETATM   20  C   UNK N   1      33.517  17.589   8.931  0.00  0.00     0.185 C 
HETATM   21  C   UNK N   1      33.133  15.201   8.941  0.00  0.00     0.127 C 
HETATM   22  C   UNK N   1      32.165  17.324   8.278  0.00  0.00     0.038 C 
HETATM   23  C   UNK N   1      32.098  15.823   8.026  0.00  0.00     0.022 C 
BRANCH  20  24
HETATM   24  C   UNK N   1      34.463  18.288   7.979  0.00  0.00     0.163 C 
HETATM   25  O   UNK N   1      34.503  17.960   6.805  0.00  0.00    -0.648 OA
BRANCH  24  26
HETATM   26  O   UNK N   1      35.317  19.229   8.429  0.00  0.00    -0.775 OA
HETATM   27  H   UNK N   1      36.199  19.464   8.213  0.00  0.00     0.167 HD
ENDBRANCH  24  26
ENDBRANCH  20  24
ENDBRANCH   1  17
BRANCH   1  28
HETATM   28  C   UNK N   1      34.950  14.427  12.106  0.00  0.00     0.034 C 
BRANCH  28  29
HETATM   29  C   UNK N   1      36.172  14.337  13.011  0.00  0.00     0.004 C 
BRANCH  29  30
HETATM   30  C   UNK N   1      35.871  13.586  14.292  0.00  0.00     0.019 C 
BRANCH  30  31
HETATM   31  C   UNK N   1      36.794  14.066  15.403  0.00  0.00     0.111 C 
BRANCH  31  32
HETATM   32  N   UNK N   1      37.374  15.357  15.067  0.00  0.00    -0.430 N 
HETATM   33  H   UNK N   1      37.621  16.254  15.489  0.00  0.00     0.149 HD
HETATM   34  H   UNK N   1      37.614  15.372  14.077  0.00  0.00     0.149 HD
ENDBRANCH  31  32
ENDBRANCH  30  31
ENDBRANCH  29  30
ENDBRANCH  28  29
ENDBRANCH   1  28
TORSDOF 15
ENDMDL
MODEL 7
REMARK VINA RESULT:      -6.1      2.798      4.429
REMARK  15 active torsions:
REMARK  status: ('A' for Active; 'I' for Inactive)
REMARK    1  A    between atoms: O_2  and  C_18 
REMARK    2  A    between atoms: O_4  and  C_22 
REMARK       I    between atoms: N_6  and  C_14 
REMARK    3  A    between atoms: C_13  and  N_7 
REMARK    4  A    between atoms: C_16  and  N_7 
REMARK    5  A    between atoms: N_8  and  C_23 
REMARK    6  A    between atoms: C_9  and  C_18 
REMARK    7  A    between atoms: C_13  and  C_14 
REMARK    8  A    between atoms: C_13  and  C_15 
REMARK    9  A    between atoms: C_15  and  C_17 
REMARK   10  A    between atoms: C_16  and  C_19 
REMARK   11  A    between atoms: C_16  and  C_22 
REMARK   12  A    between atoms: C_17  and  C_20 
REMARK   13  A    between atoms: C_19  and  C_21 
REMARK   14  A    between atoms: C_20  and  C_23 
REMARK   15  A    between atoms: C_21  and  C_24 
ROOT
HETATM    1  C   UNK N   1      35.013  14.199   9.942  0.00  0.00     0.170 C 
ENDROOT
BRANCH   1   2
HETATM    2  N   UNK N   1      34.406  13.816  11.239  0.00  0.00    -0.396 N 
HETATM    3  H   UNK N   1      33.426  14.030  11.431  0.00  0.00     0.155 HD
BRANCH   2   4
HETATM    4  C   UNK N   1      35.225  13.126  12.250  0.00  0.00     0.176 C 
BRANCH   4   5
HETATM    5  C   UNK N   1      34.702  11.742  12.625  0.00  0.00     0.040 C 
BRANCH   5   6
HETATM    6  C   UNK N   1      35.392  10.645  11.809  0.00  0.00     0.041 C 
BRANCH   6   7
HETATM    7  C   UNK N   1      34.423   9.644  11.249  0.00  0.00    -0.058 A 
HETATM    8  C   UNK N   1      33.278  10.093  10.580  0.00  0.00     0.007 A 
HETATM    9  C   UNK N   1      32.378   9.173  10.031  0.00  0.00     0.001 A 
HETATM   10  C   UNK N   1      32.624   7.802  10.142  0.00  0.00     0.000 A 
HETATM   11  C   UNK N   1      33.766   7.348  10.810  0.00  0.00     0.001 A 
HETATM   12  C   UNK N   1      34.663   8.266  11.365  0.00  0.00     0.007 A 
ENDBRANCH   6   7
ENDBRANCH   5   6
ENDBRANCH   4   5
BRANCH   4  13
HETATM   13  C   UNK N   1      35.656  13.963  13.423  0.00  0.00     0.163 C 
HETATM   14  O   UNK N   1      35.277  13.666  14.545  0.00  0.00    -0.648 OA
BRANCH  13  15
HETATM   15  O   UNK N   1      36.507  14.992  13.262  0.00  0.00    -0.775 OA
HETATM   16  H   UNK N   1      36.924  15.358  12.507  0.00  0.00     0.167 HD
ENDBRANCH  13  15
ENDBRANCH   4  13
ENDBRANCH   2   4
ENDBRANCH   1   2
BRANCH   1  17
HETATM   17  C   UNK N   1      34.822  15.689   9.674  0.00  0.00     0.243 C 
HETATM   18  O   UNK N   1      35.646  16.470  10.125  0.00  0.00    -0.271 OA
HETATM   19  N   UNK N   1      33.725  16.172   9.003  0.00  0.00    -0.336 N 
HETATM   20  C   UNK N   1      33.448  17.587   8.849  0.00  0.00     0.185 C 
HETATM   21  C   UNK N   1      32.703  15.316   8.473  0.00  0.00     0.127 C 
HETATM   22  C   UNK N   1      32.042  17.641   8.261  0.00  0.00     0.038 C 
HETATM   23  C   UNK N   1      31.734  16.236   7.758  0.00  0.00     0.022 C 
BRANCH  20  24
HETATM   24  C   UNK N   1      34.444  18.306   7.967  0.00  0.00     0.163 C 
HETATM   25  O   UNK N   1      34.502  18.051   6.776  0.00  0.00    -0.648 OA
BRANCH  24  26
HETATM   26  O   UNK N   1      35.322  19.182   8.496  0.00  0.00    -0.775 OA
HETATM   27  H   UNK N   1      35.278  19.808   9.192  0.00  0.00     0.167 HD
ENDBRANCH  24  26
ENDBRANCH  20  24
ENDBRANCH   1  17
BRANCH   1  28
HETATM   28  C   UNK N   1      36.425  13.674   9.672  0.00  0.00     0.034 C 
BRANCH  28  29
HETATM   29  C   UNK N   1      36.377  12.948   8.334  0.00  0.00     0.004 C 
BRANCH  29  30
HETATM   30  C   UNK N   1      35.239  11.950   8.275  0.00  0.00     0.019 C 
BRANCH  30  31
HETATM   31  C   UNK N   1      34.453  12.137   6.985  0.00  0.00     0.111 C 
BRANCH  31  32
HETATM   32  N   UNK N   1      33.046  11.835   7.192  0.00  0.00    -0.430 N 
HETATM   33  H   UNK N   1      32.116  12.231   7.047  0.00  0.00     0.149 HD
HETATM   34  H   UNK N   1      32.958  10.920   7.631  0.00  0.00     0.149 HD
ENDBRANCH  31  32
ENDBRANCH  30  31
ENDBRANCH  29  30
ENDBRANCH  28  29
ENDBRANCH   1  28
TORSDOF 15
ENDMDL
MODEL 8
REMARK VINA RESULT:      -6.0     17.869     21.997
REMARK  15 active torsions:
REMARK  status: ('A' for Active; 'I' for Inactive)
REMARK    1  A    between atoms: O_2  and  C_18 
REMARK    2  A    between atoms: O_4  and  C_22 
REMARK       I    between atoms: N_6  and  C_14 
REMARK    3  A    between atoms: C_13  and  N_7 
REMARK    4  A    between atoms: C_16  and  N_7 
REMARK    5  A    between atoms: N_8  and  C_23 
REMARK    6  A    between atoms: C_9  and  C_18 
REMARK    7  A    between atoms: C_13  and  C_14 
REMARK    8  A    between atoms: C_13  and  C_15 
REMARK    9  A    between atoms: C_15  and  C_17 
REMARK   10  A    between atoms: C_16  and  C_19 
REMARK   11  A    between atoms: C_16  and  C_22 
REMARK   12  A    between atoms: C_17  and  C_20 
REMARK   13  A    between atoms: C_19  and  C_21 
REMARK   14  A    between atoms: C_20  and  C_23 
REMARK   15  A    between atoms: C_21  and  C_24 
ROOT
HETATM    1  C   UNK N   1      28.545  24.274  -4.917  0.00  0.00     0.170 C 
ENDROOT
BRANCH   1   2
HETATM    2  N   UNK N   1      28.924  23.404  -3.778  0.00  0.00    -0.396 N 
HETATM    3  H   UNK N   1      28.303  23.310  -2.974  0.00  0.00     0.155 HD
BRANCH   2   4
HETATM    4  C   UNK N   1      30.205  22.676  -3.813  0.00  0.00     0.176 C 
BRANCH   4   5
HETATM    5  C   UNK N   1      30.156  21.386  -4.628  0.00  0.00     0.040 C 
BRANCH   5   6
HETATM    6  C   UNK N   1      31.279  21.340  -5.669  0.00  0.00     0.041 C 
BRANCH   6   7
HETATM    7  C   UNK N   1      30.926  20.502  -6.863  0.00  0.00    -0.058 A 
HETATM    8  C   UNK N   1      31.807  20.448  -7.950  0.00  0.00     0.007 A 
HETATM    9  C   UNK N   1      31.505  19.652  -9.060  0.00  0.00     0.001 A 
HETATM   10  C   UNK N   1      30.326  18.901  -9.084  0.00  0.00     0.000 A 
HETATM   11  C   UNK N   1      29.443  18.953  -8.000  0.00  0.00     0.001 A 
HETATM   12  C   UNK N   1      29.740  19.753  -6.893  0.00  0.00     0.007 A 
ENDBRANCH   6   7
ENDBRANCH   5   6
ENDBRANCH   4   5
BRANCH   4  13
HETATM   13  C   UNK N   1      30.921  22.551  -2.497  0.00  0.00     0.163 C 
HETATM   14  O   UNK N   1      30.470  23.116  -1.512  0.00  0.00    -0.648 OA
BRANCH  13  15
HETATM   15  O   UNK N   1      32.010  21.772  -2.374  0.00  0.00    -0.775 OA
HETATM   16  H   UNK N   1      32.535  21.528  -1.637  0.00  0.00     0.167 HD
ENDBRANCH  13  15
ENDBRANCH   4  13
ENDBRANCH   2   4
ENDBRANCH   1   2
BRANCH   1  17
HETATM   17  C   UNK N   1      27.462  23.613  -5.765  0.00  0.00     0.243 C 
HETATM   18  O   UNK N   1      26.366  23.421  -5.261  0.00  0.00    -0.271 OA
HETATM   19  N   UNK N   1      27.707  23.173  -7.043  0.00  0.00    -0.336 N 
HETATM   20  C   UNK N   1      26.742  22.424  -7.824  0.00  0.00     0.185 C 
HETATM   21  C   UNK N   1      28.979  23.337  -7.687  0.00  0.00     0.127 C 
HETATM   22  C   UNK N   1      27.520  21.959  -9.051  0.00  0.00     0.038 C 
HETATM   23  C   UNK N   1      28.797  22.788  -9.089  0.00  0.00     0.022 C 
BRANCH  20  24
HETATM   24  C   UNK N   1      25.524  23.230  -8.216  0.00  0.00     0.163 C 
HETATM   25  O   UNK N   1      25.628  24.422  -8.450  0.00  0.00    -0.648 OA
BRANCH  24  26
HETATM   26  O   UNK N   1      24.303  22.659  -8.241  0.00  0.00    -0.775 OA
HETATM   27  H   UNK N   1      23.609  22.579  -7.616  0.00  0.00     0.167 HD
ENDBRANCH  24  26
ENDBRANCH  20  24
ENDBRANCH   1  17
BRANCH   1  28
HETATM   28  C   UNK N   1      28.293  25.748  -4.591  0.00  0.00     0.034 C 
BRANCH  28  29
HETATM   29  C   UNK N   1      27.828  26.411  -5.881  0.00  0.00     0.004 C 
BRANCH  29  30
HETATM   30  C   UNK N   1      26.758  27.452  -5.625  0.00  0.00     0.019 C 
BRANCH  30  31
HETATM   31  C   UNK N   1      25.470  27.055  -6.333  0.00  0.00     0.111 C 
BRANCH  31  32
HETATM   32  N   UNK N   1      24.872  25.892  -5.696  0.00  0.00    -0.430 N 
HETATM   33  H   UNK N   1      24.749  24.887  -5.827  0.00  0.00     0.149 HD
HETATM   34  H   UNK N   1      24.425  26.176  -4.826  0.00  0.00     0.149 HD
ENDBRANCH  31  32
ENDBRANCH  30  31
ENDBRANCH  29  30
ENDBRANCH  28  29
ENDBRANCH   1  28
TORSDOF 15
ENDMDL
MODEL 9
REMARK VINA RESULT:      -6.0      2.866      4.450
REMARK  15 active torsions:
REMARK  status: ('A' for Active; 'I' for Inactive)
REMARK    1  A    between atoms: O_2  and  C_18 
REMARK    2  A    between atoms: O_4  and  C_22 
REMARK       I    between atoms: N_6  and  C_14 
REMARK    3  A    between atoms: C_13  and  N_7 
REMARK    4  A    between atoms: C_16  and  N_7 
REMARK    5  A    between atoms: N_8  and  C_23 
REMARK    6  A    between atoms: C_9  and  C_18 
REMARK    7  A    between atoms: C_13  and  C_14 
REMARK    8  A    between atoms: C_13  and  C_15 
REMARK    9  A    between atoms: C_15  and  C_17 
REMARK   10  A    between atoms: C_16  and  C_19 
REMARK   11  A    between atoms: C_16  and  C_22 
REMARK   12  A    between atoms: C_17  and  C_20 
REMARK   13  A    between atoms: C_19  and  C_21 
REMARK   14  A    between atoms: C_20  and  C_23 
REMARK   15  A    between atoms: C_21  and  C_24 
ROOT
HETATM    1  C   UNK N   1      34.150  14.073  10.002  0.00  0.00     0.170 C 
ENDROOT
BRANCH   1   2
HETATM    2  N   UNK N   1      34.185  13.813  11.461  0.00  0.00    -0.396 N 
HETATM    3  H   UNK N   1      33.403  14.098  12.052  0.00  0.00     0.155 HD
BRANCH   2   4
HETATM    4  C   UNK N   1      35.355  13.143  12.053  0.00  0.00     0.176 C 
BRANCH   4   5
HETATM    5  C   UNK N   1      35.060  11.740  12.577  0.00  0.00     0.040 C 
BRANCH   5   6
HETATM    6  C   UNK N   1      35.758  10.670  11.733  0.00  0.00     0.041 C 
BRANCH   6   7
HETATM    7  C   UNK N   1      34.815   9.956  10.808  0.00  0.00    -0.058 A 
HETATM    8  C   UNK N   1      35.294   9.446   9.595  0.00  0.00     0.007 A 
HETATM    9  C   UNK N   1      34.434   8.756   8.734  0.00  0.00     0.001 A 
HETATM   10  C   UNK N   1      33.094   8.568   9.086  0.00  0.00     0.000 A 
HETATM   11  C   UNK N   1      32.611   9.077  10.296  0.00  0.00     0.001 A 
HETATM   12  C   UNK N   1      33.468   9.772  11.154  0.00  0.00     0.007 A 
ENDBRANCH   6   7
ENDBRANCH   5   6
ENDBRANCH   4   5
BRANCH   4  13
HETATM   13  C   UNK N   1      36.192  13.985  12.975  0.00  0.00     0.163 C 
HETATM   14  O   UNK N   1      36.684  13.478  13.971  0.00  0.00    -0.648 OA
BRANCH  13  15
HETATM   15  O   UNK N   1      36.462  15.270  12.684  0.00  0.00    -0.775 OA
HETATM   16  H   UNK N   1      36.262  15.808  11.943  0.00  0.00     0.167 HD
ENDBRANCH  13  15
ENDBRANCH   4  13
ENDBRANCH   2   4
ENDBRANCH   1   2
BRANCH   1  17
HETATM   17  C   UNK N   1      34.254  15.569   9.716  0.00  0.00     0.243 C 
HETATM   18  O   UNK N   1      35.182  16.190  10.209  0.00  0.00    -0.271 OA
HETATM   19  N   UNK N   1      33.304  16.236   8.982  0.00  0.00    -0.336 N 
HETATM   20  C   UNK N   1      33.303  17.675   8.805  0.00  0.00     0.185 C 
HETATM   21  C   UNK N   1      32.172  15.575   8.398  0.00  0.00     0.127 C 
HETATM   22  C   UNK N   1      31.965  17.978   8.138  0.00  0.00     0.038 C 
HETATM   23  C   UNK N   1      31.430  16.648   7.625  0.00  0.00     0.022 C 
BRANCH  20  24
HETATM   24  C   UNK N   1      34.461  18.184   7.977  0.00  0.00     0.163 C 
HETATM   25  O   UNK N   1      35.205  19.040   8.425  0.00  0.00    -0.648 OA
BRANCH  24  26
HETATM   26  O   UNK N   1      34.643  17.752   6.713  0.00  0.00    -0.775 OA
HETATM   27  H   UNK N   1      34.334  18.040   5.876  0.00  0.00     0.167 HD
ENDBRANCH  24  26
ENDBRANCH  20  24
ENDBRANCH   1  17
BRANCH   1  28
HETATM   28  C   UNK N   1      35.049  13.190   9.133  0.00  0.00     0.034 C 
BRANCH  28  29
HETATM   29  C   UNK N   1      36.104  14.103   8.520  0.00  0.00     0.004 C 
BRANCH  29  30
HETATM   30  C   UNK N   1      37.428  13.390   8.337  0.00  0.00     0.019 C 
BRANCH  30  31
HETATM   31  C   UNK N   1      38.263  13.517   9.603  0.00  0.00     0.111 C 
BRANCH  31  32
HETATM   32  N   UNK N   1      38.078  14.825  10.212  0.00  0.00    -0.430 N 
HETATM   33  H   UNK N   1      38.576  15.698  10.393  0.00  0.00     0.149 HD
HETATM   34  H   UNK N   1      37.132  14.893  10.584  0.00  0.00     0.149 HD
ENDBRANCH  31  32
ENDBRANCH  30  31
ENDBRANCH  29  30
ENDBRANCH  28  29
ENDBRANCH   1  28
TORSDOF 15
ENDMDL
