MODEL 1
REMARK VINA RESULT:      -5.4      0.000      0.000
REMARK  6 active torsions:
REMARK  status: ('A' for Active; 'I' for Inactive)
REMARK    1  A    between atoms: O_1  and  C_5 
REMARK    2  A    between atoms: O_2  and  C_9 
REMARK    3  A    between atoms: O_3  and  C_11 
REMARK    4  A    between atoms: N_4  and  C_6 
REMARK    5  A    between atoms: C_5  and  C_6 
REMARK    6  A    between atoms: C_5  and  C_7 
ROOT
HETATM    1  C   UNK N   1      26.372  25.434  -4.285  0.00  0.00     0.008 A 
HETATM    2  C   UNK N   1      25.529  25.535  -5.440  0.00  0.00     0.077 A 
HETATM    3  C   UNK N   1      26.555  26.577  -3.486  0.00  0.00     0.049 A 
HETATM    4  C   UNK N   1      25.943  27.791  -3.790  0.00  0.00     0.069 A 
HETATM    5  C   UNK N   1      24.902  26.757  -5.715  0.00  0.00     0.040 A 
HETATM    6  C   UNK N   1      25.106  27.873  -4.908  0.00  0.00     0.039 A 
ENDROOT
BRANCH   1   7
HETATM    7  C   UNK N   1      27.059  24.137  -3.882  0.00  0.00     0.175 C 
BRANCH   7   8
HETATM    8  O   UNK N   1      26.881  23.938  -2.511  0.00  0.00    -0.389 OA
HETATM    9  H   UNK N   1      27.245  24.112  -1.629  0.00  0.00     0.210 HD
ENDBRANCH   7   8
BRANCH   7  10
HETATM   10  C   UNK N   1      28.565  24.055  -4.193  0.00  0.00     0.103 C 
HETATM   11  C   UNK N   1      28.856  23.148  -5.377  0.00  0.00     0.034 C 
BRANCH  10  12
HETATM   12  N   UNK N   1      29.281  23.544  -3.036  0.00  0.00    -0.424 N 
HETATM   13  H   UNK N   1      29.726  22.627  -3.074  0.00  0.00     0.150 HD
HETATM   14  H   UNK N   1      29.338  24.103  -2.184  0.00  0.00     0.150 HD
ENDBRANCH  10  12
ENDBRANCH   7  10
ENDBRANCH   1   7
BRANCH   2  15
HETATM   15  O   UNK N   1      25.288  24.520  -6.314  0.00  0.00    -0.355 OA
HETATM   16  C   UNK N   1      25.958  24.268  -7.486  0.00  0.00     0.210 C 
ENDBRANCH   2  15
BRANCH   4  17
HETATM   17  O   UNK N   1      26.181  28.863  -2.999  0.00  0.00    -0.356 OA
HETATM   18  C   UNK N   1      26.513  30.106  -3.490  0.00  0.00     0.210 C 
ENDBRANCH   4  17
TORSDOF 6
ENDMDL
MODEL 2
REMARK VINA RESULT:      -5.2     16.011     18.293
REMARK  6 active torsions:
REMARK  status: ('A' for Active; 'I' for Inactive)
REMARK    1  A    between atoms: O_1  and  C_5 
REMARK    2  A    between atoms: O_2  and  C_9 
REMARK    3  A    between atoms: O_3  and  C_11 
REMARK    4  A    between atoms: N_4  and  C_6 
REMARK    5  A    between atoms: C_5  and  C_6 
REMARK    6  A    between atoms: C_5  and  C_7 
ROOT
HETATM    1  C   UNK N   1      42.722  22.243   2.836  0.00  0.00     0.008 A 
HETATM    2  C   UNK N   1      41.575  22.768   2.156  0.00  0.00     0.077 A 
HETATM    3  C   UNK N   1      42.758  20.868   3.128  0.00  0.00     0.049 A 
HETATM    4  C   UNK N   1      41.714  20.015   2.775  0.00  0.00     0.069 A 
HETATM    5  C   UNK N   1      40.548  21.890   1.786  0.00  0.00     0.040 A 
HETATM    6  C   UNK N   1      40.608  20.534   2.093  0.00  0.00     0.039 A 
ENDROOT
BRANCH   1   7
HETATM    7  C   UNK N   1      43.906  23.112   3.237  0.00  0.00     0.175 C 
BRANCH   7   8
HETATM    8  O   UNK N   1      43.468  24.080   4.144  0.00  0.00    -0.389 OA
HETATM    9  H   UNK N   1      43.257  25.018   4.264  0.00  0.00     0.210 HD
ENDBRANCH   7   8
BRANCH   7  10
HETATM   10  C   UNK N   1      44.633  23.823   2.081  0.00  0.00     0.103 C 
HETATM   11  C   UNK N   1      44.903  22.888   0.914  0.00  0.00     0.034 C 
BRANCH  10  12
HETATM   12  N   UNK N   1      45.904  24.353   2.548  0.00  0.00    -0.424 N 
HETATM   13  H   UNK N   1      46.744  23.775   2.508  0.00  0.00     0.150 HD
HETATM   14  H   UNK N   1      45.955  25.302   2.918  0.00  0.00     0.150 HD
ENDBRANCH  10  12
ENDBRANCH   7  10
ENDBRANCH   1   7
BRANCH   2  15
HETATM   15  O   UNK N   1      41.396  24.079   1.837  0.00  0.00    -0.355 OA
HETATM   16  C   UNK N   1      40.913  24.578   0.651  0.00  0.00     0.210 C 
ENDBRANCH   2  15
BRANCH   4  17
HETATM   17  O   UNK N   1      41.794  18.706   3.109  0.00  0.00    -0.356 OA
HETATM   18  C   UNK N   1      42.753  17.855   2.605  0.00  0.00     0.210 C 
ENDBRANCH   4  17
TORSDOF 6
ENDMDL
MODEL 3
REMARK VINA RESULT:      -5.1     15.092     16.355
REMARK  6 active torsions:
REMARK  status: ('A' for Active; 'I' for Inactive)
REMARK    1  A    between atoms: O_1  and  C_5 
REMARK    2  A    between atoms: O_2  and  C_9 
REMARK    3  A    between atoms: O_3  and  C_11 
REMARK    4  A    between atoms: N_4  and  C_6 
REMARK    5  A    between atoms: C_5  and  C_6 
REMARK    6  A    between atoms: C_5  and  C_7 
ROOT
HETATM    1  C   UNK N   1      32.785  17.615   7.764  0.00  0.00     0.008 A 
HETATM    2  C   UNK N   1      32.908  17.093   6.435  0.00  0.00     0.077 A 
HETATM    3  C   UNK N   1      31.497  17.798   8.297  0.00  0.00     0.049 A 
HETATM    4  C   UNK N   1      30.350  17.487   7.569  0.00  0.00     0.069 A 
HETATM    5  C   UNK N   1      31.744  16.763   5.728  0.00  0.00     0.040 A 
HETATM    6  C   UNK N   1      30.481  16.959   6.280  0.00  0.00     0.039 A 
ENDROOT
BRANCH   1   7
HETATM    7  C   UNK N   1      33.994  17.960   8.623  0.00  0.00     0.175 C 
BRANCH   7   8
HETATM    8  O   UNK N   1      34.928  18.637   7.836  0.00  0.00    -0.389 OA
HETATM    9  H   UNK N   1      35.840  18.965   7.789  0.00  0.00     0.210 HD
ENDBRANCH   7   8
BRANCH   7  10
HETATM   10  C   UNK N   1      34.698  16.767   9.295  0.00  0.00     0.103 C 
HETATM   11  C   UNK N   1      33.791  15.552   9.397  0.00  0.00     0.034 C 
BRANCH  10  12
HETATM   12  N   UNK N   1      35.124  17.136  10.635  0.00  0.00    -0.424 N 
HETATM   13  H   UNK N   1      35.125  16.441  11.381  0.00  0.00     0.150 HD
HETATM   14  H   UNK N   1      35.422  18.092  10.829  0.00  0.00     0.150 HD
ENDBRANCH  10  12
ENDBRANCH   7  10
ENDBRANCH   1   7
BRANCH   2  15
HETATM   15  O   UNK N   1      34.087  16.894   5.786  0.00  0.00    -0.355 OA
HETATM   16  C   UNK N   1      34.735  15.695   5.608  0.00  0.00     0.210 C 
ENDBRANCH   2  15
BRANCH   4  17
HETATM   17  O   UNK N   1      29.138  17.712   8.127  0.00  0.00    -0.356 OA
HETATM   18  C   UNK N   1      28.973  18.202   9.404  0.00  0.00     0.210 C 
ENDBRANCH   4  17
TORSDOF 6
ENDMDL
MODEL 4
REMARK VINA RESULT:      -5.0     12.783     14.643
REMARK  6 active torsions:
REMARK  status: ('A' for Active; 'I' for Inactive)
REMARK    1  A    between atoms: O_1  and  C_5 
REMARK    2  A    between atoms: O_2  and  C_9 
REMARK    3  A    between atoms: O_3  and  C_11 
REMARK    4  A    between atoms: N_4  and  C_6 
REMARK    5  A    between atoms: C_5  and  C_6 
REMARK    6  A    between atoms: C_5  and  C_7 
ROOT
HETATM    1  C   UNK N   1      30.860  17.179   6.213  0.00  0.00     0.008 A 
HETATM    2  C   UNK N   1      30.825  17.247   4.782  0.00  0.00     0.077 A 
HETATM    3  C   UNK N   1      32.094  17.350   6.863  0.00  0.00     0.049 A 
HETATM    4  C   UNK N   1      33.272  17.582   6.154  0.00  0.00     0.069 A 
HETATM    5  C   UNK N   1      32.014  17.506   4.088  0.00  0.00     0.040 A 
HETATM    6  C   UNK N   1      33.224  17.668   4.759  0.00  0.00     0.039 A 
ENDROOT
BRANCH   1   7
HETATM    7  C   UNK N   1      29.611  16.946   7.053  0.00  0.00     0.175 C 
BRANCH   7   8
HETATM    8  O   UNK N   1      28.757  16.083   6.361  0.00  0.00    -0.389 OA
HETATM    9  H   UNK N   1      28.640  15.180   6.027  0.00  0.00     0.210 HD
ENDBRANCH   7   8
BRANCH   7  10
HETATM   10  C   UNK N   1      28.819  18.210   7.436  0.00  0.00     0.103 C 
HETATM   11  C   UNK N   1      28.623  18.327   8.937  0.00  0.00     0.034 C 
BRANCH  10  12
HETATM   12  N   UNK N   1      27.511  18.182   6.802  0.00  0.00    -0.424 N 
HETATM   13  H   UNK N   1      27.317  18.787   6.003  0.00  0.00     0.150 HD
HETATM   14  H   UNK N   1      26.786  17.559   7.157  0.00  0.00     0.150 HD
ENDBRANCH  10  12
ENDBRANCH   7  10
ENDBRANCH   1   7
BRANCH   2  15
HETATM   15  O   UNK N   1      29.708  17.072   4.024  0.00  0.00    -0.355 OA
HETATM   16  C   UNK N   1      29.603  16.323   2.876  0.00  0.00     0.210 C 
ENDBRANCH   2  15
BRANCH   4  17
HETATM   17  O   UNK N   1      34.434  17.710   6.836  0.00  0.00    -0.356 OA
HETATM   18  C   UNK N   1      34.515  18.271   8.092  0.00  0.00     0.210 C 
ENDBRANCH   4  17
TORSDOF 6
ENDMDL
MODEL 5
REMARK VINA RESULT:      -4.9     13.984     16.188
REMARK  6 active torsions:
REMARK  status: ('A' for Active; 'I' for Inactive)
REMARK    1  A    between atoms: O_1  and  C_5 
REMARK    2  A    between atoms: O_2  and  C_9 
REMARK    3  A    between atoms: O_3  and  C_11 
REMARK    4  A    between atoms: N_4  and  C_6 
REMARK    5  A    between atoms: C_5  and  C_6 
REMARK    6  A    between atoms: C_5  and  C_7 
ROOT
HETATM    1  C   UNK N   1      32.809  17.519   7.499  0.00  0.00     0.008 A 
HETATM    2  C   UNK N   1      31.423  17.541   7.862  0.00  0.00     0.077 A 
HETATM    3  C   UNK N   1      33.155  17.125   6.194  0.00  0.00     0.049 A 
HETATM    4  C   UNK N   1      32.189  16.759   5.258  0.00  0.00     0.069 A 
HETATM    5  C   UNK N   1      30.466  17.195   6.899  0.00  0.00     0.040 A 
HETATM    6  C   UNK N   1      30.838  16.804   5.616  0.00  0.00     0.039 A 
ENDROOT
BRANCH   1   7
HETATM    7  C   UNK N   1      33.915  17.921   8.464  0.00  0.00     0.175 C 
BRANCH   7   8
HETATM    8  O   UNK N   1      34.880  18.651   7.765  0.00  0.00    -0.389 OA
HETATM    9  H   UNK N   1      35.788  18.647   7.425  0.00  0.00     0.210 HD
ENDBRANCH   7   8
BRANCH   7  10
HETATM   10  C   UNK N   1      34.619  16.761   9.193  0.00  0.00     0.103 C 
HETATM   11  C   UNK N   1      33.712  15.553   9.351  0.00  0.00     0.034 C 
BRANCH  10  12
HETATM   12  N   UNK N   1      35.043  17.194  10.515  0.00  0.00    -0.424 N 
HETATM   13  H   UNK N   1      36.031  17.357  10.706  0.00  0.00     0.150 HD
HETATM   14  H   UNK N   1      34.351  17.334  11.251  0.00  0.00     0.150 HD
ENDBRANCH  10  12
ENDBRANCH   7  10
ENDBRANCH   1   7
BRANCH   2  15
HETATM   15  O   UNK N   1      30.950  17.873   9.094  0.00  0.00    -0.355 OA
HETATM   16  C   UNK N   1      29.876  18.684   9.371  0.00  0.00     0.210 C 
ENDBRANCH   2  15
BRANCH   4  17
HETATM   17  O   UNK N   1      32.587  16.362   4.026  0.00  0.00    -0.356 OA
HETATM   18  C   UNK N   1      32.211  17.005   2.867  0.00  0.00     0.210 C 
ENDBRANCH   4  17
TORSDOF 6
ENDMDL
MODEL 6
REMARK VINA RESULT:      -4.8     12.475     14.178
REMARK  6 active torsions:
REMARK  status: ('A' for Active; 'I' for Inactive)
REMARK    1  A    between atoms: O_1  and  C_5 
REMARK    2  A    between atoms: O_2  and  C_9 
REMARK    3  A    between atoms: O_3  and  C_11 
REMARK    4  A    between atoms: N_4  and  C_6 
REMARK    5  A    between atoms: C_5  and  C_6 
REMARK    6  A    between atoms: C_5  and  C_7 
ROOT
HETATM    1  C   UNK N   1      28.474  17.982   7.323  0.00  0.00     0.008 A 
HETATM    2  C   UNK N   1      29.165  17.265   6.293  0.00  0.00     0.077 A 
HETATM    3  C   UNK N   1      27.799  19.167   6.980  0.00  0.00     0.049 A 
HETATM    4  C   UNK N   1      27.789  19.653   5.673  0.00  0.00     0.069 A 
HETATM    5  C   UNK N   1      29.122  17.756   4.982  0.00  0.00     0.040 A 
HETATM    6  C   UNK N   1      28.450  18.934   4.671  0.00  0.00     0.039 A 
ENDROOT
BRANCH   1   7
HETATM    7  C   UNK N   1      28.428  17.502   8.767  0.00  0.00     0.175 C 
BRANCH   7   8
HETATM    8  O   UNK N   1      27.352  18.115   9.413  0.00  0.00    -0.389 OA
HETATM    9  H   UNK N   1      26.843  18.165  10.237  0.00  0.00     0.210 HD
ENDBRANCH   7   8
BRANCH   7  10
HETATM   10  C   UNK N   1      29.701  17.757   9.596  0.00  0.00     0.103 C 
HETATM   11  C   UNK N   1      30.414  19.029   9.169  0.00  0.00     0.034 C 
BRANCH  10  12
HETATM   12  N   UNK N   1      30.620  16.641   9.444  0.00  0.00    -0.424 N 
HETATM   13  H   UNK N   1      31.614  16.767   9.640  0.00  0.00     0.150 HD
HETATM   14  H   UNK N   1      30.272  15.732   9.142  0.00  0.00     0.150 HD
ENDBRANCH  10  12
ENDBRANCH   7  10
ENDBRANCH   1   7
BRANCH   2  15
HETATM   15  O   UNK N   1      29.881  16.124   6.490  0.00  0.00    -0.355 OA
HETATM   16  C   UNK N   1      30.589  15.424   5.542  0.00  0.00     0.210 C 
ENDBRANCH   2  15
BRANCH   4  17
HETATM   17  O   UNK N   1      27.145  20.814   5.410  0.00  0.00    -0.356 OA
HETATM   18  C   UNK N   1      26.665  21.651   6.394  0.00  0.00     0.210 C 
ENDBRANCH   4  17
TORSDOF 6
ENDMDL
MODEL 7
REMARK VINA RESULT:      -4.8     12.257     14.113
REMARK  6 active torsions:
REMARK  status: ('A' for Active; 'I' for Inactive)
REMARK    1  A    between atoms: O_1  and  C_5 
REMARK    2  A    between atoms: O_2  and  C_9 
REMARK    3  A    between atoms: O_3  and  C_11 
REMARK    4  A    between atoms: N_4  and  C_6 
REMARK    5  A    between atoms: C_5  and  C_6 
REMARK    6  A    between atoms: C_5  and  C_7 
ROOT
HETATM    1  C   UNK N   1      28.201  17.913   6.893  0.00  0.00     0.008 A 
HETATM    2  C   UNK N   1      27.721  19.128   6.305  0.00  0.00     0.077 A 
HETATM    3  C   UNK N   1      28.395  16.795   6.062  0.00  0.00     0.049 A 
HETATM    4  C   UNK N   1      28.133  16.844   4.693  0.00  0.00     0.069 A 
HETATM    5  C   UNK N   1      27.487  19.165   4.924  0.00  0.00     0.040 A 
HETATM    6  C   UNK N   1      27.684  18.042   4.126  0.00  0.00     0.039 A 
ENDROOT
BRANCH   1   7
HETATM    7  C   UNK N   1      28.524  17.792   8.376  0.00  0.00     0.175 C 
BRANCH   7   8
HETATM    8  O   UNK N   1      27.452  18.297   9.114  0.00  0.00    -0.389 OA
HETATM    9  H   UNK N   1      26.715  18.071   9.703  0.00  0.00     0.210 HD
ENDBRANCH   7   8
BRANCH   7  10
HETATM   10  C   UNK N   1      29.810  18.502   8.839  0.00  0.00     0.103 C 
HETATM   11  C   UNK N   1      31.060  17.736   8.440  0.00  0.00     0.034 C 
BRANCH  10  12
HETATM   12  N   UNK N   1      29.801  18.646  10.285  0.00  0.00    -0.424 N 
HETATM   13  H   UNK N   1      29.374  17.926  10.868  0.00  0.00     0.150 HD
HETATM   14  H   UNK N   1      30.221  19.468  10.718  0.00  0.00     0.150 HD
ENDBRANCH  10  12
ENDBRANCH   7  10
ENDBRANCH   1   7
BRANCH   2  15
HETATM   15  O   UNK N   1      27.462  20.273   6.994  0.00  0.00    -0.355 OA
HETATM   16  C   UNK N   1      26.898  21.422   6.495  0.00  0.00     0.210 C 
ENDBRANCH   2  15
BRANCH   4  17
HETATM   17  O   UNK N   1      28.313  15.727   3.951  0.00  0.00    -0.356 OA
HETATM   18  C   UNK N   1      28.931  15.730   2.720  0.00  0.00     0.210 C 
ENDBRANCH   4  17
TORSDOF 6
ENDMDL
MODEL 8
REMARK VINA RESULT:      -4.8     24.989     27.083
REMARK  6 active torsions:
REMARK  status: ('A' for Active; 'I' for Inactive)
REMARK    1  A    between atoms: O_1  and  C_5 
REMARK    2  A    between atoms: O_2  and  C_9 
REMARK    3  A    between atoms: O_3  and  C_11 
REMARK    4  A    between atoms: N_4  and  C_6 
REMARK    5  A    between atoms: C_5  and  C_6 
REMARK    6  A    between atoms: C_5  and  C_7 
ROOT
HETATM    1  C   UNK N   1      35.500  12.211  16.522  0.00  0.00     0.008 A 
HETATM    2  C   UNK N   1      35.755  10.910  15.978  0.00  0.00     0.077 A 
HETATM    3  C   UNK N   1      35.272  12.328  17.905  0.00  0.00     0.049 A 
HETATM    4  C   UNK N   1      35.289  11.217  18.748  0.00  0.00     0.069 A 
HETATM    5  C   UNK N   1      35.793   9.810  16.845  0.00  0.00     0.040 A 
HETATM    6  C   UNK N   1      35.560   9.955  18.210  0.00  0.00     0.039 A 
ENDROOT
BRANCH   1   7
HETATM    7  C   UNK N   1      35.482  13.469  15.665  0.00  0.00     0.175 C 
BRANCH   7   8
HETATM    8  O   UNK N   1      34.676  13.242  14.547  0.00  0.00    -0.389 OA
HETATM    9  H   UNK N   1      34.059  13.646  13.917  0.00  0.00     0.210 HD
ENDBRANCH   7   8
BRANCH   7  10
HETATM   10  C   UNK N   1      36.857  13.964  15.179  0.00  0.00     0.103 C 
HETATM   11  C   UNK N   1      37.292  15.234  15.891  0.00  0.00     0.034 C 
BRANCH  10  12
HETATM   12  N   UNK N   1      36.809  14.231  13.751  0.00  0.00    -0.424 N 
HETATM   13  H   UNK N   1      36.568  15.163  13.413  0.00  0.00     0.150 HD
HETATM   14  H   UNK N   1      37.015  13.486  13.085  0.00  0.00     0.150 HD
ENDBRANCH  10  12
ENDBRANCH   7  10
ENDBRANCH   1   7
BRANCH   2  15
HETATM   15  O   UNK N   1      35.962  10.649  14.658  0.00  0.00    -0.355 OA
HETATM   16  C   UNK N   1      35.240   9.786  13.868  0.00  0.00     0.210 C 
ENDBRANCH   2  15
BRANCH   4  17
HETATM   17  O   UNK N   1      35.036  11.391  20.066  0.00  0.00    -0.356 OA
HETATM   18  C   UNK N   1      34.469  10.418  20.860  0.00  0.00     0.210 C 
ENDBRANCH   4  17
TORSDOF 6
ENDMDL
MODEL 9
REMARK VINA RESULT:      -4.6     13.811     15.347
REMARK  6 active torsions:
REMARK  status: ('A' for Active; 'I' for Inactive)
REMARK    1  A    between atoms: O_1  and  C_5 
REMARK    2  A    between atoms: O_2  and  C_9 
REMARK    3  A    between atoms: O_3  and  C_11 
REMARK    4  A    between atoms: N_4  and  C_6 
REMARK    5  A    between atoms: C_5  and  C_6 
REMARK    6  A    between atoms: C_5  and  C_7 
ROOT
HETATM    1  C   UNK N   1      32.563  17.331   5.783  0.00  0.00     0.008 A 
HETATM    2  C   UNK N   1      31.222  17.168   6.260  0.00  0.00     0.077 A 
HETATM    3  C   UNK N   1      33.582  17.588   6.717  0.00  0.00     0.049 A 
HETATM    4  C   UNK N   1      33.317  17.688   8.082  0.00  0.00     0.069 A 
HETATM    5  C   UNK N   1      30.980  17.246   7.637  0.00  0.00     0.040 A 
HETATM    6  C   UNK N   1      32.007  17.506   8.540  0.00  0.00     0.039 A 
ENDROOT
BRANCH   1   7
HETATM    7  C   UNK N   1      32.928  17.219   4.309  0.00  0.00     0.175 C 
BRANCH   7   8
HETATM    8  O   UNK N   1      31.966  17.892   3.553  0.00  0.00    -0.389 OA
HETATM    9  H   UNK N   1      31.088  18.305   3.570  0.00  0.00     0.210 HD
ENDBRANCH   7   8
BRANCH   7  10
HETATM   10  C   UNK N   1      33.060  15.785   3.761  0.00  0.00     0.103 C 
HETATM   11  C   UNK N   1      34.039  14.952   4.570  0.00  0.00     0.034 C 
BRANCH  10  12
HETATM   12  N   UNK N   1      33.519  15.824   2.382  0.00  0.00    -0.424 N 
HETATM   13  H   UNK N   1      33.846  14.971   1.928  0.00  0.00     0.150 HD
HETATM   14  H   UNK N   1      33.515  16.705   1.869  0.00  0.00     0.150 HD
ENDBRANCH  10  12
ENDBRANCH   7  10
ENDBRANCH   1   7
BRANCH   2  15
HETATM   15  O   UNK N   1      30.139  16.945   5.466  0.00  0.00    -0.355 OA
HETATM   16  C   UNK N   1      29.346  15.822   5.454  0.00  0.00     0.210 C 
ENDBRANCH   2  15
BRANCH   4  17
HETATM   17  O   UNK N   1      34.336  17.965   8.929  0.00  0.00    -0.356 OA
HETATM   18  C   UNK N   1      34.945  17.011   9.716  0.00  0.00     0.210 C 
ENDBRANCH   4  17
TORSDOF 6
ENDMDL
