MODEL 1
REMARK VINA RESULT:      -5.9      0.000      0.000
REMARK  3 active torsions:
REMARK  status: ('A' for Active; 'I' for Inactive)
REMARK    1  A    between atoms: N_1  and  C_7 
REMARK    2  A    between atoms: N_6  and  C_16 
REMARK    3  A    between atoms: C_7  and  C_8 
ROOT
HETATM    1  N   UNK N   1      29.630  17.780   7.373  0.00  0.00    -0.340 N 
HETATM    2  N   UNK N   1      30.808  17.797   9.285  0.00  0.00    -0.347 N 
ATOM      3  HN  UNK N   1      31.055  17.880  10.271  1.00  0.00     0.167 HD
HETATM    4  N   UNK N   1      33.618  16.957   7.103  0.00  0.00    -0.340 N 
ATOM      5  HN  UNK N   1      34.617  16.750   7.111  1.00  0.00     0.167 HD
HETATM    6  C   UNK N   1      30.919  17.510   7.091  0.00  0.00     0.078 A 
HETATM    7  C   UNK N   1      31.546  17.224   5.871  0.00  0.00     0.020 A 
HETATM    8  C   UNK N   1      31.624  17.518   8.253  0.00  0.00     0.105 A 
HETATM    9  C   UNK N   1      29.581  17.946   8.720  0.00  0.00     0.184 A 
HETATM   10  C   UNK N   1      32.941  16.941   5.910  0.00  0.00     0.046 A 
HETATM   11  C   UNK N   1      32.986  17.243   8.281  0.00  0.00     0.129 A 
HETATM   12  C   UNK N   1      30.864  17.201   4.650  0.00  0.00     0.016 A 
HETATM   13  C   UNK N   1      33.618  16.639   4.727  0.00  0.00     0.030 A 
HETATM   14  C   UNK N   1      31.558  16.901   3.473  0.00  0.00     0.001 A 
HETATM   15  C   UNK N   1      32.928  16.620   3.511  0.00  0.00     0.002 A 
ENDROOT
BRANCH   1  16
HETATM   16  C   UNK N   1      28.492  17.809   6.453  0.00  0.00     0.134 C 
BRANCH  16  17
HETATM   17  C   UNK N   1      28.297  19.174   5.802  0.00  0.00    -0.004 C 
HETATM   18  C   UNK N   1      27.378  20.028   6.657  0.00  0.00     0.011 C 
HETATM   19  C   UNK N   1      27.637  18.986   4.452  0.00  0.00     0.011 C 
ENDBRANCH  16  17
ENDBRANCH   1  16
BRANCH  11  20
HETATM   20  N   UNK N   1      33.702  17.238   9.494  0.00  0.00    -0.384 N 
HETATM   21  H   UNK N   1      33.726  16.426  10.050  0.00  0.00     0.157 HD
HETATM   22  H   UNK N   1      34.181  18.048   9.786  0.00  0.00     0.157 HD
ENDBRANCH  11  20
TORSDOF 3
ENDMDL
MODEL 2
REMARK VINA RESULT:      -5.9      2.462      5.729
REMARK  3 active torsions:
REMARK  status: ('A' for Active; 'I' for Inactive)
REMARK    1  A    between atoms: N_1  and  C_7 
REMARK    2  A    between atoms: N_6  and  C_16 
REMARK    3  A    between atoms: C_7  and  C_8 
ROOT
HETATM    1  N   UNK N   1      30.061  16.868   4.552  0.00  0.00    -0.340 N 
HETATM    2  N   UNK N   1      28.165  17.441   3.494  0.00  0.00    -0.347 N 
ATOM      3  HN  UNK N   1      27.463  17.576   2.767  1.00  0.00     0.167 HD
HETATM    4  N   UNK N   1      27.156  18.657   6.790  0.00  0.00    -0.340 N 
ATOM      5  HN  UNK N   1      26.384  19.100   7.290  1.00  0.00     0.167 HD
HETATM    6  C   UNK N   1      29.233  17.459   5.435  0.00  0.00     0.078 A 
HETATM    7  C   UNK N   1      29.390  17.712   6.804  0.00  0.00     0.020 A 
HETATM    8  C   UNK N   1      28.088  17.798   4.789  0.00  0.00     0.105 A 
HETATM    9  C   UNK N   1      29.386  16.860   3.373  0.00  0.00     0.184 A 
HETATM   10  C   UNK N   1      28.298  18.331   7.477  0.00  0.00     0.046 A 
HETATM   11  C   UNK N   1      27.028  18.405   5.454  0.00  0.00     0.129 A 
HETATM   12  C   UNK N   1      30.548  17.380   7.514  0.00  0.00     0.016 A 
HETATM   13  C   UNK N   1      28.392  18.599   8.844  0.00  0.00     0.030 A 
HETATM   14  C   UNK N   1      30.629  17.659   8.882  0.00  0.00     0.001 A 
HETATM   15  C   UNK N   1      29.555  18.264   9.545  0.00  0.00     0.002 A 
ENDROOT
BRANCH   1  16
HETATM   16  C   UNK N   1      31.375  16.275   4.804  0.00  0.00     0.134 C 
BRANCH  16  17
HETATM   17  C   UNK N   1      32.517  17.120   4.248  0.00  0.00    -0.004 C 
HETATM   18  C   UNK N   1      33.191  16.389   3.101  0.00  0.00     0.011 C 
HETATM   19  C   UNK N   1      33.548  17.330   5.338  0.00  0.00     0.011 C 
ENDBRANCH  16  17
ENDBRANCH   1  16
BRANCH  11  20
HETATM   20  N   UNK N   1      25.838  18.737   4.776  0.00  0.00    -0.384 N 
HETATM   21  H   UNK N   1      25.539  19.675   4.735  0.00  0.00     0.157 HD
HETATM   22  H   UNK N   1      25.306  18.032   4.342  0.00  0.00     0.157 HD
ENDBRANCH  11  20
TORSDOF 3
ENDMDL
MODEL 3
REMARK VINA RESULT:      -5.9      1.806      5.673
REMARK  3 active torsions:
REMARK  status: ('A' for Active; 'I' for Inactive)
REMARK    1  A    between atoms: N_1  and  C_7 
REMARK    2  A    between atoms: N_6  and  C_16 
REMARK    3  A    between atoms: C_7  and  C_8 
ROOT
HETATM    1  N   UNK N   1      33.090  17.431   7.298  0.00  0.00    -0.340 N 
HETATM    2  N   UNK N   1      33.002  17.084   5.081  0.00  0.00    -0.347 N 
ATOM      3  HN  UNK N   1      33.279  16.917   4.114  1.00  0.00     0.167 HD
HETATM    4  N   UNK N   1      29.391  17.359   5.577  0.00  0.00    -0.340 N 
ATOM      5  HN  UNK N   1      28.499  17.319   5.083  1.00  0.00     0.167 HD
HETATM    6  C   UNK N   1      31.803  17.460   6.905  0.00  0.00     0.078 A 
HETATM    7  C   UNK N   1      30.627  17.639   7.645  0.00  0.00     0.020 A 
HETATM    8  C   UNK N   1      31.757  17.245   5.565  0.00  0.00     0.105 A 
HETATM    9  C   UNK N   1      33.808  17.193   6.169  0.00  0.00     0.184 A 
HETATM   10  C   UNK N   1      29.396  17.581   6.931  0.00  0.00     0.046 A 
HETATM   11  C   UNK N   1      30.551  17.191   4.875  0.00  0.00     0.129 A 
HETATM   12  C   UNK N   1      30.621  17.862   9.026  0.00  0.00     0.016 A 
HETATM   13  C   UNK N   1      28.190  17.742   7.617  0.00  0.00     0.030 A 
HETATM   14  C   UNK N   1      29.405  18.026   9.698  0.00  0.00     0.001 A 
HETATM   15  C   UNK N   1      28.195  17.965   8.997  0.00  0.00     0.002 A 
ENDROOT
BRANCH   1  16
HETATM   16  C   UNK N   1      33.622  17.544   8.657  0.00  0.00     0.134 C 
BRANCH  16  17
HETATM   17  C   UNK N   1      34.349  16.282   9.110  0.00  0.00    -0.004 C 
HETATM   18  C   UNK N   1      33.342  15.213   9.492  0.00  0.00     0.011 C 
HETATM   19  C   UNK N   1      35.175  16.606  10.338  0.00  0.00     0.011 C 
ENDBRANCH  16  17
ENDBRANCH   1  16
BRANCH  11  20
HETATM   20  N   UNK N   1      30.517  16.951   3.487  0.00  0.00    -0.384 N 
HETATM   21  H   UNK N   1      29.862  17.420   2.921  0.00  0.00     0.157 HD
HETATM   22  H   UNK N   1      31.150  16.314   3.082  0.00  0.00     0.157 HD
ENDBRANCH  11  20
TORSDOF 3
ENDMDL
MODEL 4
REMARK VINA RESULT:      -5.8      1.818      2.865
REMARK  3 active torsions:
REMARK  status: ('A' for Active; 'I' for Inactive)
REMARK    1  A    between atoms: N_1  and  C_7 
REMARK    2  A    between atoms: N_6  and  C_16 
REMARK    3  A    between atoms: C_7  and  C_8 
ROOT
HETATM    1  N   UNK N   1      28.859  16.533   6.231  0.00  0.00    -0.340 N 
HETATM    2  N   UNK N   1      28.072  17.443   8.127  0.00  0.00    -0.347 N 
ATOM      3  HN  UNK N   1      27.439  17.762   8.859  1.00  0.00     0.167 HD
HETATM    4  N   UNK N   1      31.597  18.159   8.783  0.00  0.00    -0.340 N 
ATOM      5  HN  UNK N   1      32.225  18.574   9.471  1.00  0.00     0.167 HD
HETATM    6  C   UNK N   1      29.893  17.033   6.933  0.00  0.00     0.078 A 
HETATM    7  C   UNK N   1      31.267  17.033   6.660  0.00  0.00     0.020 A 
HETATM    8  C   UNK N   1      29.410  17.578   8.080  0.00  0.00     0.105 A 
HETATM    9  C   UNK N   1      27.756  16.787   6.981  0.00  0.00     0.184 A 
HETATM   10  C   UNK N   1      32.122  17.620   7.636  0.00  0.00     0.046 A 
HETATM   11  C   UNK N   1      30.252  18.152   9.026  0.00  0.00     0.129 A 
HETATM   12  C   UNK N   1      31.814  16.483   5.496  0.00  0.00     0.016 A 
HETATM   13  C   UNK N   1      33.502  17.640   7.424  0.00  0.00     0.030 A 
HETATM   14  C   UNK N   1      33.198  16.515   5.296  0.00  0.00     0.001 A 
HETATM   15  C   UNK N   1      34.039  17.089   6.256  0.00  0.00     0.002 A 
ENDROOT
BRANCH   1  16
HETATM   16  C   UNK N   1      28.900  15.793   4.969  0.00  0.00     0.134 C 
BRANCH  16  17
HETATM   17  C   UNK N   1      28.582  16.670   3.762  0.00  0.00    -0.004 C 
HETATM   18  C   UNK N   1      27.164  16.406   3.290  0.00  0.00     0.011 C 
HETATM   19  C   UNK N   1      29.525  16.313   2.632  0.00  0.00     0.011 C 
ENDBRANCH  16  17
ENDBRANCH   1  16
BRANCH  11  20
HETATM   20  N   UNK N   1      29.740  18.699  10.220  0.00  0.00    -0.384 N 
HETATM   21  H   UNK N   1      28.897  19.207  10.207  0.00  0.00     0.157 HD
HETATM   22  H   UNK N   1      30.225  18.572  11.067  0.00  0.00     0.157 HD
ENDBRANCH  11  20
TORSDOF 3
ENDMDL
MODEL 5
REMARK VINA RESULT:      -5.8      1.391      4.387
REMARK  3 active torsions:
REMARK  status: ('A' for Active; 'I' for Inactive)
REMARK    1  A    between atoms: N_1  and  C_7 
REMARK    2  A    between atoms: N_6  and  C_16 
REMARK    3  A    between atoms: C_7  and  C_8 
ROOT
HETATM    1  N   UNK N   1      31.397  16.216   6.620  0.00  0.00    -0.340 N 
HETATM    2  N   UNK N   1      31.583  16.780   8.786  0.00  0.00    -0.347 N 
ATOM      3  HN  UNK N   1      31.916  16.837   9.748  1.00  0.00     0.167 HD
HETATM    4  N   UNK N   1      28.620  18.811   8.107  0.00  0.00    -0.340 N 
ATOM      5  HN  UNK N   1      27.967  19.462   8.542  1.00  0.00     0.167 HD
HETATM    6  C   UNK N   1      30.393  17.056   6.938  0.00  0.00     0.078 A 
HETATM    7  C   UNK N   1      29.363  17.585   6.150  0.00  0.00     0.020 A 
HETATM    8  C   UNK N   1      30.515  17.396   8.247  0.00  0.00     0.105 A 
HETATM    9  C   UNK N   1      32.118  16.066   7.762  0.00  0.00     0.184 A 
HETATM   10  C   UNK N   1      28.463  18.490   6.782  0.00  0.00     0.046 A 
HETATM   11  C   UNK N   1      29.631  18.279   8.857  0.00  0.00     0.129 A 
HETATM   12  C   UNK N   1      29.196  17.268   4.798  0.00  0.00     0.016 A 
HETATM   13  C   UNK N   1      27.422  19.058   6.045  0.00  0.00     0.030 A 
HETATM   14  C   UNK N   1      28.145  17.842   4.074  0.00  0.00     0.001 A 
HETATM   15  C   UNK N   1      27.264  18.734   4.694  0.00  0.00     0.002 A 
ENDROOT
BRANCH   1  16
HETATM   16  C   UNK N   1      31.714  15.643   5.311  0.00  0.00     0.134 C 
BRANCH  16  17
HETATM   17  C   UNK N   1      33.025  16.174   4.739  0.00  0.00    -0.004 C 
HETATM   18  C   UNK N   1      32.839  17.602   4.258  0.00  0.00     0.011 C 
HETATM   19  C   UNK N   1      33.420  15.327   3.548  0.00  0.00     0.011 C 
ENDBRANCH  16  17
ENDBRANCH   1  16
BRANCH  11  20
HETATM   20  N   UNK N   1      29.778  18.636  10.212  0.00  0.00    -0.384 N 
HETATM   21  H   UNK N   1      29.202  18.224  10.896  0.00  0.00     0.157 HD
HETATM   22  H   UNK N   1      30.458  19.297  10.475  0.00  0.00     0.157 HD
ENDBRANCH  11  20
TORSDOF 3
ENDMDL
MODEL 6
REMARK VINA RESULT:      -5.8      1.928      4.140
REMARK  3 active torsions:
REMARK  status: ('A' for Active; 'I' for Inactive)
REMARK    1  A    between atoms: N_1  and  C_7 
REMARK    2  A    between atoms: N_6  and  C_16 
REMARK    3  A    between atoms: C_7  and  C_8 
ROOT
HETATM    1  N   UNK N   1      28.177  17.829   4.606  0.00  0.00    -0.340 N 
HETATM    2  N   UNK N   1      29.826  16.774   3.506  0.00  0.00    -0.347 N 
ATOM      3  HN  UNK N   1      30.373  16.338   2.763  1.00  0.00     0.167 HD
HETATM    4  N   UNK N   1      31.433  16.694   6.788  0.00  0.00    -0.340 N 
ATOM      5  HN  UNK N   1      32.281  16.391   7.269  1.00  0.00     0.167 HD
HETATM    6  C   UNK N   1      29.151  17.515   5.481  0.00  0.00     0.078 A 
HETATM    7  C   UNK N   1      29.258  17.765   6.856  0.00  0.00     0.020 A 
HETATM    8  C   UNK N   1      30.146  16.881   4.808  0.00  0.00     0.105 A 
HETATM    9  C   UNK N   1      28.612  17.374   3.402  0.00  0.00     0.184 A 
HETATM   10  C   UNK N   1      30.450  17.329   7.503  0.00  0.00     0.046 A 
HETATM   11  C   UNK N   1      31.305  16.457   5.449  0.00  0.00     0.129 A 
HETATM   12  C   UNK N   1      28.263  18.415   7.593  0.00  0.00     0.016 A 
HETATM   13  C   UNK N   1      30.618  17.559   8.870  0.00  0.00     0.030 A 
HETATM   14  C   UNK N   1      28.444  18.634   8.963  0.00  0.00     0.001 A 
HETATM   15  C   UNK N   1      29.617  18.210   9.598  0.00  0.00     0.002 A 
ENDROOT
BRANCH   1  16
HETATM   16  C   UNK N   1      26.945  18.578   4.858  0.00  0.00     0.134 C 
BRANCH  16  17
HETATM   17  C   UNK N   1      27.033  20.028   4.393  0.00  0.00    -0.004 C 
HETATM   18  C   UNK N   1      26.707  20.961   5.546  0.00  0.00     0.011 C 
HETATM   19  C   UNK N   1      26.007  20.257   3.303  0.00  0.00     0.011 C 
ENDBRANCH  16  17
ENDBRANCH   1  16
BRANCH  11  20
HETATM   20  N   UNK N   1      32.337  15.815   4.736  0.00  0.00    -0.384 N 
HETATM   21  H   UNK N   1      32.123  15.259   3.952  0.00  0.00     0.157 HD
HETATM   22  H   UNK N   1      33.273  15.923   5.021  0.00  0.00     0.157 HD
ENDBRANCH  11  20
TORSDOF 3
ENDMDL
MODEL 7
REMARK VINA RESULT:      -5.8      1.673      4.285
REMARK  3 active torsions:
REMARK  status: ('A' for Active; 'I' for Inactive)
REMARK    1  A    between atoms: N_1  and  C_7 
REMARK    2  A    between atoms: N_6  and  C_16 
REMARK    3  A    between atoms: C_7  and  C_8 
ROOT
HETATM    1  N   UNK N   1      31.616  16.941   5.055  0.00  0.00    -0.340 N 
HETATM    2  N   UNK N   1      33.704  17.366   5.764  0.00  0.00    -0.347 N 
ATOM      3  HN  UNK N   1      34.717  17.479   5.785  1.00  0.00     0.167 HD
HETATM    4  N   UNK N   1      32.056  18.078   8.949  0.00  0.00    -0.340 N 
ATOM      5  HN  UNK N   1      32.238  18.376   9.908  1.00  0.00     0.167 HD
HETATM    6  C   UNK N   1      31.571  17.279   6.357  0.00  0.00     0.078 A 
HETATM    7  C   UNK N   1      30.482  17.407   7.230  0.00  0.00     0.020 A 
HETATM    8  C   UNK N   1      32.836  17.538   6.778  0.00  0.00     0.105 A 
HETATM    9  C   UNK N   1      32.928  17.007   4.709  0.00  0.00     0.184 A 
HETATM   10  C   UNK N   1      30.765  17.823   8.562  0.00  0.00     0.046 A 
HETATM   11  C   UNK N   1      33.103  17.942   8.082  0.00  0.00     0.129 A 
HETATM   12  C   UNK N   1      29.161  17.154   6.844  0.00  0.00     0.016 A 
HETATM   13  C   UNK N   1      29.719  17.979   9.474  0.00  0.00     0.030 A 
HETATM   14  C   UNK N   1      28.125  17.310   7.771  0.00  0.00     0.001 A 
HETATM   15  C   UNK N   1      28.402  17.722   9.079  0.00  0.00     0.002 A 
ENDROOT
BRANCH   1  16
HETATM   16  C   UNK N   1      30.496  16.646   4.160  0.00  0.00     0.134 C 
BRANCH  16  17
HETATM   17  C   UNK N   1      30.513  15.208   3.651  0.00  0.00    -0.004 C 
HETATM   18  C   UNK N   1      29.384  14.997   2.659  0.00  0.00     0.011 C 
HETATM   19  C   UNK N   1      30.289  14.271   4.820  0.00  0.00     0.011 C 
ENDBRANCH  16  17
ENDBRANCH   1  16
BRANCH  11  20
HETATM   20  N   UNK N   1      34.418  18.224   8.501  0.00  0.00    -0.384 N 
HETATM   21  H   UNK N   1      34.829  19.093   8.287  0.00  0.00     0.157 HD
HETATM   22  H   UNK N   1      34.927  17.551   9.010  0.00  0.00     0.157 HD
ENDBRANCH  11  20
TORSDOF 3
ENDMDL
MODEL 8
REMARK VINA RESULT:      -5.8     12.308     15.016
REMARK  3 active torsions:
REMARK  status: ('A' for Active; 'I' for Inactive)
REMARK    1  A    between atoms: N_1  and  C_7 
REMARK    2  A    between atoms: N_6  and  C_16 
REMARK    3  A    between atoms: C_7  and  C_8 
ROOT
HETATM    1  N   UNK N   1      28.698  23.620  -5.251  0.00  0.00    -0.340 N 
HETATM    2  N   UNK N   1      27.708  22.560  -6.966  0.00  0.00    -0.347 N 
ATOM      3  HN  UNK N   1      27.511  21.887  -7.707  1.00  0.00     0.167 HD
HETATM    4  N   UNK N   1      25.237  25.239  -6.683  0.00  0.00    -0.340 N 
ATOM      5  HN  UNK N   1      24.364  25.582  -7.084  1.00  0.00     0.167 HD
HETATM    6  C   UNK N   1      27.591  24.301  -5.601  0.00  0.00     0.078 A 
HETATM    7  C   UNK N   1      27.026  25.464  -5.061  0.00  0.00     0.020 A 
HETATM    8  C   UNK N   1      26.995  23.652  -6.635  0.00  0.00     0.105 A 
HETATM    9  C   UNK N   1      28.748  22.554  -6.093  0.00  0.00     0.184 A 
HETATM   10  C   UNK N   1      25.809  25.923  -5.640  0.00  0.00     0.046 A 
HETATM   11  C   UNK N   1      25.808  24.109  -7.196  0.00  0.00     0.129 A 
HETATM   12  C   UNK N   1      27.599  26.167  -3.996  0.00  0.00     0.016 A 
HETATM   13  C   UNK N   1      25.194  27.071  -5.137  0.00  0.00     0.030 A 
HETATM   14  C   UNK N   1      26.973  27.318  -3.506  0.00  0.00     0.001 A 
HETATM   15  C   UNK N   1      25.775  27.767  -4.072  0.00  0.00     0.002 A 
ENDROOT
BRANCH   1  16
HETATM   16  C   UNK N   1      29.619  23.899  -4.148  0.00  0.00     0.134 C 
BRANCH  16  17
HETATM   17  C   UNK N   1      29.723  22.740  -3.162  0.00  0.00    -0.004 C 
HETATM   18  C   UNK N   1      28.900  23.041  -1.922  0.00  0.00     0.011 C 
HETATM   19  C   UNK N   1      31.168  22.586  -2.737  0.00  0.00     0.011 C 
ENDBRANCH  16  17
ENDBRANCH   1  16
BRANCH  11  20
HETATM   20  N   UNK N   1      25.192  23.417  -8.258  0.00  0.00    -0.384 N 
HETATM   21  H   UNK N   1      25.586  23.446  -9.160  0.00  0.00     0.157 HD
HETATM   22  H   UNK N   1      24.367  22.904  -8.098  0.00  0.00     0.157 HD
ENDBRANCH  11  20
TORSDOF 3
ENDMDL
MODEL 9
REMARK VINA RESULT:      -5.7      8.432     10.795
REMARK  3 active torsions:
REMARK  status: ('A' for Active; 'I' for Inactive)
REMARK    1  A    between atoms: N_1  and  C_7 
REMARK    2  A    between atoms: N_6  and  C_16 
REMARK    3  A    between atoms: C_7  and  C_8 
ROOT
HETATM    1  N   UNK N   1      36.391  12.953  15.120  0.00  0.00    -0.340 N 
HETATM    2  N   UNK N   1      36.885  14.949  14.217  0.00  0.00    -0.347 N 
ATOM      3  HN  UNK N   1      37.220  15.906  14.103  1.00  0.00     0.167 HD
HETATM    4  N   UNK N   1      35.372  13.524  11.210  0.00  0.00    -0.340 N 
ATOM      5  HN  UNK N   1      35.155  13.733  10.235  1.00  0.00     0.167 HD
HETATM    6  C   UNK N   1      35.967  12.968  13.841  0.00  0.00     0.078 A 
HETATM    7  C   UNK N   1      35.339  11.976  13.077  0.00  0.00     0.020 A 
HETATM    8  C   UNK N   1      36.273  14.176  13.301  0.00  0.00     0.105 A 
HETATM    9  C   UNK N   1      36.955  14.171  15.328  0.00  0.00     0.184 A 
HETATM   10  C   UNK N   1      35.046  12.294  11.720  0.00  0.00     0.046 A 
HETATM   11  C   UNK N   1      35.981  14.478  11.976  0.00  0.00     0.129 A 
HETATM   12  C   UNK N   1      35.005  10.717  13.586  0.00  0.00     0.016 A 
HETATM   13  C   UNK N   1      34.429  11.341  10.905  0.00  0.00     0.030 A 
HETATM   14  C   UNK N   1      34.384   9.776  12.758  0.00  0.00     0.001 A 
HETATM   15  C   UNK N   1      34.099  10.086  11.424  0.00  0.00     0.002 A 
ENDROOT
BRANCH   1  16
HETATM   16  C   UNK N   1      36.342  11.844  16.073  0.00  0.00     0.134 C 
BRANCH  16  17
HETATM   17  C   UNK N   1      35.072  11.851  16.918  0.00  0.00    -0.004 C 
HETATM   18  C   UNK N   1      35.174  12.914  17.997  0.00  0.00     0.011 C 
HETATM   19  C   UNK N   1      34.928  10.506  17.600  0.00  0.00     0.011 C 
ENDBRANCH  16  17
ENDBRANCH   1  16
BRANCH  11  20
HETATM   20  N   UNK N   1      36.319  15.729  11.423  0.00  0.00    -0.384 N 
HETATM   21  H   UNK N   1      35.975  15.986  10.537  0.00  0.00     0.157 HD
HETATM   22  H   UNK N   1      36.898  16.348  11.924  0.00  0.00     0.157 HD
ENDBRANCH  11  20
TORSDOF 3
ENDMDL
