REMARK  3 active torsions:
REMARK  status: ('A' for Active; 'I' for Inactive)
REMARK    1  A    between atoms: N_1  and  C_7 
REMARK    2  A    between atoms: N_6  and  C_16 
REMARK    3  A    between atoms: C_7  and  C_8 
ROOT
HETATM    1  N   UNK N   1       2.650   0.419  -0.222  0.00  0.00    -0.340 N 
HETATM    2  N   UNK N   1       2.775  -1.818  -0.070  0.00  0.00    -0.347 N 
ATOM      3  HN  UNK N   1       2.515  -2.803  -0.023  1.00  0.00     0.167 HD
HETATM    4  N   UNK N   1       6.373  -1.210   0.149  0.00  0.00    -0.340 N 
ATOM      5  HN  UNK N   1       7.272  -1.685   0.234  1.00  0.00     0.167 HD
HETATM    6  C   UNK N   1       3.942   0.065  -0.086  0.00  0.00     0.078 A 
HETATM    7  C   UNK N   1       5.104   0.847  -0.055  0.00  0.00     0.020 A 
HETATM    8  C   UNK N   1       4.010  -1.289   0.001  0.00  0.00     0.105 A 
HETATM    9  C   UNK N   1       1.953  -0.747  -0.217  0.00  0.00     0.184 A 
HETATM   10  C   UNK N   1       6.345   0.159   0.066  0.00  0.00     0.046 A 
HETATM   11  C   UNK N   1       5.226  -1.952   0.121  0.00  0.00     0.129 A 
HETATM   12  C   UNK N   1       5.087   2.243  -0.143  0.00  0.00     0.016 A 
HETATM   13  C   UNK N   1       7.538   0.885   0.092  0.00  0.00     0.030 A 
HETATM   14  C   UNK N   1       6.290   2.956  -0.111  0.00  0.00     0.001 A 
HETATM   15  C   UNK N   1       7.510   2.280   0.004  0.00  0.00     0.002 A 
ENDROOT
BRANCH   1  16
HETATM   16  C   UNK N   1       2.098   1.760  -0.421  0.00  0.00     0.134 C 
BRANCH  16  17
HETATM   17  C   UNK N   1       0.861   2.019   0.433  0.00  0.00    -0.004 C 
HETATM   18  C   UNK N   1      -0.334   1.288  -0.152  0.00  0.00     0.011 C 
HETATM   19  C   UNK N   1       0.555   3.502   0.417  0.00  0.00     0.011 C 
ENDBRANCH  16  17
ENDBRANCH   1  16
BRANCH  11  20
HETATM   20  N   UNK N   1       5.284  -3.358   0.194  0.00  0.00    -0.384 N 
HETATM   21  H   UNK N   1       4.453  -3.884   0.244  0.00  0.00     0.157 HD
HETATM   22  H   UNK N   1       6.156  -3.815   0.194  0.00  0.00     0.157 HD
ENDBRANCH  11  20
TORSDOF 3
