MODEL 1
REMARK VINA RESULT:      -6.6      0.000      0.000
REMARK  4 active torsions:
REMARK  status: ('A' for Active; 'I' for Inactive)
REMARK    1  A    between atoms: N_1  and  C_4 
REMARK    2  A    between atoms: N_2  and  C_7 
REMARK    3  A    between atoms: C_3  and  C_4 
REMARK    4  A    between atoms: C_3  and  C_7 
ROOT
HETATM    1  N   UNK N   1      31.879  17.168   7.153  0.00  0.00    -0.346 N 
HETATM    2  C   UNK N   1      32.072  16.887   5.728  0.00  0.00     0.041 A 
HETATM    3  C   UNK N   1      30.612  17.539   7.794  0.00  0.00     0.041 A 
HETATM    4  C   UNK N   1      29.737  17.574   4.953  0.00  0.00     0.045 C 
HETATM    5  C   UNK N   1      29.124  16.638   5.936  0.00  0.00     0.045 C 
HETATM    6  C   UNK N   1      31.098  17.086   4.702  0.00  0.00    -0.031 A 
HETATM    7  C   UNK N   1      29.321  17.281   7.239  0.00  0.00    -0.031 A 
HETATM    8  C   UNK N   1      33.343  16.422   5.311  0.00  0.00     0.030 A 
HETATM    9  C   UNK N   1      30.632  18.190   9.046  0.00  0.00     0.030 A 
HETATM   10  C   UNK N   1      31.414  16.818   3.363  0.00  0.00     0.009 A 
HETATM   11  C   UNK N   1      28.159  17.661   7.923  0.00  0.00     0.009 A 
HETATM   12  C   UNK N   1      33.641  16.160   3.975  0.00  0.00     0.002 A 
HETATM   13  C   UNK N   1      29.470  18.564   9.718  0.00  0.00     0.002 A 
HETATM   14  C   UNK N   1      32.674  16.359   3.000  0.00  0.00     0.001 A 
HETATM   15  C   UNK N   1      28.230  18.297   9.156  0.00  0.00     0.001 A 
ENDROOT
BRANCH   1  16
HETATM   16  C   UNK N   1      33.140  17.148   7.926  0.00  0.00     0.135 C 
BRANCH  16  17
HETATM   17  C   UNK N   1      33.452  16.024   8.908  0.00  0.00     0.028 C 
HETATM   18  C   UNK N   1      32.482  14.869   8.732  0.00  0.00     0.013 C 
BRANCH  17  19
HETATM   19  C   UNK N   1      34.899  15.586   8.654  0.00  0.00     0.277 C 
BRANCH  19  20
HETATM   20  N   UNK N   1      35.762  15.556   9.841  0.00  0.00     0.080 N 
HETATM   21  C   UNK N   1      35.793  14.221  10.409  0.00  0.00     0.309 C 
HETATM   22  C   UNK N   1      35.313  16.498  10.859  0.00  0.00     0.309 C 
ENDBRANCH  19  20
ENDBRANCH  17  19
ENDBRANCH  16  17
ENDBRANCH   1  16
TORSDOF 4
ENDMDL
MODEL 2
REMARK VINA RESULT:      -6.5      0.989      4.380
REMARK  4 active torsions:
REMARK  status: ('A' for Active; 'I' for Inactive)
REMARK    1  A    between atoms: N_1  and  C_4 
REMARK    2  A    between atoms: N_2  and  C_7 
REMARK    3  A    between atoms: C_3  and  C_4 
REMARK    4  A    between atoms: C_3  and  C_7 
ROOT
HETATM    1  N   UNK N   1      32.176  16.647   7.069  0.00  0.00    -0.346 N 
HETATM    2  C   UNK N   1      30.905  17.250   7.476  0.00  0.00     0.041 A 
HETATM    3  C   UNK N   1      32.567  16.305   5.697  0.00  0.00     0.041 A 
HETATM    4  C   UNK N   1      29.749  17.112   5.203  0.00  0.00     0.045 C 
HETATM    5  C   UNK N   1      30.881  17.844   4.571  0.00  0.00     0.045 C 
HETATM    6  C   UNK N   1      29.772  17.454   6.630  0.00  0.00    -0.031 A 
HETATM    7  C   UNK N   1      31.977  16.871   4.525  0.00  0.00    -0.031 A 
HETATM    8  C   UNK N   1      30.754  17.625   8.833  0.00  0.00     0.030 A 
HETATM    9  C   UNK N   1      33.595  15.362   5.482  0.00  0.00     0.030 A 
HETATM   10  C   UNK N   1      28.592  18.006   7.145  0.00  0.00     0.009 A 
HETATM   11  C   UNK N   1      32.417  16.496   3.249  0.00  0.00     0.009 A 
HETATM   12  C   UNK N   1      29.573  18.173   9.330  0.00  0.00     0.002 A 
HETATM   13  C   UNK N   1      34.025  14.995   4.208  0.00  0.00     0.002 A 
HETATM   14  C   UNK N   1      28.490  18.363   8.484  0.00  0.00     0.001 A 
HETATM   15  C   UNK N   1      33.436  15.565   3.089  0.00  0.00     0.001 A 
ENDROOT
BRANCH   1  16
HETATM   16  C   UNK N   1      33.047  16.296   8.213  0.00  0.00     0.135 C 
BRANCH  16  17
HETATM   17  C   UNK N   1      34.420  16.934   8.391  0.00  0.00     0.028 C 
HETATM   18  C   UNK N   1      34.361  18.428   8.122  0.00  0.00     0.013 C 
BRANCH  17  19
HETATM   19  C   UNK N   1      34.875  16.640   9.825  0.00  0.00     0.277 C 
BRANCH  19  20
HETATM   20  N   UNK N   1      35.200  15.235  10.103  0.00  0.00     0.080 N 
HETATM   21  C   UNK N   1      34.500  14.781  11.291  0.00  0.00     0.309 C 
HETATM   22  C   UNK N   1      36.632  15.037  10.287  0.00  0.00     0.309 C 
ENDBRANCH  19  20
ENDBRANCH  17  19
ENDBRANCH  16  17
ENDBRANCH   1  16
TORSDOF 4
ENDMDL
MODEL 3
REMARK VINA RESULT:      -6.3      8.447     12.954
REMARK  4 active torsions:
REMARK  status: ('A' for Active; 'I' for Inactive)
REMARK    1  A    between atoms: N_1  and  C_4 
REMARK    2  A    between atoms: N_2  and  C_7 
REMARK    3  A    between atoms: C_3  and  C_4 
REMARK    4  A    between atoms: C_3  and  C_7 
ROOT
HETATM    1  N   UNK N   1      35.533  10.253  16.420  0.00  0.00    -0.346 N 
HETATM    2  C   UNK N   1      35.397  11.362  17.367  0.00  0.00     0.041 A 
HETATM    3  C   UNK N   1      35.497   8.825  16.756  0.00  0.00     0.041 A 
HETATM    4  C   UNK N   1      35.442   9.961  19.502  0.00  0.00     0.045 C 
HETATM    5  C   UNK N   1      34.318   9.128  18.991  0.00  0.00     0.045 C 
HETATM    6  C   UNK N   1      35.372  11.242  18.790  0.00  0.00    -0.031 A 
HETATM    7  C   UNK N   1      34.918   8.290  17.947  0.00  0.00    -0.031 A 
HETATM    8  C   UNK N   1      35.333  12.676  16.843  0.00  0.00     0.030 A 
HETATM    9  C   UNK N   1      36.057   7.887  15.862  0.00  0.00     0.030 A 
HETATM   10  C   UNK N   1      35.277  12.384  19.596  0.00  0.00     0.009 A 
HETATM   11  C   UNK N   1      34.917   6.910  18.186  0.00  0.00     0.009 A 
HETATM   12  C   UNK N   1      35.239  13.802  17.659  0.00  0.00     0.002 A 
HETATM   13  C   UNK N   1      36.051   6.515  16.109  0.00  0.00     0.002 A 
HETATM   14  C   UNK N   1      35.212  13.655  19.038  0.00  0.00     0.001 A 
HETATM   15  C   UNK N   1      35.478   6.025  17.273  0.00  0.00     0.001 A 
ENDROOT
BRANCH   1  16
HETATM   16  C   UNK N   1      35.825  10.698  15.040  0.00  0.00     0.135 C 
BRANCH  16  17
HETATM   17  C   UNK N   1      34.796  10.555  13.924  0.00  0.00     0.028 C 
HETATM   18  C   UNK N   1      33.389  10.760  14.458  0.00  0.00     0.013 C 
BRANCH  17  19
HETATM   19  C   UNK N   1      35.145  11.590  12.848  0.00  0.00     0.277 C 
BRANCH  19  20
HETATM   20  N   UNK N   1      36.226  12.518  13.200  0.00  0.00     0.080 N 
HETATM   21  C   UNK N   1      35.714  13.873  13.307  0.00  0.00     0.309 C 
HETATM   22  C   UNK N   1      37.303  12.491  12.219  0.00  0.00     0.309 C 
ENDBRANCH  19  20
ENDBRANCH  17  19
ENDBRANCH  16  17
ENDBRANCH   1  16
TORSDOF 4
ENDMDL
MODEL 4
REMARK VINA RESULT:      -6.1     13.053     15.695
REMARK  4 active torsions:
REMARK  status: ('A' for Active; 'I' for Inactive)
REMARK    1  A    between atoms: N_1  and  C_4 
REMARK    2  A    between atoms: N_2  and  C_7 
REMARK    3  A    between atoms: C_3  and  C_4 
REMARK    4  A    between atoms: C_3  and  C_7 
ROOT
HETATM    1  N   UNK N   1      27.739  25.296  -5.108  0.00  0.00    -0.346 N 
HETATM    2  C   UNK N   1      27.099  24.562  -6.202  0.00  0.00     0.041 A 
HETATM    3  C   UNK N   1      27.341  26.618  -4.610  0.00  0.00     0.041 A 
HETATM    4  C   UNK N   1      25.523  26.425  -6.954  0.00  0.00     0.045 C 
HETATM    5  C   UNK N   1      24.985  26.544  -5.571  0.00  0.00     0.045 C 
HETATM    6  C   UNK N   1      26.088  25.077  -7.071  0.00  0.00    -0.031 A 
HETATM    7  C   UNK N   1      26.052  27.201  -4.809  0.00  0.00    -0.031 A 
HETATM    8  C   UNK N   1      27.542  23.242  -6.462  0.00  0.00     0.030 A 
HETATM    9  C   UNK N   1      28.267  27.391  -3.877  0.00  0.00     0.030 A 
HETATM   10  C   UNK N   1      25.578  24.288  -8.111  0.00  0.00     0.009 A 
HETATM   11  C   UNK N   1      25.751  28.467  -4.290  0.00  0.00     0.009 A 
HETATM   12  C   UNK N   1      27.024  22.471  -7.501  0.00  0.00     0.002 A 
HETATM   13  C   UNK N   1      27.957  28.650  -3.365  0.00  0.00     0.002 A 
HETATM   14  C   UNK N   1      26.041  22.996  -8.327  0.00  0.00     0.001 A 
HETATM   15  C   UNK N   1      26.695  29.189  -3.570  0.00  0.00     0.001 A 
ENDROOT
BRANCH   1  16
HETATM   16  C   UNK N   1      28.943  24.620  -4.578  0.00  0.00     0.135 C 
BRANCH  16  17
HETATM   17  C   UNK N   1      28.952  23.985  -3.192  0.00  0.00     0.028 C 
HETATM   18  C   UNK N   1      27.536  23.731  -2.705  0.00  0.00     0.013 C 
BRANCH  17  19
HETATM   19  C   UNK N   1      29.754  22.682  -3.293  0.00  0.00     0.277 C 
BRANCH  19  20
HETATM   20  N   UNK N   1      30.641  22.583  -4.458  0.00  0.00     0.080 N 
HETATM   21  C   UNK N   1      30.448  21.312  -5.134  0.00  0.00     0.309 C 
HETATM   22  C   UNK N   1      32.043  22.715  -4.083  0.00  0.00     0.309 C 
ENDBRANCH  19  20
ENDBRANCH  17  19
ENDBRANCH  16  17
ENDBRANCH   1  16
TORSDOF 4
ENDMDL
MODEL 5
REMARK VINA RESULT:      -6.1      8.515     12.641
REMARK  4 active torsions:
REMARK  status: ('A' for Active; 'I' for Inactive)
REMARK    1  A    between atoms: N_1  and  C_4 
REMARK    2  A    between atoms: N_2  and  C_7 
REMARK    3  A    between atoms: C_3  and  C_4 
REMARK    4  A    between atoms: C_3  and  C_7 
ROOT
HETATM    1  N   UNK N   1      35.706  10.240  16.370  0.00  0.00    -0.346 N 
HETATM    2  C   UNK N   1      35.566   8.809  16.648  0.00  0.00     0.041 A 
HETATM    3  C   UNK N   1      35.518  11.327  17.338  0.00  0.00     0.041 A 
HETATM    4  C   UNK N   1      34.655   9.036  19.023  0.00  0.00     0.045 C 
HETATM    5  C   UNK N   1      35.826   9.873  19.404  0.00  0.00     0.045 C 
HETATM    6  C   UNK N   1      35.067   8.241  17.860  0.00  0.00    -0.031 A 
HETATM    7  C   UNK N   1      35.588  11.167  18.756  0.00  0.00    -0.031 A 
HETATM    8  C   UNK N   1      35.908   7.897  15.619  0.00  0.00     0.030 A 
HETATM    9  C   UNK N   1      35.255  12.633  16.872  0.00  0.00     0.030 A 
HETATM   10  C   UNK N   1      34.943   6.852  17.995  0.00  0.00     0.009 A 
HETATM   11  C   UNK N   1      35.406  12.262  19.610  0.00  0.00     0.009 A 
HETATM   12  C   UNK N   1      35.778   6.518  15.768  0.00  0.00     0.002 A 
HETATM   13  C   UNK N   1      35.076  13.716  17.731  0.00  0.00     0.002 A 
HETATM   14  C   UNK N   1      35.294   5.995  16.958  0.00  0.00     0.001 A 
HETATM   15  C   UNK N   1      35.153  13.531  19.103  0.00  0.00     0.001 A 
ENDROOT
BRANCH   1  16
HETATM   16  C   UNK N   1      35.965  10.533  14.943  0.00  0.00     0.135 C 
BRANCH  16  17
HETATM   17  C   UNK N   1      34.846  10.491  13.908  0.00  0.00     0.028 C 
HETATM   18  C   UNK N   1      33.497  10.733  14.561  0.00  0.00     0.013 C 
BRANCH  17  19
HETATM   19  C   UNK N   1      35.161  11.560  12.855  0.00  0.00     0.277 C 
BRANCH  19  20
HETATM   20  N   UNK N   1      36.262  12.469  13.195  0.00  0.00     0.080 N 
HETATM   21  C   UNK N   1      35.765  13.821  13.371  0.00  0.00     0.309 C 
HETATM   22  C   UNK N   1      37.299  12.470  12.171  0.00  0.00     0.309 C 
ENDBRANCH  19  20
ENDBRANCH  17  19
ENDBRANCH  16  17
ENDBRANCH   1  16
TORSDOF 4
ENDMDL
MODEL 6
REMARK VINA RESULT:      -6.1      2.514      7.118
REMARK  4 active torsions:
REMARK  status: ('A' for Active; 'I' for Inactive)
REMARK    1  A    between atoms: N_1  and  C_4 
REMARK    2  A    between atoms: N_2  and  C_7 
REMARK    3  A    between atoms: C_3  and  C_4 
REMARK    4  A    between atoms: C_3  and  C_7 
ROOT
HETATM    1  N   UNK N   1      29.988  17.509   5.628  0.00  0.00    -0.346 N 
HETATM    2  C   UNK N   1      29.669  17.523   7.057  0.00  0.00     0.041 A 
HETATM    3  C   UNK N   1      31.181  16.911   5.018  0.00  0.00     0.041 A 
HETATM    4  C   UNK N   1      31.884  16.557   7.884  0.00  0.00     0.045 C 
HETATM    5  C   UNK N   1      31.722  15.384   6.981  0.00  0.00     0.045 C 
HETATM    6  C   UNK N   1      30.540  17.103   8.109  0.00  0.00    -0.031 A 
HETATM    7  C   UNK N   1      31.987  15.907   5.637  0.00  0.00    -0.031 A 
HETATM    8  C   UNK N   1      28.410  18.038   7.450  0.00  0.00     0.030 A 
HETATM    9  C   UNK N   1      31.585  17.327   3.731  0.00  0.00     0.030 A 
HETATM   10  C   UNK N   1      30.136  17.200   9.447  0.00  0.00     0.009 A 
HETATM   11  C   UNK N   1      33.106  15.381   4.979  0.00  0.00     0.009 A 
HETATM   12  C   UNK N   1      28.022  18.128   8.786  0.00  0.00     0.002 A 
HETATM   13  C   UNK N   1      32.701  16.798   3.086  0.00  0.00     0.002 A 
HETATM   14  C   UNK N   1      28.888  17.709   9.785  0.00  0.00     0.001 A 
HETATM   15  C   UNK N   1      33.462  15.821   3.710  0.00  0.00     0.001 A 
ENDROOT
BRANCH   1  16
HETATM   16  C   UNK N   1      29.020  18.270   4.808  0.00  0.00     0.135 C 
BRANCH  16  17
HETATM   17  C   UNK N   1      28.017  17.563   3.903  0.00  0.00     0.028 C 
HETATM   18  C   UNK N   1      27.894  16.096   4.276  0.00  0.00     0.013 C 
BRANCH  17  19
HETATM   19  C   UNK N   1      26.678  18.294   4.050  0.00  0.00     0.277 C 
BRANCH  19  20
HETATM   20  N   UNK N   1      26.776  19.744   4.262  0.00  0.00     0.080 N 
HETATM   21  C   UNK N   1      26.046  20.130   5.456  0.00  0.00     0.309 C 
HETATM   22  C   UNK N   1      26.259  20.493   3.124  0.00  0.00     0.309 C 
ENDBRANCH  19  20
ENDBRANCH  17  19
ENDBRANCH  16  17
ENDBRANCH   1  16
TORSDOF 4
ENDMDL
MODEL 7
REMARK VINA RESULT:      -5.9      1.691      4.632
REMARK  4 active torsions:
REMARK  status: ('A' for Active; 'I' for Inactive)
REMARK    1  A    between atoms: N_1  and  C_4 
REMARK    2  A    between atoms: N_2  and  C_7 
REMARK    3  A    between atoms: C_3  and  C_4 
REMARK    4  A    between atoms: C_3  and  C_7 
ROOT
HETATM    1  N   UNK N   1      30.662  16.344   5.973  0.00  0.00    -0.346 N 
HETATM    2  C   UNK N   1      30.049  17.156   7.027  0.00  0.00     0.041 A 
HETATM    3  C   UNK N   1      30.011  15.914   4.730  0.00  0.00     0.041 A 
HETATM    4  C   UNK N   1      27.677  17.162   6.082  0.00  0.00     0.045 C 
HETATM    5  C   UNK N   1      28.184  17.685   4.783  0.00  0.00     0.045 C 
HETATM    6  C   UNK N   1      28.671  17.525   7.098  0.00  0.00    -0.031 A 
HETATM    7  C   UNK N   1      28.863  16.544   4.160  0.00  0.00    -0.031 A 
HETATM    8  C   UNK N   1      30.872  17.578   8.100  0.00  0.00     0.030 A 
HETATM    9  C   UNK N   1      30.531  14.810   4.021  0.00  0.00     0.030 A 
HETATM   10  C   UNK N   1      28.193  18.275   8.181  0.00  0.00     0.009 A 
HETATM   11  C   UNK N   1      28.309  16.075   2.962  0.00  0.00     0.009 A 
HETATM   12  C   UNK N   1      30.381  18.323   9.170  0.00  0.00     0.002 A 
HETATM   13  C   UNK N   1      29.972  14.351   2.829  0.00  0.00     0.002 A 
HETATM   14  C   UNK N   1      29.038  18.671   9.210  0.00  0.00     0.001 A 
HETATM   15  C   UNK N   1      28.859  14.986   2.298  0.00  0.00     0.001 A 
ENDROOT
BRANCH   1  16
HETATM   16  C   UNK N   1      32.024  15.878   6.314  0.00  0.00     0.135 C 
BRANCH  16  17
HETATM   17  C   UNK N   1      33.236  16.299   5.491  0.00  0.00     0.028 C 
HETATM   18  C   UNK N   1      32.999  17.645   4.829  0.00  0.00     0.013 C 
BRANCH  17  19
HETATM   19  C   UNK N   1      34.438  16.345   6.441  0.00  0.00     0.277 C 
BRANCH  19  20
HETATM   20  N   UNK N   1      34.124  16.698   7.831  0.00  0.00     0.080 N 
HETATM   21  C   UNK N   1      34.505  18.072   8.102  0.00  0.00     0.309 C 
HETATM   22  C   UNK N   1      34.798  15.819   8.778  0.00  0.00     0.309 C 
ENDBRANCH  19  20
ENDBRANCH  17  19
ENDBRANCH  16  17
ENDBRANCH   1  16
TORSDOF 4
ENDMDL
MODEL 8
REMARK VINA RESULT:      -5.9     13.203     16.207
REMARK  4 active torsions:
REMARK  status: ('A' for Active; 'I' for Inactive)
REMARK    1  A    between atoms: N_1  and  C_4 
REMARK    2  A    between atoms: N_2  and  C_7 
REMARK    3  A    between atoms: C_3  and  C_4 
REMARK    4  A    between atoms: C_3  and  C_7 
ROOT
HETATM    1  N   UNK N   1      27.766  25.430  -5.102  0.00  0.00    -0.346 N 
HETATM    2  C   UNK N   1      27.269  26.711  -4.594  0.00  0.00     0.041 A 
HETATM    3  C   UNK N   1      27.133  24.612  -6.143  0.00  0.00     0.041 A 
HETATM    4  C   UNK N   1      25.034  26.694  -5.830  0.00  0.00     0.045 C 
HETATM    5  C   UNK N   1      25.741  26.502  -7.127  0.00  0.00     0.045 C 
HETATM    6  C   UNK N   1      26.004  27.296  -4.908  0.00  0.00    -0.031 A 
HETATM    7  C   UNK N   1      26.198  25.109  -7.102  0.00  0.00    -0.031 A 
HETATM    8  C   UNK N   1      28.080  27.419  -3.675  0.00  0.00     0.030 A 
HETATM    9  C   UNK N   1      27.450  23.240  -6.237  0.00  0.00     0.030 A 
HETATM   10  C   UNK N   1      25.621  28.512  -4.327  0.00  0.00     0.009 A 
HETATM   11  C   UNK N   1      25.647  24.261  -8.071  0.00  0.00     0.009 A 
HETATM   12  C   UNK N   1      27.685  28.628  -3.105  0.00  0.00     0.002 A 
HETATM   13  C   UNK N   1      26.896  22.404  -7.205  0.00  0.00     0.002 A 
HETATM   14  C   UNK N   1      26.453  29.174  -3.432  0.00  0.00     0.001 A 
HETATM   15  C   UNK N   1      25.994  22.916  -8.125  0.00  0.00     0.001 A 
ENDROOT
BRANCH   1  16
HETATM   16  C   UNK N   1      28.964  24.944  -4.382  0.00  0.00     0.135 C 
BRANCH  16  17
HETATM   17  C   UNK N   1      30.359  25.078  -4.980  0.00  0.00     0.028 C 
HETATM   18  C   UNK N   1      31.225  25.991  -4.131  0.00  0.00     0.013 C 
BRANCH  17  19
HETATM   19  C   UNK N   1      30.953  23.667  -5.072  0.00  0.00     0.277 C 
BRANCH  19  20
HETATM   20  N   UNK N   1      30.422  22.701  -4.102  0.00  0.00     0.080 N 
HETATM   21  C   UNK N   1      31.328  22.566  -2.976  0.00  0.00     0.309 C 
HETATM   22  C   UNK N   1      30.211  21.391  -4.704  0.00  0.00     0.309 C 
ENDBRANCH  19  20
ENDBRANCH  17  19
ENDBRANCH  16  17
ENDBRANCH   1  16
TORSDOF 4
ENDMDL
MODEL 9
REMARK VINA RESULT:      -5.8      3.539      6.822
REMARK  4 active torsions:
REMARK  status: ('A' for Active; 'I' for Inactive)
REMARK    1  A    between atoms: N_1  and  C_4 
REMARK    2  A    between atoms: N_2  and  C_7 
REMARK    3  A    between atoms: C_3  and  C_4 
REMARK    4  A    between atoms: C_3  and  C_7 
ROOT
HETATM    1  N   UNK N   1      28.516  17.600   5.225  0.00  0.00    -0.346 N 
HETATM    2  C   UNK N   1      27.425  18.526   4.911  0.00  0.00     0.041 A 
HETATM    3  C   UNK N   1      29.383  17.661   6.407  0.00  0.00     0.041 A 
HETATM    4  C   UNK N   1      27.875  20.193   6.793  0.00  0.00     0.045 C 
HETATM    5  C   UNK N   1      27.805  19.095   7.797  0.00  0.00     0.045 C 
HETATM    6  C   UNK N   1      27.130  19.734   5.616  0.00  0.00    -0.031 A 
HETATM    7  C   UNK N   1      29.052  18.344   7.617  0.00  0.00    -0.031 A 
HETATM    8  C   UNK N   1      26.614  18.237   3.787  0.00  0.00     0.030 A 
HETATM    9  C   UNK N   1      30.634  17.007   6.384  0.00  0.00     0.030 A 
HETATM   10  C   UNK N   1      26.080  20.561   5.195  0.00  0.00     0.009 A 
HETATM   11  C   UNK N   1      29.935  18.344   8.704  0.00  0.00     0.009 A 
HETATM   12  C   UNK N   1      25.573  19.071   3.382  0.00  0.00     0.002 A 
HETATM   13  C   UNK N   1      31.506  17.014   7.472  0.00  0.00     0.002 A 
HETATM   14  C   UNK N   1      25.307  20.235   4.087  0.00  0.00     0.001 A 
HETATM   15  C   UNK N   1      31.155  17.682   8.635  0.00  0.00     0.001 A 
ENDROOT
BRANCH   1  16
HETATM   16  C   UNK N   1      28.760  16.605   4.158  0.00  0.00     0.135 C 
BRANCH  16  17
HETATM   17  C   UNK N   1      28.449  15.127   4.365  0.00  0.00     0.028 C 
HETATM   18  C   UNK N   1      27.318  14.947   5.362  0.00  0.00     0.013 C 
BRANCH  17  19
HETATM   19  C   UNK N   1      28.088  14.542   2.995  0.00  0.00     0.277 C 
BRANCH  19  20
HETATM   20  N   UNK N   1      26.655  14.321   2.767  0.00  0.00     0.080 N 
HETATM   21  C   UNK N   1      26.418  12.959   2.321  0.00  0.00     0.309 C 
HETATM   22  C   UNK N   1      26.115  15.247   1.780  0.00  0.00     0.309 C 
ENDBRANCH  19  20
ENDBRANCH  17  19
ENDBRANCH  16  17
ENDBRANCH   1  16
TORSDOF 4
ENDMDL
