REMARK  4 active torsions:
REMARK  status: ('A' for Active; 'I' for Inactive)
REMARK    1  A    between atoms: N_1  and  C_4 
REMARK    2  A    between atoms: N_2  and  C_7 
REMARK    3  A    between atoms: C_3  and  C_4 
REMARK    4  A    between atoms: C_3  and  C_7 
ROOT
HETATM    1  N   UNK N   1       4.128   0.601  -0.051  0.00  0.00    -0.346 N 
HETATM    2  C   UNK N   1       5.446   1.240  -0.058  0.00  0.00     0.041 A 
HETATM    3  C   UNK N   1       2.836   1.294   0.013  0.00  0.00     0.041 A 
HETATM    4  C   UNK N   1       4.644   3.623   0.389  0.00  0.00     0.045 C 
HETATM    5  C   UNK N   1       3.724   3.544  -0.779  0.00  0.00     0.045 C 
HETATM    6  C   UNK N   1       5.699   2.629   0.161  0.00  0.00    -0.031 A 
HETATM    7  C   UNK N   1       2.636   2.664  -0.340  0.00  0.00    -0.031 A 
HETATM    8  C   UNK N   1       6.581   0.415  -0.250  0.00  0.00     0.030 A 
HETATM    9  C   UNK N   1       1.691   0.589   0.442  0.00  0.00     0.030 A 
HETATM   10  C   UNK N   1       7.012   3.118   0.170  0.00  0.00     0.009 A 
HETATM   11  C   UNK N   1       1.365   3.246  -0.259  0.00  0.00     0.009 A 
HETATM   12  C   UNK N   1       7.881   0.917  -0.238  0.00  0.00     0.002 A 
HETATM   13  C   UNK N   1       0.430   1.178   0.519  0.00  0.00     0.002 A 
HETATM   14  C   UNK N   1       8.096   2.271  -0.027  0.00  0.00     0.001 A 
HETATM   15  C   UNK N   1       0.266   2.509   0.166  0.00  0.00     0.001 A 
ENDROOT
BRANCH   1  16
HETATM   16  C   UNK N   1       4.197  -0.876  -0.010  0.00  0.00     0.135 C 
BRANCH  16  17
HETATM   17  C   UNK N   1       2.952  -1.735  -0.201  0.00  0.00     0.028 C 
HETATM   18  C   UNK N   1       2.572  -1.816  -1.669  0.00  0.00     0.013 C 
BRANCH  17  19
HETATM   19  C   UNK N   1       3.263  -3.121   0.376  0.00  0.00     0.277 C 
BRANCH  19  20
HETATM   20  N   UNK N   1       2.090  -3.922   0.747  0.00  0.00     0.080 N 
HETATM   21  C   UNK N   1       1.475  -4.495  -0.437  0.00  0.00     0.309 C 
HETATM   22  C   UNK N   1       1.099  -3.130   1.464  0.00  0.00     0.309 C 
ENDBRANCH  19  20
ENDBRANCH  17  19
ENDBRANCH  16  17
ENDBRANCH   1  16
TORSDOF 4
