MODEL 1
REMARK VINA RESULT:      -5.1      0.000      0.000
REMARK  8 active torsions:
REMARK  status: ('A' for Active; 'I' for Inactive)
REMARK    1  A    between atoms: O_1  and  N_10 
REMARK    2  A    between atoms: O_1  and  C_13 
REMARK    3  A    between atoms: O_2  and  N_11 
REMARK    4  A    between atoms: O_2  and  C_14 
REMARK    5  A    between atoms: O_3  and  N_12 
REMARK    6  A    between atoms: O_3  and  C_15 
REMARK    7  A    between atoms: C_13  and  C_14 
REMARK    8  A    between atoms: C_13  and  C_15 
ROOT
HETATM    1  C   UNK N   1      20.682  17.614   2.990  0.00  0.00     0.211 C 
ENDROOT
BRANCH   1   2
HETATM    2  O   UNK N   1      19.928  17.217   1.898  0.00  0.00    -0.211 OA
BRANCH   2   3
HETATM    3  N   UNK N   1      20.437  16.788   0.753  0.00  0.00     0.005 N 
HETATM    4  O   UNK N   1      20.981  15.591   0.702  0.00  0.00    -0.511 OA
HETATM    5  O   UNK N   1      20.328  17.427  -0.248  0.00  0.00    -0.511 OA
ENDBRANCH   2   3
ENDBRANCH   1   2
BRANCH   1   6
HETATM    6  C   UNK N   1      20.245  19.028   3.336  0.00  0.00     0.245 C 
BRANCH   6   7
HETATM    7  O   UNK N   1      20.065  19.797   2.211  0.00  0.00    -0.219 OA
BRANCH   7   8
HETATM    8  N   UNK N   1      21.033  20.574   1.773  0.00  0.00     0.005 N 
HETATM    9  O   UNK N   1      21.853  21.133   2.637  0.00  0.00    -0.511 OA
HETATM   10  O   UNK N   1      21.336  20.538   0.620  0.00  0.00    -0.511 OA
ENDBRANCH   7   8
ENDBRANCH   6   7
ENDBRANCH   1   6
BRANCH   1  11
HETATM   11  C   UNK N   1      20.395  16.732   4.206  0.00  0.00     0.245 C 
BRANCH  11  12
HETATM   12  O   UNK N   1      19.045  16.620   4.449  0.00  0.00    -0.219 OA
BRANCH  12  13
HETATM   13  N   UNK N   1      18.556  15.725   5.289  0.00  0.00     0.005 N 
HETATM   14  O   UNK N   1      17.474  15.983   5.994  0.00  0.00    -0.511 OA
HETATM   15  O   UNK N   1      19.070  14.651   5.370  0.00  0.00    -0.511 OA
ENDBRANCH  12  13
ENDBRANCH  11  12
ENDBRANCH   1  11
TORSDOF 8
ENDMDL
MODEL 2
REMARK VINA RESULT:      -4.9      1.986      5.339
REMARK  8 active torsions:
REMARK  status: ('A' for Active; 'I' for Inactive)
REMARK    1  A    between atoms: O_1  and  N_10 
REMARK    2  A    between atoms: O_1  and  C_13 
REMARK    3  A    between atoms: O_2  and  N_11 
REMARK    4  A    between atoms: O_2  and  C_14 
REMARK    5  A    between atoms: O_3  and  N_12 
REMARK    6  A    between atoms: O_3  and  C_15 
REMARK    7  A    between atoms: C_13  and  C_14 
REMARK    8  A    between atoms: C_13  and  C_15 
ROOT
HETATM    1  C   UNK N   1      20.849  18.261   3.638  0.00  0.00     0.211 C 
ENDROOT
BRANCH   1   2
HETATM    2  O   UNK N   1      20.646  17.918   4.964  0.00  0.00    -0.211 OA
BRANCH   2   3
HETATM    3  N   UNK N   1      21.447  18.268   5.960  0.00  0.00     0.005 N 
HETATM    4  O   UNK N   1      22.750  18.179   5.796  0.00  0.00    -0.511 OA
HETATM    5  O   UNK N   1      21.013  18.746   6.962  0.00  0.00    -0.511 OA
ENDBRANCH   2   3
ENDBRANCH   1   2
BRANCH   1   6
HETATM    6  C   UNK N   1      19.900  17.409   2.813  0.00  0.00     0.245 C 
BRANCH   6   7
HETATM    7  O   UNK N   1      20.514  16.277   2.334  0.00  0.00    -0.219 OA
BRANCH   7   8
HETATM    8  N   UNK N   1      20.670  16.100   1.039  0.00  0.00     0.005 N 
HETATM    9  O   UNK N   1      20.308  17.054   0.209  0.00  0.00    -0.511 OA
HETATM   10  O   UNK N   1      21.386  15.229   0.649  0.00  0.00    -0.511 OA
ENDBRANCH   7   8
ENDBRANCH   6   7
ENDBRANCH   1   6
BRANCH   1  11
HETATM   11  C   UNK N   1      20.490  19.727   3.388  0.00  0.00     0.245 C 
BRANCH  11  12
HETATM   12  O   UNK N   1      20.298  19.984   2.050  0.00  0.00    -0.219 OA
BRANCH  12  13
HETATM   13  N   UNK N   1      21.250  20.499   1.293  0.00  0.00     0.005 N 
HETATM   14  O   UNK N   1      21.048  20.715   0.009  0.00  0.00    -0.511 OA
HETATM   15  O   UNK N   1      22.286  20.822   1.788  0.00  0.00    -0.511 OA
ENDBRANCH  12  13
ENDBRANCH  11  12
ENDBRANCH   1  11
TORSDOF 8
ENDMDL
MODEL 3
REMARK VINA RESULT:      -4.8     15.525     16.414
REMARK  8 active torsions:
REMARK  status: ('A' for Active; 'I' for Inactive)
REMARK    1  A    between atoms: O_1  and  N_10 
REMARK    2  A    between atoms: O_1  and  C_13 
REMARK    3  A    between atoms: O_2  and  N_11 
REMARK    4  A    between atoms: O_2  and  C_14 
REMARK    5  A    between atoms: O_3  and  N_12 
REMARK    6  A    between atoms: O_3  and  C_15 
REMARK    7  A    between atoms: C_13  and  C_14 
REMARK    8  A    between atoms: C_13  and  C_15 
ROOT
HETATM    1  C   UNK N   1      34.552  16.391   9.467  0.00  0.00     0.211 C 
ENDROOT
BRANCH   1   2
HETATM    2  O   UNK N   1      34.068  17.640   9.115  0.00  0.00    -0.211 OA
BRANCH   2   3
HETATM    3  N   UNK N   1      34.622  18.428   8.205  0.00  0.00     0.005 N 
HETATM    4  O   UNK N   1      35.401  19.413   8.598  0.00  0.00    -0.511 OA
HETATM    5  O   UNK N   1      34.498  18.206   7.040  0.00  0.00    -0.511 OA
ENDBRANCH   2   3
ENDBRANCH   1   2
BRANCH   1   6
HETATM    6  C   UNK N   1      35.257  16.552  10.802  0.00  0.00     0.245 C 
BRANCH   6   7
HETATM    7  O   UNK N   1      36.590  16.224  10.720  0.00  0.00    -0.219 OA
BRANCH   7   8
HETATM    8  N   UNK N   1      36.966  14.963  10.714  0.00  0.00     0.005 N 
HETATM    9  O   UNK N   1      36.329  14.095  11.469  0.00  0.00    -0.511 OA
HETATM   10  O   UNK N   1      37.669  14.566   9.835  0.00  0.00    -0.511 OA
ENDBRANCH   7   8
ENDBRANCH   6   7
ENDBRANCH   1   6
BRANCH   1  11
HETATM   11  C   UNK N   1      33.408  15.395   9.666  0.00  0.00     0.245 C 
BRANCH  11  12
HETATM   12  O   UNK N   1      32.457  15.507   8.678  0.00  0.00    -0.219 OA
BRANCH  12  13
HETATM   13  N   UNK N   1      32.510  14.789   7.570  0.00  0.00     0.005 N 
HETATM   14  O   UNK N   1      32.868  15.339   6.428  0.00  0.00    -0.511 OA
HETATM   15  O   UNK N   1      32.284  13.619   7.615  0.00  0.00    -0.511 OA
ENDBRANCH  12  13
ENDBRANCH  11  12
ENDBRANCH   1  11
TORSDOF 8
ENDMDL
MODEL 4
REMARK VINA RESULT:      -4.8      2.013      2.611
REMARK  8 active torsions:
REMARK  status: ('A' for Active; 'I' for Inactive)
REMARK    1  A    between atoms: O_1  and  N_10 
REMARK    2  A    between atoms: O_1  and  C_13 
REMARK    3  A    between atoms: O_2  and  N_11 
REMARK    4  A    between atoms: O_2  and  C_14 
REMARK    5  A    between atoms: O_3  and  N_12 
REMARK    6  A    between atoms: O_3  and  C_15 
REMARK    7  A    between atoms: C_13  and  C_14 
REMARK    8  A    between atoms: C_13  and  C_15 
ROOT
HETATM    1  C   UNK N   1      20.468  17.887   2.807  0.00  0.00     0.211 C 
ENDROOT
BRANCH   1   2
HETATM    2  O   UNK N   1      19.846  17.050   1.895  0.00  0.00    -0.211 OA
BRANCH   2   3
HETATM    3  N   UNK N   1      20.396  16.633   0.765  0.00  0.00     0.005 N 
HETATM    4  O   UNK N   1      20.360  17.415  -0.293  0.00  0.00    -0.511 OA
HETATM    5  O   UNK N   1      20.999  15.606   0.715  0.00  0.00    -0.511 OA
ENDBRANCH   2   3
ENDBRANCH   1   2
BRANCH   1   6
HETATM    6  C   UNK N   1      19.752  19.225   2.737  0.00  0.00     0.245 C 
BRANCH   6   7
HETATM    7  O   UNK N   1      20.586  20.268   3.059  0.00  0.00    -0.219 OA
BRANCH   7   8
HETATM    8  N   UNK N   1      21.632  20.543   2.308  0.00  0.00     0.005 N 
HETATM    9  O   UNK N   1      21.496  20.578   1.000  0.00  0.00    -0.511 OA
HETATM   10  O   UNK N   1      22.599  21.031   2.807  0.00  0.00    -0.511 OA
ENDBRANCH   7   8
ENDBRANCH   6   7
ENDBRANCH   1   6
BRANCH   1  11
HETATM   11  C   UNK N   1      20.315  17.356   4.233  0.00  0.00     0.245 C 
BRANCH  11  12
HETATM   12  O   UNK N   1      21.535  17.170   4.842  0.00  0.00    -0.219 OA
BRANCH  12  13
HETATM   13  N   UNK N   1      22.097  18.107   5.585  0.00  0.00     0.005 N 
HETATM   14  O   UNK N   1      21.490  18.570   6.659  0.00  0.00    -0.511 OA
HETATM   15  O   UNK N   1      23.190  18.499   5.310  0.00  0.00    -0.511 OA
ENDBRANCH  12  13
ENDBRANCH  11  12
ENDBRANCH   1  11
TORSDOF 8
ENDMDL
MODEL 5
REMARK VINA RESULT:      -4.8     16.995     18.114
REMARK  8 active torsions:
REMARK  status: ('A' for Active; 'I' for Inactive)
REMARK    1  A    between atoms: O_1  and  N_10 
REMARK    2  A    between atoms: O_1  and  C_13 
REMARK    3  A    between atoms: O_2  and  N_11 
REMARK    4  A    between atoms: O_2  and  C_14 
REMARK    5  A    between atoms: O_3  and  N_12 
REMARK    6  A    between atoms: O_3  and  C_15 
REMARK    7  A    between atoms: C_13  and  C_14 
REMARK    8  A    between atoms: C_13  and  C_15 
ROOT
HETATM    1  C   UNK N   1      35.458  15.391   9.779  0.00  0.00     0.211 C 
ENDROOT
BRANCH   1   2
HETATM    2  O   UNK N   1      36.788  15.273  10.145  0.00  0.00    -0.211 OA
BRANCH   2   3
HETATM    3  N   UNK N   1      37.575  14.266   9.794  0.00  0.00     0.005 N 
HETATM    4  O   UNK N   1      38.003  13.434  10.718  0.00  0.00    -0.511 OA
HETATM    5  O   UNK N   1      37.826  14.051   8.648  0.00  0.00    -0.511 OA
ENDBRANCH   2   3
ENDBRANCH   1   2
BRANCH   1   6
HETATM    6  C   UNK N   1      34.657  14.542  10.751  0.00  0.00     0.245 C 
BRANCH   6   7
HETATM    7  O   UNK N   1      34.884  14.907  12.056  0.00  0.00    -0.219 OA
BRANCH   7   8
HETATM    8  N   UNK N   1      35.354  14.032  12.920  0.00  0.00     0.005 N 
HETATM    9  O   UNK N   1      36.437  14.322  13.609  0.00  0.00    -0.511 OA
HETATM   10  O   UNK N   1      34.658  13.133  13.280  0.00  0.00    -0.511 OA
ENDBRANCH   7   8
ENDBRANCH   6   7
ENDBRANCH   1   6
BRANCH   1  11
HETATM   11  C   UNK N   1      34.975  16.835   9.920  0.00  0.00     0.245 C 
BRANCH  11  12
HETATM   12  O   UNK N   1      34.250  17.241   8.822  0.00  0.00    -0.219 OA
BRANCH  12  13
HETATM   13  N   UNK N   1      34.650  18.232   8.046  0.00  0.00     0.005 N 
HETATM   14  O   UNK N   1      35.320  19.251   8.544  0.00  0.00    -0.511 OA
HETATM   15  O   UNK N   1      34.450  18.176   6.871  0.00  0.00    -0.511 OA
ENDBRANCH  12  13
ENDBRANCH  11  12
ENDBRANCH   1  11
TORSDOF 8
ENDMDL
MODEL 6
REMARK VINA RESULT:      -4.8     13.711     14.718
REMARK  8 active torsions:
REMARK  status: ('A' for Active; 'I' for Inactive)
REMARK    1  A    between atoms: O_1  and  N_10 
REMARK    2  A    between atoms: O_1  and  C_13 
REMARK    3  A    between atoms: O_2  and  N_11 
REMARK    4  A    between atoms: O_2  and  C_14 
REMARK    5  A    between atoms: O_3  and  N_12 
REMARK    6  A    between atoms: O_3  and  C_15 
REMARK    7  A    between atoms: C_13  and  C_14 
REMARK    8  A    between atoms: C_13  and  C_15 
ROOT
HETATM    1  C   UNK N   1      32.575  16.705   8.281  0.00  0.00     0.211 C 
ENDROOT
BRANCH   1   2
HETATM    2  O   UNK N   1      33.170  17.936   8.502  0.00  0.00    -0.211 OA
BRANCH   2   3
HETATM    3  N   UNK N   1      34.192  18.410   7.805  0.00  0.00     0.005 N 
HETATM    4  O   UNK N   1      35.051  19.215   8.392  0.00  0.00    -0.511 OA
HETATM    5  O   UNK N   1      34.395  18.049   6.687  0.00  0.00    -0.511 OA
ENDBRANCH   2   3
ENDBRANCH   1   2
BRANCH   1   6
HETATM    6  C   UNK N   1      33.026  15.790   9.407  0.00  0.00     0.245 C 
BRANCH   6   7
HETATM    7  O   UNK N   1      34.396  15.746   9.511  0.00  0.00    -0.219 OA
BRANCH   7   8
HETATM    8  N   UNK N   1      34.992  16.111  10.627  0.00  0.00     0.005 N 
HETATM    9  O   UNK N   1      35.085  15.254  11.620  0.00  0.00    -0.511 OA
HETATM   10  O   UNK N   1      35.681  17.085  10.630  0.00  0.00    -0.511 OA
ENDBRANCH   7   8
ENDBRANCH   6   7
ENDBRANCH   1   6
BRANCH   1  11
HETATM   11  C   UNK N   1      31.050  16.810   8.355  0.00  0.00     0.245 C 
BRANCH  11  12
HETATM   12  O   UNK N   1      30.635  18.115   8.492  0.00  0.00    -0.219 OA
BRANCH  12  13
HETATM   13  N   UNK N   1      29.572  18.440   9.206  0.00  0.00     0.005 N 
HETATM   14  O   UNK N   1      28.358  18.199   8.755  0.00  0.00    -0.511 OA
HETATM   15  O   UNK N   1      29.715  18.907  10.294  0.00  0.00    -0.511 OA
ENDBRANCH  12  13
ENDBRANCH  11  12
ENDBRANCH   1  11
TORSDOF 8
ENDMDL
MODEL 7
REMARK VINA RESULT:      -4.8     11.476     12.538
REMARK  8 active torsions:
REMARK  status: ('A' for Active; 'I' for Inactive)
REMARK    1  A    between atoms: O_1  and  N_10 
REMARK    2  A    between atoms: O_1  and  C_13 
REMARK    3  A    between atoms: O_2  and  N_11 
REMARK    4  A    between atoms: O_2  and  C_14 
REMARK    5  A    between atoms: O_3  and  N_12 
REMARK    6  A    between atoms: O_3  and  C_15 
REMARK    7  A    between atoms: C_13  and  C_14 
REMARK    8  A    between atoms: C_13  and  C_15 
ROOT
HETATM    1  C   UNK N   1      30.924  17.501   7.987  0.00  0.00     0.211 C 
ENDROOT
BRANCH   1   2
HETATM    2  O   UNK N   1      30.196  16.985   9.046  0.00  0.00    -0.211 OA
BRANCH   2   3
HETATM    3  N   UNK N   1      29.272  17.657   9.717  0.00  0.00     0.005 N 
HETATM    4  O   UNK N   1      29.583  18.820  10.248  0.00  0.00    -0.511 OA
HETATM    5  O   UNK N   1      28.145  17.270   9.770  0.00  0.00    -0.511 OA
ENDBRANCH   2   3
ENDBRANCH   1   2
BRANCH   1   6
HETATM    6  C   UNK N   1      32.384  17.185   8.260  0.00  0.00     0.245 C 
BRANCH   6   7
HETATM    7  O   UNK N   1      33.121  18.324   8.482  0.00  0.00    -0.219 OA
BRANCH   7   8
HETATM    8  N   UNK N   1      34.273  18.502   7.870  0.00  0.00     0.005 N 
HETATM    9  O   UNK N   1      35.246  19.126   8.496  0.00  0.00    -0.511 OA
HETATM   10  O   UNK N   1      34.522  17.862   6.895  0.00  0.00    -0.511 OA
ENDBRANCH   7   8
ENDBRANCH   6   7
ENDBRANCH   1   6
BRANCH   1  11
HETATM   11  C   UNK N   1      30.541  16.817   6.673  0.00  0.00     0.245 C 
BRANCH  11  12
HETATM   12  O   UNK N   1      29.683  17.591   5.926  0.00  0.00    -0.219 OA
BRANCH  12  13
HETATM   13  N   UNK N   1      28.444  17.835   6.311  0.00  0.00     0.005 N 
HETATM   14  O   UNK N   1      27.582  16.851   6.472  0.00  0.00    -0.511 OA
HETATM   15  O   UNK N   1      28.116  18.952   6.569  0.00  0.00    -0.511 OA
ENDBRANCH  12  13
ENDBRANCH  11  12
ENDBRANCH   1  11
TORSDOF 8
ENDMDL
MODEL 8
REMARK VINA RESULT:      -4.8     14.231     15.326
REMARK  8 active torsions:
REMARK  status: ('A' for Active; 'I' for Inactive)
REMARK    1  A    between atoms: O_1  and  N_10 
REMARK    2  A    between atoms: O_1  and  C_13 
REMARK    3  A    between atoms: O_2  and  N_11 
REMARK    4  A    between atoms: O_2  and  C_14 
REMARK    5  A    between atoms: O_3  and  N_12 
REMARK    6  A    between atoms: O_3  and  C_15 
REMARK    7  A    between atoms: C_13  and  C_14 
REMARK    8  A    between atoms: C_13  and  C_15 
ROOT
HETATM    1  C   UNK N   1      33.240  16.473   8.614  0.00  0.00     0.211 C 
ENDROOT
BRANCH   1   2
HETATM    2  O   UNK N   1      33.865  17.656   8.970  0.00  0.00    -0.211 OA
BRANCH   2   3
HETATM    3  N   UNK N   1      34.578  18.405   8.141  0.00  0.00     0.005 N 
HETATM    4  O   UNK N   1      35.388  19.316   8.636  0.00  0.00    -0.511 OA
HETATM    5  O   UNK N   1      34.565  18.207   6.965  0.00  0.00    -0.511 OA
ENDBRANCH   2   3
ENDBRANCH   1   2
BRANCH   1   6
HETATM    6  C   UNK N   1      33.606  15.446   9.672  0.00  0.00     0.245 C 
BRANCH   6   7
HETATM    7  O   UNK N   1      34.957  15.192   9.692  0.00  0.00    -0.219 OA
BRANCH   7   8
HETATM    8  N   UNK N   1      35.672  15.473  10.761  0.00  0.00     0.005 N 
HETATM    9  O   UNK N   1      36.533  16.466  10.720  0.00  0.00    -0.511 OA
HETATM   10  O   UNK N   1      35.341  15.033  11.819  0.00  0.00    -0.511 OA
ENDBRANCH   7   8
ENDBRANCH   6   7
ENDBRANCH   1   6
BRANCH   1  11
HETATM   11  C   UNK N   1      31.718  16.629   8.630  0.00  0.00     0.245 C 
BRANCH  11  12
HETATM   12  O   UNK N   1      31.283  17.487   7.646  0.00  0.00    -0.219 OA
BRANCH  12  13
HETATM   13  N   UNK N   1      30.970  17.063   6.435  0.00  0.00     0.005 N 
HETATM   14  O   UNK N   1      29.857  16.391   6.223  0.00  0.00    -0.511 OA
HETATM   15  O   UNK N   1      31.676  17.338   5.514  0.00  0.00    -0.511 OA
ENDBRANCH  12  13
ENDBRANCH  11  12
ENDBRANCH   1  11
TORSDOF 8
ENDMDL
MODEL 9
REMARK VINA RESULT:      -4.8     13.664     14.646
REMARK  8 active torsions:
REMARK  status: ('A' for Active; 'I' for Inactive)
REMARK    1  A    between atoms: O_1  and  N_10 
REMARK    2  A    between atoms: O_1  and  C_13 
REMARK    3  A    between atoms: O_2  and  N_11 
REMARK    4  A    between atoms: O_2  and  C_14 
REMARK    5  A    between atoms: O_3  and  N_12 
REMARK    6  A    between atoms: O_3  and  C_15 
REMARK    7  A    between atoms: C_13  and  C_14 
REMARK    8  A    between atoms: C_13  and  C_15 
ROOT
HETATM    1  C   UNK N   1      32.401  17.339   8.865  0.00  0.00     0.211 C 
ENDROOT
BRANCH   1   2
HETATM    2  O   UNK N   1      32.934  18.344   8.075  0.00  0.00    -0.211 OA
BRANCH   2   3
HETATM    3  N   UNK N   1      34.208  18.421   7.719  0.00  0.00     0.005 N 
HETATM    4  O   UNK N   1      34.593  17.866   6.590  0.00  0.00    -0.511 OA
HETATM    5  O   UNK N   1      34.988  19.060   8.355  0.00  0.00    -0.511 OA
ENDBRANCH   2   3
ENDBRANCH   1   2
BRANCH   1   6
HETATM    6  C   UNK N   1      30.974  17.118   8.393  0.00  0.00     0.245 C 
BRANCH   6   7
HETATM    7  O   UNK N   1      30.134  16.801   9.434  0.00  0.00    -0.219 OA
BRANCH   7   8
HETATM    8  N   UNK N   1      29.231  17.664   9.848  0.00  0.00     0.005 N 
HETATM    9  O   UNK N   1      29.608  18.873  10.203  0.00  0.00    -0.511 OA
HETATM   10  O   UNK N   1      28.077  17.453   9.631  0.00  0.00    -0.511 OA
ENDBRANCH   7   8
ENDBRANCH   6   7
ENDBRANCH   1   6
BRANCH   1  11
HETATM   11  C   UNK N   1      33.160  16.026   8.671  0.00  0.00     0.245 C 
BRANCH  11  12
HETATM   12  O   UNK N   1      33.841  15.657   9.809  0.00  0.00    -0.219 OA
BRANCH  12  13
HETATM   13  N   UNK N   1      35.048  16.117  10.083  0.00  0.00     0.005 N 
HETATM   14  O   UNK N   1      35.222  17.054  10.992  0.00  0.00    -0.511 OA
HETATM   15  O   UNK N   1      35.997  15.640   9.540  0.00  0.00    -0.511 OA
ENDBRANCH  12  13
ENDBRANCH  11  12
ENDBRANCH   1  11
TORSDOF 8
ENDMDL
