MODEL 1
REMARK VINA RESULT:      -7.8      0.000      0.000
REMARK  7 active torsions:
REMARK  status: ('A' for Active; 'I' for Inactive)
REMARK    1  A    between atoms: C_13  and  O_1 
REMARK    2  A    between atoms: O_1  and  C_32 
REMARK    3  A    between atoms: C_27  and  O_2 
REMARK    4  A    between atoms: C_12  and  N_5 
REMARK    5  A    between atoms: N_5  and  C_28 
REMARK    6  A    between atoms: C_23  and  N_6 
REMARK    7  A    between atoms: C_28  and  C_31 
ROOT
HETATM    1  C   UNK N   1      32.788  15.769   6.600  0.00  0.00     0.003 C 
HETATM    2  C   UNK N   1      32.123  16.580   7.746  0.00  0.00    -0.011 C 
HETATM    3  C   UNK N   1      34.052  15.068   7.120  0.00  0.00    -0.005 C 
HETATM    4  C   UNK N   1      33.858  14.158   8.359  0.00  0.00    -0.002 C 
HETATM    5  C   UNK N   1      35.177  14.267   9.192  0.00  0.00    -0.034 C 
HETATM    6  C   UNK N   1      30.481  16.028   5.941  0.00  0.00     0.221 C 
HETATM    7  C   UNK N   1      30.743  16.891   7.181  0.00  0.00     0.171 C 
HETATM    8  C   UNK N   1      31.637  14.988   5.966  0.00  0.00     0.042 C 
HETATM    9  C   UNK N   1      32.088  15.871   9.116  0.00  0.00     0.012 C 
HETATM   10  C   UNK N   1      36.358  13.705   8.328  0.00  0.00    -0.004 C 
HETATM   11  C   UNK N   1      32.544  14.424   9.110  0.00  0.00     0.007 C 
HETATM   12  C   UNK N   1      35.013  14.363   6.169  0.00  0.00     0.006 C 
HETATM   13  C   UNK N   1      36.388  14.273   6.879  0.00  0.00     0.006 C 
HETATM   14  C   UNK N   1      35.103  13.565  10.542  0.00  0.00     0.048 C 
HETATM   15  C   UNK N   1      32.850  17.890   7.997  0.00  0.00     0.018 C 
HETATM   16  C   UNK N   1      36.319  12.169   8.287  0.00  0.00     0.039 C 
HETATM   17  C   UNK N   1      35.125  12.043  10.503  0.00  0.00     0.252 C 
HETATM   18  C   UNK N   1      35.469  15.715   9.597  0.00  0.00     0.016 C 
HETATM   19  C   UNK N   1      36.360  11.579   9.707  0.00  0.00     0.151 C 
ENDROOT
BRANCH   6  20
HETATM   20  N   UNK N   1      30.336  16.852   4.691  0.00  0.00    -0.057 N 
HETATM   21  C   UNK N   1      29.351  17.923   4.876  0.00  0.00     0.238 C 
HETATM   22  C   UNK N   1      27.990  17.367   4.560  0.00  0.00     0.030 C 
HETATM   23  C   UNK N   1      28.272  16.302   3.535  0.00  0.00     0.030 C 
HETATM   24  C   UNK N   1      29.767  16.024   3.626  0.00  0.00     0.238 C 
BRANCH  20  25
HETATM   25  C   UNK N   1      31.552  17.545   4.233  0.00  0.00     0.264 C 
BRANCH  25  26
HETATM   26  C   UNK N   1      32.119  17.025   2.942  0.00  0.00    -0.009 C 
HETATM   27  C   UNK N   1      33.227  16.291   2.951  0.00  0.00     0.008 C 
ENDBRANCH  25  26
ENDBRANCH  20  25
ENDBRANCH   6  20
BRANCH   7  28
HETATM   28  O   UNK N   1      29.683  16.975   8.074  0.00  0.00    -0.313 OA
BRANCH  28  29
HETATM   29  C   UNK N   1      29.166  18.135   8.569  0.00  0.00     0.255 C 
HETATM   30  O   UNK N   1      28.256  18.717   8.000  0.00  0.00    -0.266 OA
HETATM   31  C   UNK N   1      29.743  18.718   9.812  0.00  0.00     0.126 C 
ENDBRANCH  28  29
ENDBRANCH   7  28
BRANCH  17  32
HETATM   32  N   UNK N   1      35.123  11.589  11.901  0.00  0.00     0.099 N 
HETATM   33  C   UNK N   1      35.001  12.766  12.774  0.00  0.00     0.299 C 
HETATM   34  C   UNK N   1      34.860  12.342  14.244  0.00  0.00     0.198 C 
HETATM   35  O   UNK N   1      35.126  10.967  14.378  0.00  0.00    -0.388 OA
HETATM   36  C   UNK N   1      34.081  10.289  13.714  0.00  0.00     0.198 C 
HETATM   37  C   UNK N   1      34.043  10.645  12.212  0.00  0.00     0.299 C 
ENDBRANCH  17  32
BRANCH  19  38
HETATM   38  O   UNK N   1      37.545  11.948  10.356  0.00  0.00    -0.393 OA
HETATM   39  H   UNK N   1      38.119  11.599  11.056  0.00  0.00     0.210 HD
ENDBRANCH  19  38
TORSDOF 7
ENDMDL
MODEL 2
REMARK VINA RESULT:      -7.5     14.579     18.564
REMARK  7 active torsions:
REMARK  status: ('A' for Active; 'I' for Inactive)
REMARK    1  A    between atoms: C_13  and  O_1 
REMARK    2  A    between atoms: O_1  and  C_32 
REMARK    3  A    between atoms: C_27  and  O_2 
REMARK    4  A    between atoms: C_12  and  N_5 
REMARK    5  A    between atoms: N_5  and  C_28 
REMARK    6  A    between atoms: C_23  and  N_6 
REMARK    7  A    between atoms: C_28  and  C_31 
ROOT
HETATM    1  C   UNK N   1      29.729  22.321  -5.933  0.00  0.00     0.003 C 
HETATM    2  C   UNK N   1      30.523  22.608  -4.629  0.00  0.00    -0.011 C 
HETATM    3  C   UNK N   1      28.373  23.043  -5.890  0.00  0.00    -0.005 C 
HETATM    4  C   UNK N   1      28.431  24.572  -5.639  0.00  0.00    -0.002 C 
HETATM    5  C   UNK N   1      27.152  24.926  -4.811  0.00  0.00    -0.034 C 
HETATM    6  C   UNK N   1      32.041  21.932  -6.499  0.00  0.00     0.221 C 
HETATM    7  C   UNK N   1      31.930  22.146  -4.985  0.00  0.00     0.171 C 
HETATM    8  C   UNK N   1      30.735  22.566  -7.057  0.00  0.00     0.042 C 
HETATM    9  C   UNK N   1      30.456  24.067  -4.129  0.00  0.00     0.012 C 
HETATM   10  C   UNK N   1      25.890  24.601  -5.681  0.00  0.00    -0.004 C 
HETATM   11  C   UNK N   1      29.776  25.045  -5.068  0.00  0.00     0.007 C 
HETATM   12  C   UNK N   1      27.305  22.784  -6.946  0.00  0.00     0.006 C 
HETATM   13  C   UNK N   1      25.939  23.189  -6.336  0.00  0.00     0.006 C 
HETATM   14  C   UNK N   1      27.125  26.370  -4.325  0.00  0.00     0.048 C 
HETATM   15  C   UNK N   1      30.016  21.768  -3.470  0.00  0.00     0.018 C 
HETATM   16  C   UNK N   1      25.684  25.673  -6.764  0.00  0.00     0.039 C 
HETATM   17  C   UNK N   1      26.861  27.426  -5.388  0.00  0.00     0.252 C 
HETATM   18  C   UNK N   1      27.097  24.142  -3.496  0.00  0.00     0.016 C 
HETATM   19  C   UNK N   1      25.561  27.072  -6.137  0.00  0.00     0.151 C 
ENDROOT
BRANCH   6  20
HETATM   20  N   UNK N   1      32.306  20.495  -6.856  0.00  0.00    -0.057 N 
HETATM   21  C   UNK N   1      32.088  19.616  -5.702  0.00  0.00     0.238 C 
HETATM   22  C   UNK N   1      33.365  19.560  -4.909  0.00  0.00     0.030 C 
HETATM   23  C   UNK N   1      34.435  19.762  -5.947  0.00  0.00     0.030 C 
HETATM   24  C   UNK N   1      33.725  20.326  -7.171  0.00  0.00     0.238 C 
BRANCH  20  25
HETATM   25  C   UNK N   1      31.454  19.928  -7.916  0.00  0.00     0.264 C 
BRANCH  25  26
HETATM   26  C   UNK N   1      30.351  19.036  -7.420  0.00  0.00    -0.009 C 
HETATM   27  C   UNK N   1      29.096  19.262  -7.794  0.00  0.00     0.008 C 
ENDBRANCH  25  26
ENDBRANCH  20  25
ENDBRANCH   6  20
BRANCH   7  28
HETATM   28  O   UNK N   1      32.998  22.820  -4.406  0.00  0.00    -0.313 OA
BRANCH  28  29
HETATM   29  C   UNK N   1      33.933  23.539  -5.088  0.00  0.00     0.255 C 
HETATM   30  O   UNK N   1      35.028  23.067  -5.350  0.00  0.00    -0.266 OA
HETATM   31  C   UNK N   1      33.623  24.937  -5.496  0.00  0.00     0.126 C 
ENDBRANCH  28  29
ENDBRANCH   7  28
BRANCH  17  32
HETATM   32  N   UNK N   1      26.802  28.718  -4.690  0.00  0.00     0.099 N 
HETATM   33  C   UNK N   1      27.287  28.527  -3.314  0.00  0.00     0.299 C 
HETATM   34  C   UNK N   1      27.373  29.871  -2.575  0.00  0.00     0.198 C 
HETATM   35  O   UNK N   1      26.742  30.878  -3.329  0.00  0.00    -0.388 OA
HETATM   36  C   UNK N   1      27.527  31.062  -4.489  0.00  0.00     0.198 C 
HETATM   37  C   UNK N   1      27.591  29.774  -5.335  0.00  0.00     0.299 C 
ENDBRANCH  17  32
BRANCH  19  38
HETATM   38  O   UNK N   1      24.456  27.129  -5.279  0.00  0.00    -0.393 OA
HETATM   39  H   UNK N   1      24.136  27.691  -4.556  0.00  0.00     0.210 HD
ENDBRANCH  19  38
TORSDOF 7
ENDMDL
MODEL 3
REMARK VINA RESULT:      -7.3     14.009     18.695
REMARK  7 active torsions:
REMARK  status: ('A' for Active; 'I' for Inactive)
REMARK    1  A    between atoms: C_13  and  O_1 
REMARK    2  A    between atoms: O_1  and  C_32 
REMARK    3  A    between atoms: C_27  and  O_2 
REMARK    4  A    between atoms: C_12  and  N_5 
REMARK    5  A    between atoms: N_5  and  C_28 
REMARK    6  A    between atoms: C_23  and  N_6 
REMARK    7  A    between atoms: C_28  and  C_31 
ROOT
HETATM    1  C   UNK N   1      29.745  22.358  -5.903  0.00  0.00     0.003 C 
HETATM    2  C   UNK N   1      30.564  22.744  -4.641  0.00  0.00    -0.011 C 
HETATM    3  C   UNK N   1      28.381  23.064  -5.879  0.00  0.00    -0.005 C 
HETATM    4  C   UNK N   1      28.422  24.607  -5.734  0.00  0.00    -0.002 C 
HETATM    5  C   UNK N   1      27.157  25.001  -4.903  0.00  0.00    -0.034 C 
HETATM    6  C   UNK N   1      32.050  21.961  -6.495  0.00  0.00     0.221 C 
HETATM    7  C   UNK N   1      31.969  22.277  -4.997  0.00  0.00     0.171 C 
HETATM    8  C   UNK N   1      30.723  22.538  -7.065  0.00  0.00     0.042 C 
HETATM    9  C   UNK N   1      30.487  24.232  -4.240  0.00  0.00     0.012 C 
HETATM   10  C   UNK N   1      25.881  24.600  -5.720  0.00  0.00    -0.004 C 
HETATM   11  C   UNK N   1      29.772  25.135  -5.228  0.00  0.00     0.007 C 
HETATM   12  C   UNK N   1      27.294  22.719  -6.890  0.00  0.00     0.006 C 
HETATM   13  C   UNK N   1      25.935  23.148  -6.278  0.00  0.00     0.006 C 
HETATM   14  C   UNK N   1      27.120  26.474  -4.516  0.00  0.00     0.048 C 
HETATM   15  C   UNK N   1      30.095  21.979  -3.416  0.00  0.00     0.018 C 
HETATM   16  C   UNK N   1      25.635  25.593  -6.868  0.00  0.00     0.039 C 
HETATM   17  C   UNK N   1      26.818  27.451  -5.643  0.00  0.00     0.252 C 
HETATM   18  C   UNK N   1      27.142  24.308  -3.537  0.00  0.00     0.016 C 
HETATM   19  C   UNK N   1      25.507  27.030  -6.336  0.00  0.00     0.151 C 
ENDROOT
BRANCH   6  20
HETATM   20  N   UNK N   1      32.327  20.506  -6.759  0.00  0.00    -0.057 N 
HETATM   21  C   UNK N   1      33.590  20.332  -7.486  0.00  0.00     0.238 C 
HETATM   22  C   UNK N   1      33.301  20.451  -8.957  0.00  0.00     0.030 C 
HETATM   23  C   UNK N   1      31.887  19.955  -9.082  0.00  0.00     0.030 C 
HETATM   24  C   UNK N   1      31.313  19.976  -7.672  0.00  0.00     0.238 C 
BRANCH  20  25
HETATM   25  C   UNK N   1      32.468  19.652  -5.567  0.00  0.00     0.264 C 
BRANCH  25  26
HETATM   26  C   UNK N   1      33.870  19.180  -5.299  0.00  0.00    -0.009 C 
HETATM   27  C   UNK N   1      34.222  18.810  -4.072  0.00  0.00     0.008 C 
ENDBRANCH  25  26
ENDBRANCH  20  25
ENDBRANCH   6  20
BRANCH   7  28
HETATM   28  O   UNK N   1      33.040  23.002  -4.489  0.00  0.00    -0.313 OA
BRANCH  28  29
HETATM   29  C   UNK N   1      34.039  23.551  -5.237  0.00  0.00     0.255 C 
HETATM   30  O   UNK N   1      35.047  22.919  -5.508  0.00  0.00    -0.266 OA
HETATM   31  C   UNK N   1      33.908  24.958  -5.708  0.00  0.00     0.126 C 
ENDBRANCH  28  29
ENDBRANCH   7  28
BRANCH  17  32
HETATM   32  N   UNK N   1      26.755  28.787  -5.033  0.00  0.00     0.099 N 
HETATM   33  C   UNK N   1      26.932  28.645  -3.580  0.00  0.00     0.299 C 
HETATM   34  C   UNK N   1      27.008  30.022  -2.903  0.00  0.00     0.198 C 
HETATM   35  O   UNK N   1      26.651  31.030  -3.817  0.00  0.00    -0.388 OA
HETATM   36  C   UNK N   1      27.666  31.062  -4.797  0.00  0.00     0.198 C 
HETATM   37  C   UNK N   1      27.764  29.719  -5.551  0.00  0.00     0.299 C 
ENDBRANCH  17  32
BRANCH  19  38
HETATM   38  O   UNK N   1      24.420  27.132  -5.459  0.00  0.00    -0.393 OA
HETATM   39  H   UNK N   1      23.475  27.347  -5.507  0.00  0.00     0.210 HD
ENDBRANCH  19  38
TORSDOF 7
ENDMDL
MODEL 4
REMARK VINA RESULT:      -7.2      4.170     10.052
REMARK  7 active torsions:
REMARK  status: ('A' for Active; 'I' for Inactive)
REMARK    1  A    between atoms: C_13  and  O_1 
REMARK    2  A    between atoms: O_1  and  C_32 
REMARK    3  A    between atoms: C_27  and  O_2 
REMARK    4  A    between atoms: C_12  and  N_5 
REMARK    5  A    between atoms: N_5  and  C_28 
REMARK    6  A    between atoms: C_23  and  N_6 
REMARK    7  A    between atoms: C_28  and  C_31 
ROOT
HETATM    1  C   UNK N   1      29.555  16.813   5.044  0.00  0.00     0.003 C 
HETATM    2  C   UNK N   1      29.561  15.343   4.544  0.00  0.00    -0.011 C 
HETATM    3  C   UNK N   1      28.251  17.506   4.621  0.00  0.00    -0.005 C 
HETATM    4  C   UNK N   1      26.941  16.801   5.056  0.00  0.00    -0.002 C 
HETATM    5  C   UNK N   1      25.901  17.072   3.919  0.00  0.00    -0.034 C 
HETATM    6  C   UNK N   1      31.114  15.659   6.479  0.00  0.00     0.221 C 
HETATM    7  C   UNK N   1      30.703  14.723   5.336  0.00  0.00     0.171 C 
HETATM    8  C   UNK N   1      29.978  16.721   6.510  0.00  0.00     0.042 C 
HETATM    9  C   UNK N   1      28.219  14.594   4.696  0.00  0.00     0.012 C 
HETATM   10  C   UNK N   1      25.645  18.616   3.837  0.00  0.00    -0.004 C 
HETATM   11  C   UNK N   1      27.146  15.336   5.469  0.00  0.00     0.007 C 
HETATM   12  C   UNK N   1      28.057  19.006   4.805  0.00  0.00     0.006 C 
HETATM   13  C   UNK N   1      26.954  19.459   3.813  0.00  0.00     0.006 C 
HETATM   14  C   UNK N   1      24.595  16.309   4.097  0.00  0.00     0.048 C 
HETATM   15  C   UNK N   1      29.895  15.258   3.064  0.00  0.00     0.018 C 
HETATM   16  C   UNK N   1      24.745  19.081   4.993  0.00  0.00     0.039 C 
HETATM   17  C   UNK N   1      23.677  16.808   5.203  0.00  0.00     0.252 C 
HETATM   18  C   UNK N   1      26.398  16.552   2.567  0.00  0.00     0.016 C 
HETATM   19  C   UNK N   1      23.413  18.312   4.997  0.00  0.00     0.151 C 
ENDROOT
BRANCH   6  20
HETATM   20  N   UNK N   1      32.519  16.171   6.321  0.00  0.00    -0.057 N 
HETATM   21  C   UNK N   1      33.443  15.462   7.213  0.00  0.00     0.238 C 
HETATM   22  C   UNK N   1      33.434  16.160   8.545  0.00  0.00     0.030 C 
HETATM   23  C   UNK N   1      33.131  17.590   8.194  0.00  0.00     0.030 C 
HETATM   24  C   UNK N   1      32.583  17.563   6.773  0.00  0.00     0.238 C 
BRANCH  20  25
HETATM   25  C   UNK N   1      33.112  16.020   4.982  0.00  0.00     0.264 C 
BRANCH  25  26
HETATM   26  C   UNK N   1      33.062  17.260   4.133  0.00  0.00    -0.009 C 
HETATM   27  C   UNK N   1      32.636  17.188   2.876  0.00  0.00     0.008 C 
ENDBRANCH  25  26
ENDBRANCH  20  25
ENDBRANCH   6  20
BRANCH   7  28
HETATM   28  O   UNK N   1      30.596  13.382   5.684  0.00  0.00    -0.313 OA
BRANCH  28  29
HETATM   29  C   UNK N   1      31.060  12.340   4.938  0.00  0.00     0.255 C 
HETATM   30  O   UNK N   1      30.496  11.257   4.941  0.00  0.00    -0.266 OA
HETATM   31  C   UNK N   1      32.296  12.518   4.126  0.00  0.00     0.126 C 
ENDBRANCH  28  29
ENDBRANCH   7  28
BRANCH  17  32
HETATM   32  N   UNK N   1      22.461  15.985   5.142  0.00  0.00     0.099 N 
HETATM   33  C   UNK N   1      22.854  14.588   4.901  0.00  0.00     0.299 C 
HETATM   34  C   UNK N   1      21.631  13.660   4.959  0.00  0.00     0.198 C 
HETATM   35  O   UNK N   1      20.448  14.421   4.986  0.00  0.00    -0.388 OA
HETATM   36  C   UNK N   1      20.434  15.099   6.225  0.00  0.00     0.198 C 
HETATM   37  C   UNK N   1      21.642  16.052   6.358  0.00  0.00     0.299 C 
ENDBRANCH  17  32
BRANCH  19  38
HETATM   38  O   UNK N   1      22.712  18.541   3.807  0.00  0.00    -0.393 OA
HETATM   39  H   UNK N   1      22.854  18.419   2.855  0.00  0.00     0.210 HD
ENDBRANCH  19  38
TORSDOF 7
ENDMDL
MODEL 5
REMARK VINA RESULT:      -7.2      6.023     10.226
REMARK  7 active torsions:
REMARK  status: ('A' for Active; 'I' for Inactive)
REMARK    1  A    between atoms: C_13  and  O_1 
REMARK    2  A    between atoms: O_1  and  C_32 
REMARK    3  A    between atoms: C_27  and  O_2 
REMARK    4  A    between atoms: C_12  and  N_5 
REMARK    5  A    between atoms: N_5  and  C_28 
REMARK    6  A    between atoms: C_23  and  N_6 
REMARK    7  A    between atoms: C_28  and  C_31 
ROOT
HETATM    1  C   UNK N   1      23.305  14.630   3.858  0.00  0.00     0.003 C 
HETATM    2  C   UNK N   1      22.531  15.632   4.758  0.00  0.00    -0.011 C 
HETATM    3  C   UNK N   1      24.702  15.184   3.537  0.00  0.00    -0.005 C 
HETATM    4  C   UNK N   1      25.572  15.568   4.761  0.00  0.00    -0.002 C 
HETATM    5  C   UNK N   1      26.432  16.796   4.315  0.00  0.00    -0.034 C 
HETATM    6  C   UNK N   1      21.622  13.311   4.977  0.00  0.00     0.221 C 
HETATM    7  C   UNK N   1      21.365  14.795   5.266  0.00  0.00     0.171 C 
HETATM    8  C   UNK N   1      23.115  13.275   4.541  0.00  0.00     0.042 C 
HETATM    9  C   UNK N   1      23.365  16.283   5.881  0.00  0.00     0.012 C 
HETATM   10  C   UNK N   1      27.371  16.347   3.144  0.00  0.00    -0.004 C 
HETATM   11  C   UNK N   1      24.765  15.725   6.058  0.00  0.00     0.007 C 
HETATM   12  C   UNK N   1      25.606  14.505   2.516  0.00  0.00     0.006 C 
HETATM   13  C   UNK N   1      26.628  15.562   2.023  0.00  0.00     0.006 C 
HETATM   14  C   UNK N   1      27.234  17.420   5.451  0.00  0.00     0.048 C 
HETATM   15  C   UNK N   1      21.978  16.794   3.951  0.00  0.00     0.018 C 
HETATM   16  C   UNK N   1      28.546  15.512   3.677  0.00  0.00     0.039 C 
HETATM   17  C   UNK N   1      28.433  16.619   5.938  0.00  0.00     0.252 C 
HETATM   18  C   UNK N   1      25.552  17.965   3.862  0.00  0.00     0.016 C 
HETATM   19  C   UNK N   1      29.341  16.293   4.736  0.00  0.00     0.151 C 
ENDROOT
BRANCH   6  20
HETATM   20  N   UNK N   1      20.619  12.735   4.016  0.00  0.00    -0.057 N 
HETATM   21  C   UNK N   1      19.472  12.161   4.729  0.00  0.00     0.238 C 
HETATM   22  C   UNK N   1      19.810  10.741   5.089  0.00  0.00     0.030 C 
HETATM   23  C   UNK N   1      20.746  10.310   3.995  0.00  0.00     0.030 C 
HETATM   24  C   UNK N   1      21.215  11.592   3.319  0.00  0.00     0.238 C 
BRANCH  20  25
HETATM   25  C   UNK N   1      20.022  13.685   3.062  0.00  0.00     0.264 C 
BRANCH  25  26
HETATM   26  C   UNK N   1      20.501  13.534   1.645  0.00  0.00    -0.009 C 
HETATM   27  C   UNK N   1      21.030  14.573   1.009  0.00  0.00     0.008 C 
ENDBRANCH  25  26
ENDBRANCH  20  25
ENDBRANCH   6  20
BRANCH   7  28
HETATM   28  O   UNK N   1      20.877  15.071   6.538  0.00  0.00    -0.313 OA
BRANCH  28  29
HETATM   29  C   UNK N   1      19.793  15.851   6.808  0.00  0.00     0.255 C 
HETATM   30  O   UNK N   1      18.763  15.751   6.161  0.00  0.00    -0.266 OA
HETATM   31  C   UNK N   1      19.877  16.864   7.896  0.00  0.00     0.126 C 
ENDBRANCH  28  29
ENDBRANCH   7  28
BRANCH  17  32
HETATM   32  N   UNK N   1      29.092  17.436   6.967  0.00  0.00     0.099 N 
HETATM   33  C   UNK N   1      28.154  17.625   8.084  0.00  0.00     0.299 C 
HETATM   34  C   UNK N   1      28.834  18.361   9.249  0.00  0.00     0.198 C 
HETATM   35  O   UNK N   1      30.084  18.861   8.840  0.00  0.00    -0.388 OA
HETATM   36  C   UNK N   1      30.908  17.739   8.602  0.00  0.00     0.198 C 
HETATM   37  C   UNK N   1      30.336  16.849   7.478  0.00  0.00     0.299 C 
ENDBRANCH  17  32
BRANCH  19  38
HETATM   38  O   UNK N   1      29.879  17.461   4.182  0.00  0.00    -0.393 OA
HETATM   39  H   UNK N   1      30.044  18.377   4.456  0.00  0.00     0.210 HD
ENDBRANCH  19  38
TORSDOF 7
ENDMDL
MODEL 6
REMARK VINA RESULT:      -6.8      2.673      8.921
REMARK  7 active torsions:
REMARK  status: ('A' for Active; 'I' for Inactive)
REMARK    1  A    between atoms: C_13  and  O_1 
REMARK    2  A    between atoms: O_1  and  C_32 
REMARK    3  A    between atoms: C_27  and  O_2 
REMARK    4  A    between atoms: C_12  and  N_5 
REMARK    5  A    between atoms: N_5  and  C_28 
REMARK    6  A    between atoms: C_23  and  N_6 
REMARK    7  A    between atoms: C_28  and  C_31 
ROOT
HETATM    1  C   UNK N   1      34.885  14.953   7.477  0.00  0.00     0.003 C 
HETATM    2  C   UNK N   1      35.237  13.526   6.976  0.00  0.00    -0.011 C 
HETATM    3  C   UNK N   1      34.065  15.696   6.412  0.00  0.00    -0.005 C 
HETATM    4  C   UNK N   1      32.778  14.979   5.930  0.00  0.00    -0.002 C 
HETATM    5  C   UNK N   1      32.609  15.353   4.420  0.00  0.00    -0.034 C 
HETATM    6  C   UNK N   1      35.324  13.667   9.472  0.00  0.00     0.221 C 
HETATM    7  C   UNK N   1      35.705  12.829   8.246  0.00  0.00     0.171 C 
HETATM    8  C   UNK N   1      34.356  14.741   8.896  0.00  0.00     0.042 C 
HETATM    9  C   UNK N   1      34.094  12.787   6.246  0.00  0.00     0.012 C 
HETATM   10  C   UNK N   1      32.400  16.902   4.313  0.00  0.00    -0.004 C 
HETATM   11  C   UNK N   1      32.747  13.483   6.278  0.00  0.00     0.007 C 
HETATM   12  C   UNK N   1      33.748  17.180   6.550  0.00  0.00     0.006 C 
HETATM   13  C   UNK N   1      33.437  17.724   5.132  0.00  0.00     0.006 C 
HETATM   14  C   UNK N   1      31.480  14.598   3.731  0.00  0.00     0.048 C 
HETATM   15  C   UNK N   1      36.388  13.550   5.984  0.00  0.00     0.018 C 
HETATM   16  C   UNK N   1      30.973  17.289   4.735  0.00  0.00     0.039 C 
HETATM   17  C   UNK N   1      30.068  15.023   4.106  0.00  0.00     0.252 C 
HETATM   18  C   UNK N   1      33.830  14.931   3.597  0.00  0.00     0.016 C 
HETATM   19  C   UNK N   1      29.927  16.543   3.891  0.00  0.00     0.151 C 
ENDROOT
BRANCH   6  20
HETATM   20  N   UNK N   1      36.529  14.169  10.218  0.00  0.00    -0.057 N 
HETATM   21  C   UNK N   1      36.755  13.392  11.441  0.00  0.00     0.238 C 
HETATM   22  C   UNK N   1      35.931  14.002  12.542  0.00  0.00     0.030 C 
HETATM   23  C   UNK N   1      35.859  15.456  12.165  0.00  0.00     0.030 C 
HETATM   24  C   UNK N   1      36.271  15.528  10.701  0.00  0.00     0.238 C 
BRANCH  20  25
HETATM   25  C   UNK N   1      37.810  14.097   9.495  0.00  0.00     0.264 C 
BRANCH  25  26
HETATM   26  C   UNK N   1      38.796  13.116  10.067  0.00  0.00    -0.009 C 
HETATM   27  C   UNK N   1      39.545  12.379   9.254  0.00  0.00     0.008 C 
ENDBRANCH  25  26
ENDBRANCH  20  25
ENDBRANCH   6  20
BRANCH   7  28
HETATM   28  O   UNK N   1      35.458  11.467   8.365  0.00  0.00    -0.313 OA
BRANCH  28  29
HETATM   29  C   UNK N   1      36.410  10.514   8.575  0.00  0.00     0.255 C 
HETATM   30  O   UNK N   1      36.641  10.086   9.694  0.00  0.00    -0.266 OA
HETATM   31  C   UNK N   1      37.201  10.007   7.420  0.00  0.00     0.126 C 
ENDBRANCH  28  29
ENDBRANCH   7  28
BRANCH  17  32
HETATM   32  N   UNK N   1      29.155  14.226   3.274  0.00  0.00     0.099 N 
HETATM   33  C   UNK N   1      29.959  13.338   2.420  0.00  0.00     0.299 C 
HETATM   34  C   UNK N   1      29.055  12.385   1.622  0.00  0.00     0.198 C 
HETATM   35  O   UNK N   1      27.710  12.780   1.743  0.00  0.00    -0.388 OA
HETATM   36  C   UNK N   1      27.348  12.564   3.090  0.00  0.00     0.198 C 
HETATM   37  C   UNK N   1      28.205  13.418   4.048  0.00  0.00     0.299 C 
ENDBRANCH  17  32
BRANCH  19  38
HETATM   38  O   UNK N   1      30.064  16.873   2.537  0.00  0.00    -0.393 OA
HETATM   39  H   UNK N   1      29.513  17.241   1.828  0.00  0.00     0.210 HD
ENDBRANCH  19  38
TORSDOF 7
ENDMDL
MODEL 7
REMARK VINA RESULT:      -6.7     13.636     17.518
REMARK  7 active torsions:
REMARK  status: ('A' for Active; 'I' for Inactive)
REMARK    1  A    between atoms: C_13  and  O_1 
REMARK    2  A    between atoms: O_1  and  C_32 
REMARK    3  A    between atoms: C_27  and  O_2 
REMARK    4  A    between atoms: C_12  and  N_5 
REMARK    5  A    between atoms: N_5  and  C_28 
REMARK    6  A    between atoms: C_23  and  N_6 
REMARK    7  A    between atoms: C_28  and  C_31 
ROOT
HETATM    1  C   UNK N   1      29.178  25.452  -4.778  0.00  0.00     0.003 C 
HETATM    2  C   UNK N   1      29.375  25.619  -6.310  0.00  0.00    -0.011 C 
HETATM    3  C   UNK N   1      29.732  24.094  -4.323  0.00  0.00    -0.005 C 
HETATM    4  C   UNK N   1      31.210  23.811  -4.693  0.00  0.00    -0.002 C 
HETATM    5  C   UNK N   1      31.307  22.272  -4.955  0.00  0.00    -0.034 C 
HETATM    6  C   UNK N   1      29.127  27.832  -5.171  0.00  0.00     0.221 C 
HETATM    7  C   UNK N   1      29.124  27.106  -6.521  0.00  0.00     0.171 C 
HETATM    8  C   UNK N   1      29.680  26.767  -4.181  0.00  0.00     0.042 C 
HETATM    9  C   UNK N   1      30.738  25.136  -6.851  0.00  0.00     0.012 C 
HETATM   10  C   UNK N   1      30.962  21.518  -3.625  0.00  0.00    -0.004 C 
HETATM   11  C   UNK N   1      31.750  24.734  -5.795  0.00  0.00     0.007 C 
HETATM   12  C   UNK N   1      29.498  23.578  -2.908  0.00  0.00     0.006 C 
HETATM   13  C   UNK N   1      29.664  22.037  -2.940  0.00  0.00     0.006 C 
HETATM   14  C   UNK N   1      32.661  21.833  -5.498  0.00  0.00     0.048 C 
HETATM   15  C   UNK N   1      28.338  24.836  -7.095  0.00  0.00     0.018 C 
HETATM   16  C   UNK N   1      32.139  21.588  -2.638  0.00  0.00     0.039 C 
HETATM   17  C   UNK N   1      33.814  21.845  -4.504  0.00  0.00     0.252 C 
HETATM   18  C   UNK N   1      30.354  21.830  -6.069  0.00  0.00     0.016 C 
HETATM   19  C   UNK N   1      33.420  21.014  -3.267  0.00  0.00     0.151 C 
ENDROOT
BRANCH   6  20
HETATM   20  N   UNK N   1      27.789  28.435  -4.843  0.00  0.00    -0.057 N 
HETATM   21  C   UNK N   1      27.835  29.899  -4.920  0.00  0.00     0.238 C 
HETATM   22  C   UNK N   1      28.296  30.422  -3.587  0.00  0.00     0.030 C 
HETATM   23  C   UNK N   1      27.801  29.391  -2.611  0.00  0.00     0.030 C 
HETATM   24  C   UNK N   1      27.462  28.160  -3.442  0.00  0.00     0.238 C 
BRANCH  20  25
HETATM   25  C   UNK N   1      26.677  28.055  -5.731  0.00  0.00     0.264 C 
BRANCH  25  26
HETATM   26  C   UNK N   1      25.594  27.251  -5.069  0.00  0.00    -0.009 C 
HETATM   27  C   UNK N   1      25.183  26.112  -5.617  0.00  0.00     0.008 C 
ENDBRANCH  25  26
ENDBRANCH  20  25
ENDBRANCH   6  20
BRANCH   7  28
HETATM   28  O   UNK N   1      29.830  27.743  -7.534  0.00  0.00    -0.313 OA
BRANCH  28  29
HETATM   29  C   UNK N   1      29.266  28.406  -8.583  0.00  0.00     0.255 C 
HETATM   30  O   UNK N   1      29.302  29.624  -8.656  0.00  0.00    -0.266 OA
HETATM   31  C   UNK N   1      28.569  27.630  -9.646  0.00  0.00     0.126 C 
ENDBRANCH  28  29
ENDBRANCH   7  28
BRANCH  17  32
HETATM   32  N   UNK N   1      34.987  21.318  -5.215  0.00  0.00     0.099 N 
HETATM   33  C   UNK N   1      35.180  22.104  -6.443  0.00  0.00     0.299 C 
HETATM   34  C   UNK N   1      36.471  21.684  -7.162  0.00  0.00     0.198 C 
HETATM   35  O   UNK N   1      36.985  20.509  -6.584  0.00  0.00    -0.388 OA
HETATM   36  C   UNK N   1      37.404  20.853  -5.280  0.00  0.00     0.198 C 
HETATM   37  C   UNK N   1      36.222  21.353  -4.423  0.00  0.00     0.299 C 
ENDBRANCH  17  32
BRANCH  19  38
HETATM   38  O   UNK N   1      33.239  19.667  -3.604  0.00  0.00    -0.393 OA
HETATM   39  H   UNK N   1      32.529  19.101  -3.946  0.00  0.00     0.210 HD
ENDBRANCH  19  38
TORSDOF 7
ENDMDL
MODEL 8
REMARK VINA RESULT:      -6.7      1.183      2.217
REMARK  7 active torsions:
REMARK  status: ('A' for Active; 'I' for Inactive)
REMARK    1  A    between atoms: C_13  and  O_1 
REMARK    2  A    between atoms: O_1  and  C_32 
REMARK    3  A    between atoms: C_27  and  O_2 
REMARK    4  A    between atoms: C_12  and  N_5 
REMARK    5  A    between atoms: N_5  and  C_28 
REMARK    6  A    between atoms: C_23  and  N_6 
REMARK    7  A    between atoms: C_28  and  C_31 
ROOT
HETATM    1  C   UNK N   1      33.072  15.576   6.802  0.00  0.00     0.003 C 
HETATM    2  C   UNK N   1      32.230  16.552   7.669  0.00  0.00    -0.011 C 
HETATM    3  C   UNK N   1      34.285  15.077   7.601  0.00  0.00    -0.005 C 
HETATM    4  C   UNK N   1      33.968  14.421   8.969  0.00  0.00    -0.002 C 
HETATM    5  C   UNK N   1      35.163  14.780   9.913  0.00  0.00    -0.034 C 
HETATM    6  C   UNK N   1      30.862  15.544   5.834  0.00  0.00     0.221 C 
HETATM    7  C   UNK N   1      30.925  16.651   6.893  0.00  0.00     0.171 C 
HETATM    8  C   UNK N   1      32.046  14.609   6.210  0.00  0.00     0.042 C 
HETATM    9  C   UNK N   1      32.047  16.127   9.142  0.00  0.00     0.012 C 
HETATM   10  C   UNK N   1      36.468  14.137   9.329  0.00  0.00    -0.004 C 
HETATM   11  C   UNK N   1      32.559  14.742   9.487  0.00  0.00     0.007 C 
HETATM   12  C   UNK N   1      35.389  14.263   6.937  0.00  0.00     0.006 C 
HETATM   13  C   UNK N   1      36.663  14.407   7.809  0.00  0.00     0.006 C 
HETATM   14  C   UNK N   1      34.943  14.356  11.359  0.00  0.00     0.048 C 
HETATM   15  C   UNK N   1      32.864  17.931   7.731  0.00  0.00     0.018 C 
HETATM   16  C   UNK N   1      36.498  12.624   9.601  0.00  0.00     0.039 C 
HETATM   17  C   UNK N   1      35.032  12.863  11.637  0.00  0.00     0.252 C 
HETATM   18  C   UNK N   1      35.340  16.296  10.044  0.00  0.00     0.016 C 
HETATM   19  C   UNK N   1      36.378  12.332  11.106  0.00  0.00     0.151 C 
ENDROOT
BRANCH   6  20
HETATM   20  N   UNK N   1      30.846  16.092   4.434  0.00  0.00    -0.057 N 
HETATM   21  C   UNK N   1      31.883  15.462   3.608  0.00  0.00     0.238 C 
HETATM   22  C   UNK N   1      33.162  16.230   3.798  0.00  0.00     0.030 C 
HETATM   23  C   UNK N   1      32.695  17.629   4.092  0.00  0.00     0.030 C 
HETATM   24  C   UNK N   1      31.222  17.507   4.461  0.00  0.00     0.238 C 
BRANCH  20  25
HETATM   25  C   UNK N   1      29.599  15.888   3.676  0.00  0.00     0.264 C 
BRANCH  25  26
HETATM   26  C   UNK N   1      29.633  14.732   2.717  0.00  0.00    -0.009 C 
HETATM   27  C   UNK N   1      28.663  13.824   2.736  0.00  0.00     0.008 C 
ENDBRANCH  25  26
ENDBRANCH  20  25
ENDBRANCH   6  20
BRANCH   7  28
HETATM   28  O   UNK N   1      29.754  16.841   7.617  0.00  0.00    -0.313 OA
BRANCH  28  29
HETATM   29  C   UNK N   1      29.084  18.023   7.727  0.00  0.00     0.255 C 
HETATM   30  O   UNK N   1      29.075  18.651   8.774  0.00  0.00    -0.266 OA
HETATM   31  C   UNK N   1      28.326  18.543   6.556  0.00  0.00     0.126 C 
ENDBRANCH  28  29
ENDBRANCH   7  28
BRANCH  17  32
HETATM   32  N   UNK N   1      34.867  12.695  13.087  0.00  0.00     0.099 N 
HETATM   33  C   UNK N   1      35.243  11.319  13.444  0.00  0.00     0.299 C 
HETATM   34  C   UNK N   1      35.218  11.124  14.967  0.00  0.00     0.198 C 
HETATM   35  O   UNK N   1      34.615  12.234  15.587  0.00  0.00    -0.388 OA
HETATM   36  C   UNK N   1      35.484  13.328  15.386  0.00  0.00     0.198 C 
HETATM   37  C   UNK N   1      35.666  13.633  13.884  0.00  0.00     0.299 C 
ENDBRANCH  17  32
BRANCH  19  38
HETATM   38  O   UNK N   1      37.452  12.901  11.802  0.00  0.00    -0.393 OA
HETATM   39  H   UNK N   1      38.408  13.012  11.681  0.00  0.00     0.210 HD
ENDBRANCH  19  38
TORSDOF 7
ENDMDL
MODEL 9
REMARK VINA RESULT:      -6.6      2.374      9.372
REMARK  7 active torsions:
REMARK  status: ('A' for Active; 'I' for Inactive)
REMARK    1  A    between atoms: C_13  and  O_1 
REMARK    2  A    between atoms: O_1  and  C_32 
REMARK    3  A    between atoms: C_27  and  O_2 
REMARK    4  A    between atoms: C_12  and  N_5 
REMARK    5  A    between atoms: N_5  and  C_28 
REMARK    6  A    between atoms: C_23  and  N_6 
REMARK    7  A    between atoms: C_28  and  C_31 
ROOT
HETATM    1  C   UNK N   1      35.864  13.594  11.632  0.00  0.00     0.003 C 
HETATM    2  C   UNK N   1      36.298  12.328  10.843  0.00  0.00    -0.011 C 
HETATM    3  C   UNK N   1      35.456  14.707  10.654  0.00  0.00    -0.005 C 
HETATM    4  C   UNK N   1      34.361  14.332   9.625  0.00  0.00    -0.002 C 
HETATM    5  C   UNK N   1      34.696  15.129   8.321  0.00  0.00    -0.034 C 
HETATM    6  C   UNK N   1      35.593  11.759  13.175  0.00  0.00     0.221 C 
HETATM    7  C   UNK N   1      36.309  11.250  11.918  0.00  0.00     0.171 C 
HETATM    8  C   UNK N   1      34.904  13.070  12.700  0.00  0.00     0.042 C 
HETATM    9  C   UNK N   1      35.417  11.982   9.624  0.00  0.00     0.012 C 
HETATM   10  C   UNK N   1      34.595  16.661   8.636  0.00  0.00    -0.004 C 
HETATM   11  C   UNK N   1      34.159  12.816   9.474  0.00  0.00     0.007 C 
HETATM   12  C   UNK N   1      35.173  16.123  11.142  0.00  0.00     0.006 C 
HETATM   13  C   UNK N   1      35.351  17.076   9.931  0.00  0.00     0.006 C 
HETATM   14  C   UNK N   1      33.814  14.754   7.137  0.00  0.00     0.048 C 
HETATM   15  C   UNK N   1      37.704  12.473  10.287  0.00  0.00     0.018 C 
HETATM   16  C   UNK N   1      33.126  17.104   8.722  0.00  0.00     0.039 C 
HETATM   17  C   UNK N   1      32.374  15.244   7.196  0.00  0.00     0.252 C 
HETATM   18  C   UNK N   1      36.096  14.793   7.800  0.00  0.00     0.016 C 
HETATM   19  C   UNK N   1      32.372  16.768   7.424  0.00  0.00     0.151 C 
ENDROOT
BRANCH   6  20
HETATM   20  N   UNK N   1      36.518  11.868  14.356  0.00  0.00    -0.057 N 
HETATM   21  C   UNK N   1      36.051  11.037  15.471  0.00  0.00     0.238 C 
HETATM   22  C   UNK N   1      35.073  11.846  16.278  0.00  0.00     0.030 C 
HETATM   23  C   UNK N   1      35.541  13.262  16.087  0.00  0.00     0.030 C 
HETATM   24  C   UNK N   1      36.475  13.233  14.884  0.00  0.00     0.238 C 
BRANCH  20  25
HETATM   25  C   UNK N   1      37.906  11.430  14.128  0.00  0.00     0.264 C 
BRANCH  25  26
HETATM   26  C   UNK N   1      38.234  10.075  14.690  0.00  0.00    -0.009 C 
HETATM   27  C   UNK N   1      38.680   9.114  13.888  0.00  0.00     0.008 C 
ENDBRANCH  25  26
ENDBRANCH  20  25
ENDBRANCH   6  20
BRANCH   7  28
HETATM   28  O   UNK N   1      35.981   9.955  11.538  0.00  0.00    -0.313 OA
BRANCH  28  29
HETATM   29  C   UNK N   1      34.952   9.224  12.053  0.00  0.00     0.255 C 
HETATM   30  O   UNK N   1      35.128   8.444  12.975  0.00  0.00    -0.266 OA
HETATM   31  C   UNK N   1      33.593   9.360  11.459  0.00  0.00     0.126 C 
ENDBRANCH  28  29
ENDBRANCH   7  28
BRANCH  17  32
HETATM   32  N   UNK N   1      31.741  14.839   5.933  0.00  0.00     0.099 N 
HETATM   33  C   UNK N   1      32.057  13.424   5.686  0.00  0.00     0.299 C 
HETATM   34  C   UNK N   1      31.312  12.908   4.445  0.00  0.00     0.198 C 
HETATM   35  O   UNK N   1      30.726  13.983   3.751  0.00  0.00    -0.388 OA
HETATM   36  C   UNK N   1      29.709  14.494   4.587  0.00  0.00     0.198 C 
HETATM   37  C   UNK N   1      30.285  15.017   5.920  0.00  0.00     0.299 C 
ENDBRANCH  17  32
BRANCH  19  38
HETATM   38  O   UNK N   1      32.945  17.440   6.338  0.00  0.00    -0.393 OA
HETATM   39  H   UNK N   1      32.928  17.386   5.369  0.00  0.00     0.210 HD
ENDBRANCH  19  38
TORSDOF 7
ENDMDL
