REMARK  7 active torsions:
REMARK  status: ('A' for Active; 'I' for Inactive)
REMARK    1  A    between atoms: C_13  and  O_1 
REMARK    2  A    between atoms: O_1  and  C_32 
REMARK    3  A    between atoms: C_27  and  O_2 
REMARK    4  A    between atoms: C_12  and  N_5 
REMARK    5  A    between atoms: N_5  and  C_28 
REMARK    6  A    between atoms: C_23  and  N_6 
REMARK    7  A    between atoms: C_28  and  C_31 
ROOT
HETATM    1  C   UNK N   1       8.552  -1.014   0.429  0.00  0.00     0.003 C 
HETATM    2  C   UNK N   1       8.412   0.261   1.305  0.00  0.00    -0.011 C 
HETATM    3  C   UNK N   1       7.242  -1.816   0.457  0.00  0.00    -0.005 C 
HETATM    4  C   UNK N   1       5.966  -1.038   0.047  0.00  0.00    -0.002 C 
HETATM    5  C   UNK N   1       4.800  -1.628   0.907  0.00  0.00    -0.034 C 
HETATM    6  C   UNK N   1      10.224   0.515  -0.401  0.00  0.00     0.221 C 
HETATM    7  C   UNK N   1       9.615   1.093   0.882  0.00  0.00     0.171 C 
HETATM    8  C   UNK N   1       9.161  -0.514  -0.881  0.00  0.00     0.042 C 
HETATM    9  C   UNK N   1       7.065   1.003   1.171  0.00  0.00     0.012 C 
HETATM   10  C   UNK N   1       4.619  -3.138   0.529  0.00  0.00    -0.004 C 
HETATM   11  C   UNK N   1       6.145   0.487   0.081  0.00  0.00     0.007 C 
HETATM   12  C   UNK N   1       7.155  -3.210  -0.153  0.00  0.00     0.006 C 
HETATM   13  C   UNK N   1       5.956  -3.935   0.511  0.00  0.00     0.006 C 
HETATM   14  C   UNK N   1       3.490  -0.865   0.758  0.00  0.00     0.048 C 
HETATM   15  C   UNK N   1       8.541  -0.061   2.784  0.00  0.00     0.018 C 
HETATM   16  C   UNK N   1       3.907  -3.279  -0.826  0.00  0.00     0.039 C 
HETATM   17  C   UNK N   1       2.756  -1.052  -0.562  0.00  0.00     0.252 C 
HETATM   18  C   UNK N   1       5.083  -1.494   2.406  0.00  0.00     0.016 C 
HETATM   19  C   UNK N   1       2.548  -2.559  -0.812  0.00  0.00     0.151 C 
ENDROOT
BRANCH   6  20
HETATM   20  N   UNK N   1      11.621   0.000  -0.189  0.00  0.00    -0.057 N 
HETATM   21  C   UNK N   1      12.353   0.836   0.769  0.00  0.00     0.238 C 
HETATM   22  C   UNK N   1      12.983   1.972   0.011  0.00  0.00     0.030 C 
HETATM   23  C   UNK N   1      13.235   1.391  -1.353  0.00  0.00     0.030 C 
HETATM   24  C   UNK N   1      12.382   0.132  -1.433  0.00  0.00     0.238 C 
BRANCH  20  25
HETATM   25  C   UNK N   1      11.728  -1.364   0.357  0.00  0.00     0.264 C 
BRANCH  25  26
HETATM   26  C   UNK N   1      11.455  -2.458  -0.637  0.00  0.00    -0.009 C 
HETATM   27  C   UNK N   1      12.341  -3.433  -0.811  0.00  0.00     0.008 C 
ENDBRANCH  25  26
ENDBRANCH  20  25
ENDBRANCH   6  20
BRANCH   7  28
HETATM   28  O   UNK N   1       9.483   2.476   0.900  0.00  0.00    -0.313 OA
BRANCH  28  29
HETATM   29  C   UNK N   1       8.901   3.220  -0.083  0.00  0.00     0.255 C 
HETATM   30  O   UNK N   1       8.435   2.696  -1.082  0.00  0.00    -0.266 OA
HETATM   31  C   UNK N   1       8.859   4.702   0.053  0.00  0.00     0.126 C 
ENDBRANCH  28  29
ENDBRANCH   7  28
BRANCH  17  32
HETATM   32  N   UNK N   1       1.500  -0.297  -0.454  0.00  0.00     0.099 N 
HETATM   33  C   UNK N   1       1.812   1.139  -0.520  0.00  0.00     0.299 C 
HETATM   34  C   UNK N   1       0.524   1.976  -0.545  0.00  0.00     0.198 C 
HETATM   35  O   UNK N   1      -0.587   1.162  -0.258  0.00  0.00    -0.388 OA
HETATM   36  C   UNK N   1      -0.724   0.271  -1.345  0.00  0.00     0.198 C 
HETATM   37  C   UNK N   1       0.523  -0.625  -1.499  0.00  0.00     0.299 C 
ENDBRANCH  17  32
BRANCH  19  38
HETATM   38  O   UNK N   1       1.708  -3.118   0.159  0.00  0.00    -0.393 OA
HETATM   39  H   UNK N   1       1.082  -2.808   0.832  0.00  0.00     0.210 HD
ENDBRANCH  19  38
TORSDOF 7
