MODEL 1
REMARK VINA RESULT:      -3.7      0.000      0.000
REMARK  3 active torsions:
REMARK  status: ('A' for Active; 'I' for Inactive)
REMARK    1  A    between atoms: S_1  and  O_2 
REMARK    2  A    between atoms: C_14  and  C_15 
REMARK    3  A    between atoms: C_14  and  C_16 
ROOT
HETATM    1  S   UNK N   1      34.349  18.008   8.042  0.00  0.00     0.251 S 
HETATM    2  O   UNK N   1      35.342  19.312   8.557  0.00  0.00    -0.572 OA
HETATM    3  O   UNK N   1      32.867  18.336   8.282  0.00  0.00    -0.572 OA
HETATM    4  O   UNK N   1      34.457  17.897   6.515  0.00  0.00    -0.572 OA
ENDROOT
BRANCH   1   5
HETATM    5  O   UNK N   1      34.732  16.475   8.719  0.00  0.00    -0.262 OA
HETATM    6  C   UNK N   1      35.066  16.736  10.049  0.00  0.00     0.228 C 
ENDBRANCH   1   5
TORSDOF 3
ENDMDL
MODEL 2
REMARK VINA RESULT:      -3.6      1.410      2.286
REMARK  3 active torsions:
REMARK  status: ('A' for Active; 'I' for Inactive)
REMARK    1  A    between atoms: S_1  and  O_2 
REMARK    2  A    between atoms: C_14  and  C_15 
REMARK    3  A    between atoms: C_14  and  C_16 
ROOT
HETATM    1  S   UNK N   1      34.266  18.067   7.972  0.00  0.00     0.251 S 
HETATM    2  O   UNK N   1      35.330  19.284   8.554  0.00  0.00    -0.572 OA
HETATM    3  O   UNK N   1      34.439  17.884   6.456  0.00  0.00    -0.572 OA
HETATM    4  O   UNK N   1      34.712  16.720   8.557  0.00  0.00    -0.572 OA
ENDROOT
BRANCH   1   5
HETATM    5  O   UNK N   1      32.605  18.294   8.354  0.00  0.00    -0.262 OA
HETATM    6  C   UNK N   1      32.066  17.009   8.415  0.00  0.00     0.228 C 
ENDBRANCH   1   5
TORSDOF 3
ENDMDL
MODEL 3
REMARK VINA RESULT:      -3.5      1.801      2.570
REMARK  3 active torsions:
REMARK  status: ('A' for Active; 'I' for Inactive)
REMARK    1  A    between atoms: S_1  and  O_2 
REMARK    2  A    between atoms: C_14  and  C_15 
REMARK    3  A    between atoms: C_14  and  C_16 
ROOT
HETATM    1  S   UNK N   1      34.326  18.057   7.945  0.00  0.00     0.251 S 
HETATM    2  O   UNK N   1      35.330  19.301   8.575  0.00  0.00    -0.572 OA
HETATM    3  O   UNK N   1      34.647  16.715   8.620  0.00  0.00    -0.572 OA
HETATM    4  O   UNK N   1      32.880  18.345   8.373  0.00  0.00    -0.572 OA
ENDROOT
BRANCH   1   5
HETATM    5  O   UNK N   1      34.353  17.879   6.235  0.00  0.00    -0.262 OA
HETATM    6  C   UNK N   1      33.465  16.839   5.962  0.00  0.00     0.228 C 
ENDBRANCH   1   5
TORSDOF 3
ENDMDL
MODEL 4
REMARK VINA RESULT:      -3.4      0.812      2.005
REMARK  3 active torsions:
REMARK  status: ('A' for Active; 'I' for Inactive)
REMARK    1  A    between atoms: S_1  and  O_2 
REMARK    2  A    between atoms: C_14  and  C_15 
REMARK    3  A    between atoms: C_14  and  C_16 
ROOT
HETATM    1  S   UNK N   1      34.302  17.984   7.982  0.00  0.00     0.251 S 
HETATM    2  O   UNK N   1      34.400  17.776   6.279  0.00  0.00    -0.572 OA
HETATM    3  O   UNK N   1      35.098  19.224   8.417  0.00  0.00    -0.572 OA
HETATM    4  O   UNK N   1      32.851  18.337   8.339  0.00  0.00    -0.572 OA
ENDROOT
BRANCH   1   5
HETATM    5  O   UNK N   1      34.769  16.622   8.921  0.00  0.00    -0.262 OA
HETATM    6  C   UNK N   1      33.593  15.899   9.125  0.00  0.00     0.228 C 
ENDBRANCH   1   5
TORSDOF 3
ENDMDL
MODEL 5
REMARK VINA RESULT:      -3.3     14.258     15.143
REMARK  3 active torsions:
REMARK  status: ('A' for Active; 'I' for Inactive)
REMARK    1  A    between atoms: S_1  and  O_2 
REMARK    2  A    between atoms: C_14  and  C_15 
REMARK    3  A    between atoms: C_14  and  C_16 
ROOT
HETATM    1  S   UNK N   1      21.136  20.552   2.503  0.00  0.00     0.251 S 
HETATM    2  O   UNK N   1      20.605  21.495   1.168  0.00  0.00    -0.572 OA
HETATM    3  O   UNK N   1      22.570  20.939   2.896  0.00  0.00    -0.572 OA
HETATM    4  O   UNK N   1      20.302  20.945   3.730  0.00  0.00    -0.572 OA
ENDROOT
BRANCH   1   5
HETATM    5  O   UNK N   1      21.018  18.849   2.298  0.00  0.00    -0.262 OA
HETATM    6  C   UNK N   1      19.712  18.527   2.668  0.00  0.00     0.228 C 
ENDBRANCH   1   5
TORSDOF 3
ENDMDL
MODEL 6
REMARK VINA RESULT:      -3.2     12.048     12.751
REMARK  3 active torsions:
REMARK  status: ('A' for Active; 'I' for Inactive)
REMARK    1  A    between atoms: S_1  and  O_2 
REMARK    2  A    between atoms: C_14  and  C_15 
REMARK    3  A    between atoms: C_14  and  C_16 
ROOT
HETATM    1  S   UNK N   1      31.332  22.176  -2.806  0.00  0.00     0.251 S 
HETATM    2  O   UNK N   1      30.488  22.994  -1.553  0.00  0.00    -0.572 OA
HETATM    3  O   UNK N   1      31.924  23.185  -3.801  0.00  0.00    -0.572 OA
HETATM    4  O   UNK N   1      32.567  21.501  -2.192  0.00  0.00    -0.572 OA
ENDROOT
BRANCH   1   5
HETATM    5  O   UNK N   1      30.429  20.978  -3.645  0.00  0.00    -0.262 OA
HETATM    6  C   UNK N   1      31.353  20.337  -4.472  0.00  0.00     0.228 C 
ENDBRANCH   1   5
TORSDOF 3
ENDMDL
MODEL 7
REMARK VINA RESULT:      -3.1      1.331      2.215
REMARK  3 active torsions:
REMARK  status: ('A' for Active; 'I' for Inactive)
REMARK    1  A    between atoms: S_1  and  O_2 
REMARK    2  A    between atoms: C_14  and  C_15 
REMARK    3  A    between atoms: C_14  and  C_16 
ROOT
HETATM    1  S   UNK N   1      34.163  17.864   7.705  0.00  0.00     0.251 S 
HETATM    2  O   UNK N   1      32.590  18.273   8.261  0.00  0.00    -0.572 OA
HETATM    3  O   UNK N   1      34.211  17.881   6.170  0.00  0.00    -0.572 OA
HETATM    4  O   UNK N   1      35.124  18.990   8.114  0.00  0.00    -0.572 OA
ENDROOT
BRANCH   1   5
HETATM    5  O   UNK N   1      34.795  16.380   8.300  0.00  0.00    -0.262 OA
HETATM    6  C   UNK N   1      34.864  15.540   7.188  0.00  0.00     0.228 C 
ENDBRANCH   1   5
TORSDOF 3
ENDMDL
MODEL 8
REMARK VINA RESULT:      -3.0     11.165     11.996
REMARK  3 active torsions:
REMARK  status: ('A' for Active; 'I' for Inactive)
REMARK    1  A    between atoms: S_1  and  O_2 
REMARK    2  A    between atoms: C_14  and  C_15 
REMARK    3  A    between atoms: C_14  and  C_16 
ROOT
HETATM    1  S   UNK N   1      43.958  22.476   4.347  0.00  0.00     0.251 S 
HETATM    2  O   UNK N   1      42.929  21.186   3.869  0.00  0.00    -0.572 OA
HETATM    3  O   UNK N   1      43.772  22.784   5.840  0.00  0.00    -0.572 OA
HETATM    4  O   UNK N   1      45.412  21.991   4.252  0.00  0.00    -0.572 OA
ENDROOT
BRANCH   1   5
HETATM    5  O   UNK N   1      43.813  23.918   3.423  0.00  0.00    -0.262 OA
HETATM    6  C   UNK N   1      44.743  23.786   2.392  0.00  0.00     0.228 C 
ENDBRANCH   1   5
TORSDOF 3
ENDMDL
MODEL 9
REMARK VINA RESULT:      -2.9     18.377     19.033
REMARK  3 active torsions:
REMARK  status: ('A' for Active; 'I' for Inactive)
REMARK    1  A    between atoms: S_1  and  O_2 
REMARK    2  A    between atoms: C_14  and  C_15 
REMARK    3  A    between atoms: C_14  and  C_16 
ROOT
HETATM    1  S   UNK N   1      48.979  18.244  20.418  0.00  0.00     0.251 S 
HETATM    2  O   UNK N   1      49.608  17.842  21.965  0.00  0.00    -0.572 OA
HETATM    3  O   UNK N   1      48.741  16.973  19.589  0.00  0.00    -0.572 OA
HETATM    4  O   UNK N   1      47.571  18.825  20.609  0.00  0.00    -0.572 OA
ENDROOT
BRANCH   1   5
HETATM    5  O   UNK N   1      49.906  19.374  19.513  0.00  0.00    -0.262 OA
HETATM    6  C   UNK N   1      49.319  20.614  19.765  0.00  0.00     0.228 C 
ENDBRANCH   1   5
TORSDOF 3
ENDMDL
