REMARK  3 active torsions:
REMARK  status: ('A' for Active; 'I' for Inactive)
REMARK    1  A    between atoms: S_1  and  O_2 
REMARK    2  A    between atoms: C_14  and  C_15 
REMARK    3  A    between atoms: C_14  and  C_16 
ROOT
HETATM    1  S   UNK N   1       2.187   9.125  -0.146  0.00  0.00     0.251 S 
HETATM    2  O   UNK N   1       1.504   8.274   1.181  0.00  0.00    -0.572 OA
HETATM    3  O   UNK N   1       2.780   8.141  -1.166  0.00  0.00    -0.572 OA
HETATM    4  O   UNK N   1       1.048   9.808  -0.916  0.00  0.00    -0.572 OA
ENDROOT
BRANCH   1   5
HETATM    5  O   UNK N   1       3.350  10.323   0.264  0.00  0.00    -0.262 OA
HETATM    6  C   UNK N   1       4.378   9.630   0.904  0.00  0.00     0.228 C 
ENDBRANCH   1   5
TORSDOF 3
