MODEL 1
REMARK VINA RESULT:      -5.5      0.000      0.000
REMARK  1 active torsions:
REMARK  status: ('A' for Active; 'I' for Inactive)
REMARK    1  A    between atoms: C_9  and  C_10 
ROOT
HETATM    1  N   UNK N   1      34.634  13.638  11.901  0.00  0.00    -0.339 N 
HETATM    2  N   UNK N   1      36.121  15.231  12.524  0.00  0.00    -0.339 N 
ATOM      3  HN  UNK N   1      36.697  16.073  12.518  1.00  0.00     0.167 HD
HETATM    4  C   UNK N   1      35.161  13.324  13.090  0.00  0.00     0.060 A 
HETATM    5  C   UNK N   1      36.053  14.279  13.465  0.00  0.00     0.060 A 
HETATM    6  C   UNK N   1      35.240  14.810  11.578  0.00  0.00     0.134 A 
HETATM    7  C   UNK N   1      34.886  12.211  13.876  0.00  0.00     0.032 A 
HETATM    8  C   UNK N   1      36.752  14.205  14.665  0.00  0.00     0.032 A 
HETATM    9  C   UNK N   1      35.573  12.099  15.099  0.00  0.00     0.002 A 
HETATM   10  C   UNK N   1      36.503  13.092  15.493  0.00  0.00     0.002 A 
HETATM   11  H   UNK N   1      33.965  13.138  11.380  0.00  0.00     0.167 HD
ENDROOT
BRANCH   6  12
HETATM   12  C   UNK N   1      34.968  15.539  10.339  0.00  0.00     0.083 A 
HETATM   13  N   UNK N   1      34.766  16.902  10.322  0.00  0.00    -0.357 N 
HETATM   14  C   UNK N   1      34.529  17.385   9.077  0.00  0.00     0.138 A 
ATOM     15  HN  UNK N   1      34.792  17.485  11.159  1.00  0.00     0.166 HD
HETATM   16  S   UNK N   1      34.574  16.114   8.023  0.00  0.00    -0.094 SA
HETATM   17  C   UNK N   1      34.895  14.896   9.094  0.00  0.00     0.084 A 
ENDBRANCH   6  12
TORSDOF 1
ENDMDL
MODEL 2
REMARK VINA RESULT:      -5.5      2.323      5.884
REMARK  1 active torsions:
REMARK  status: ('A' for Active; 'I' for Inactive)
REMARK    1  A    between atoms: C_9  and  C_10 
ROOT
HETATM    1  N   UNK N   1      33.262  15.005  10.293  0.00  0.00    -0.339 N 
HETATM    2  N   UNK N   1      35.184  16.204  10.284  0.00  0.00    -0.339 N 
ATOM      3  HN  UNK N   1      36.123  16.530  10.514  1.00  0.00     0.167 HD
HETATM    4  C   UNK N   1      33.184  15.976   9.376  0.00  0.00     0.060 A 
HETATM    5  C   UNK N   1      34.337  16.697   9.369  0.00  0.00     0.060 A 
HETATM    6  C   UNK N   1      34.497  15.168  10.833  0.00  0.00     0.134 A 
HETATM    7  C   UNK N   1      32.122  16.263   8.526  0.00  0.00     0.032 A 
HETATM    8  C   UNK N   1      34.531  17.773   8.509  0.00  0.00     0.032 A 
HETATM    9  C   UNK N   1      32.278  17.345   7.640  0.00  0.00     0.002 A 
HETATM   10  C   UNK N   1      33.478  18.097   7.631  0.00  0.00     0.002 A 
HETATM   11  H   UNK N   1      32.583  14.329  10.523  0.00  0.00     0.167 HD
ENDROOT
BRANCH   6  12
HETATM   12  C   UNK N   1      35.026  14.314  11.896  0.00  0.00     0.083 A 
HETATM   13  N   UNK N   1      34.576  13.026  12.091  0.00  0.00    -0.357 N 
HETATM   14  C   UNK N   1      35.192  12.403  13.126  0.00  0.00     0.138 A 
ATOM     15  HN  UNK N   1      33.855  12.589  11.516  1.00  0.00     0.166 HD
HETATM   16  S   UNK N   1      36.282  13.460  13.779  0.00  0.00    -0.094 SA
HETATM   17  C   UNK N   1      36.022  14.752  12.782  0.00  0.00     0.084 A 
ENDBRANCH   6  12
TORSDOF 1
ENDMDL
MODEL 3
REMARK VINA RESULT:      -5.5     21.489     22.888
REMARK  1 active torsions:
REMARK  status: ('A' for Active; 'I' for Inactive)
REMARK    1  A    between atoms: C_9  and  C_10 
ROOT
HETATM    1  N   UNK N   1      26.519  24.149  -4.932  0.00  0.00    -0.339 N 
HETATM    2  N   UNK N   1      25.364  25.178  -6.589  0.00  0.00    -0.339 N 
ATOM      3  HN  UNK N   1      24.888  25.351  -7.474  1.00  0.00     0.167 HD
HETATM    4  C   UNK N   1      26.223  25.402  -4.566  0.00  0.00     0.060 A 
HETATM    5  C   UNK N   1      25.531  26.021  -5.559  0.00  0.00     0.060 A 
HETATM    6  C   UNK N   1      25.981  24.040  -6.174  0.00  0.00     0.134 A 
HETATM    7  C   UNK N   1      26.543  26.038  -3.372  0.00  0.00     0.032 A 
HETATM    8  C   UNK N   1      25.094  27.337  -5.446  0.00  0.00     0.032 A 
HETATM    9  C   UNK N   1      26.118  27.372  -3.218  0.00  0.00     0.002 A 
HETATM   10  C   UNK N   1      25.397  28.018  -4.251  0.00  0.00     0.002 A 
HETATM   11  H   UNK N   1      27.011  23.466  -4.421  0.00  0.00     0.167 HD
ENDROOT
BRANCH   6  12
HETATM   12  C   UNK N   1      26.060  22.820  -6.978  0.00  0.00     0.083 A 
HETATM   13  N   UNK N   1      24.956  22.034  -7.225  0.00  0.00    -0.357 N 
HETATM   14  C   UNK N   1      25.239  20.950  -7.988  0.00  0.00     0.138 A 
ATOM     15  HN  UNK N   1      24.023  22.247  -6.870  1.00  0.00     0.166 HD
HETATM   16  S   UNK N   1      26.853  20.986  -8.342  0.00  0.00    -0.094 SA
HETATM   17  C   UNK N   1      27.264  22.375  -7.545  0.00  0.00     0.084 A 
ENDBRANCH   6  12
TORSDOF 1
ENDMDL
MODEL 4
REMARK VINA RESULT:      -5.5      3.015      3.908
REMARK  1 active torsions:
REMARK  status: ('A' for Active; 'I' for Inactive)
REMARK    1  A    between atoms: C_9  and  C_10 
ROOT
HETATM    1  N   UNK N   1      37.165  14.551  14.351  0.00  0.00    -0.339 N 
HETATM    2  N   UNK N   1      35.655  12.885  14.631  0.00  0.00    -0.339 N 
ATOM      3  HN  UNK N   1      35.050  12.085  14.444  1.00  0.00     0.167 HD
HETATM    4  C   UNK N   1      36.708  14.562  15.609  0.00  0.00     0.060 A 
HETATM    5  C   UNK N   1      35.801  13.563  15.778  0.00  0.00     0.060 A 
HETATM    6  C   UNK N   1      36.504  13.513  13.776  0.00  0.00     0.134 A 
HETATM    7  C   UNK N   1      37.059  15.431  16.635  0.00  0.00     0.032 A 
HETATM    8  C   UNK N   1      35.163  13.343  16.994  0.00  0.00     0.032 A 
HETATM    9  C   UNK N   1      36.436  15.241  17.883  0.00  0.00     0.002 A 
HETATM   10  C   UNK N   1      35.491  14.201  18.062  0.00  0.00     0.002 A 
HETATM   11  H   UNK N   1      37.827  15.152  13.939  0.00  0.00     0.167 HD
ENDROOT
BRANCH   6  12
HETATM   12  C   UNK N   1      36.691  13.120  12.379  0.00  0.00     0.083 A 
HETATM   13  N   UNK N   1      37.938  13.064  11.796  0.00  0.00    -0.357 N 
HETATM   14  C   UNK N   1      37.896  12.677  10.497  0.00  0.00     0.138 A 
ATOM     15  HN  UNK N   1      38.801  13.289  12.291  1.00  0.00     0.166 HD
HETATM   16  S   UNK N   1      36.315  12.413  10.096  0.00  0.00    -0.094 SA
HETATM   17  C   UNK N   1      35.613  12.776  11.549  0.00  0.00     0.084 A 
ENDBRANCH   6  12
TORSDOF 1
ENDMDL
MODEL 5
REMARK VINA RESULT:      -5.3      1.438      2.045
REMARK  1 active torsions:
REMARK  status: ('A' for Active; 'I' for Inactive)
REMARK    1  A    between atoms: C_9  and  C_10 
ROOT
HETATM    1  N   UNK N   1      34.481  12.291  12.769  0.00  0.00    -0.339 N 
HETATM    2  N   UNK N   1      35.648  13.754  14.047  0.00  0.00    -0.339 N 
ATOM      3  HN  UNK N   1      36.168  14.580  14.343  1.00  0.00     0.167 HD
HETATM    4  C   UNK N   1      34.627  11.795  14.003  0.00  0.00     0.060 A 
HETATM    5  C   UNK N   1      35.328  12.672  14.771  0.00  0.00     0.060 A 
HETATM    6  C   UNK N   1      35.115  13.490  12.825  0.00  0.00     0.134 A 
HETATM    7  C   UNK N   1      34.164  10.581  14.495  0.00  0.00     0.032 A 
HETATM    8  C   UNK N   1      35.627  12.411  16.104  0.00  0.00     0.032 A 
HETATM    9  C   UNK N   1      34.446  10.279  15.840  0.00  0.00     0.002 A 
HETATM   10  C   UNK N   1      35.175  11.190  16.642  0.00  0.00     0.002 A 
HETATM   11  H   UNK N   1      34.021  11.882  12.000  0.00  0.00     0.167 HD
ENDROOT
BRANCH   6  12
HETATM   12  C   UNK N   1      35.211  14.400  11.682  0.00  0.00     0.083 A 
HETATM   13  N   UNK N   1      35.619  15.708  11.823  0.00  0.00    -0.357 N 
HETATM   14  C   UNK N   1      35.641  16.384  10.646  0.00  0.00     0.138 A 
ATOM     15  HN  UNK N   1      35.879  16.124  12.718  1.00  0.00     0.166 HD
HETATM   16  S   UNK N   1      35.152  15.346   9.457  0.00  0.00    -0.094 SA
HETATM   17  C   UNK N   1      34.893  13.997  10.377  0.00  0.00     0.084 A 
ENDBRANCH   6  12
TORSDOF 1
ENDMDL
MODEL 6
REMARK VINA RESULT:      -5.2      4.091      7.584
REMARK  1 active torsions:
REMARK  status: ('A' for Active; 'I' for Inactive)
REMARK    1  A    between atoms: C_9  and  C_10 
ROOT
HETATM    1  N   UNK N   1      31.742  16.565   7.237  0.00  0.00    -0.339 N 
HETATM    2  N   UNK N   1      31.380  17.638   9.200  0.00  0.00    -0.339 N 
ATOM      3  HN  UNK N   1      31.508  17.989  10.149  1.00  0.00     0.167 HD
HETATM    4  C   UNK N   1      30.565  17.200   7.194  0.00  0.00     0.060 A 
HETATM    5  C   UNK N   1      30.346  17.844   8.371  0.00  0.00     0.060 A 
HETATM    6  C   UNK N   1      32.219  16.851   8.476  0.00  0.00     0.134 A 
HETATM    7  C   UNK N   1      29.655  17.238   6.144  0.00  0.00     0.032 A 
HETATM    8  C   UNK N   1      29.194  18.587   8.604  0.00  0.00     0.032 A 
HETATM    9  C   UNK N   1      28.475  17.980   6.339  0.00  0.00     0.002 A 
HETATM   10  C   UNK N   1      28.245  18.652   7.564  0.00  0.00     0.002 A 
HETATM   11  H   UNK N   1      32.165  16.019   6.535  0.00  0.00     0.167 HD
ENDROOT
BRANCH   6  12
HETATM   12  C   UNK N   1      33.504  16.359   8.974  0.00  0.00     0.083 A 
HETATM   13  N   UNK N   1      34.239  17.053   9.910  0.00  0.00    -0.357 N 
HETATM   14  C   UNK N   1      35.398  16.429  10.239  0.00  0.00     0.138 A 
ATOM     15  HN  UNK N   1      33.942  17.942  10.313  1.00  0.00     0.166 HD
HETATM   16  S   UNK N   1      35.488  15.031   9.363  0.00  0.00    -0.094 SA
HETATM   17  C   UNK N   1      34.066  15.153   8.529  0.00  0.00     0.084 A 
ENDBRANCH   6  12
TORSDOF 1
ENDMDL
MODEL 7
REMARK VINA RESULT:      -5.2      3.095      4.470
REMARK  1 active torsions:
REMARK  status: ('A' for Active; 'I' for Inactive)
REMARK    1  A    between atoms: C_9  and  C_10 
ROOT
HETATM    1  N   UNK N   1      35.406  11.532  15.676  0.00  0.00    -0.339 N 
HETATM    2  N   UNK N   1      35.329  13.683  16.382  0.00  0.00    -0.339 N 
ATOM      3  HN  UNK N   1      35.309  14.703  16.379  1.00  0.00     0.167 HD
HETATM    4  C   UNK N   1      35.341  11.566  17.012  0.00  0.00     0.060 A 
HETATM    5  C   UNK N   1      35.295  12.857  17.437  0.00  0.00     0.060 A 
HETATM    6  C   UNK N   1      35.397  12.842  15.317  0.00  0.00     0.134 A 
HETATM    7  C   UNK N   1      35.321  10.491  17.892  0.00  0.00     0.032 A 
HETATM    8  C   UNK N   1      35.225  13.188  18.786  0.00  0.00     0.032 A 
HETATM    9  C   UNK N   1      35.250  10.784  19.267  0.00  0.00     0.002 A 
HETATM   10  C   UNK N   1      35.202  12.127  19.713  0.00  0.00     0.002 A 
HETATM   11  H   UNK N   1      35.449  10.742  15.089  0.00  0.00     0.167 HD
ENDROOT
BRANCH   6  12
HETATM   12  C   UNK N   1      35.454  13.292  13.927  0.00  0.00     0.083 A 
HETATM   13  N   UNK N   1      34.754  12.658  12.924  0.00  0.00    -0.357 N 
HETATM   14  C   UNK N   1      34.941  13.229  11.707  0.00  0.00     0.138 A 
ATOM     15  HN  UNK N   1      34.159  11.844  13.080  1.00  0.00     0.166 HD
HETATM   16  S   UNK N   1      35.969  14.508  11.900  0.00  0.00    -0.094 SA
HETATM   17  C   UNK N   1      36.223  14.396  13.529  0.00  0.00     0.084 A 
ENDBRANCH   6  12
TORSDOF 1
ENDMDL
MODEL 8
REMARK VINA RESULT:      -5.0      8.332     10.557
REMARK  1 active torsions:
REMARK  status: ('A' for Active; 'I' for Inactive)
REMARK    1  A    between atoms: C_9  and  C_10 
ROOT
HETATM    1  N   UNK N   1      28.457  18.031   5.627  0.00  0.00    -0.339 N 
HETATM    2  N   UNK N   1      27.328  19.155   7.238  0.00  0.00    -0.339 N 
ATOM      3  HN  UNK N   1      26.627  19.728   7.710  1.00  0.00     0.167 HD
HETATM    4  C   UNK N   1      29.088  17.895   6.799  0.00  0.00     0.060 A 
HETATM    5  C   UNK N   1      28.412  18.570   7.767  0.00  0.00     0.060 A 
HETATM    6  C   UNK N   1      27.383  18.807   5.926  0.00  0.00     0.134 A 
HETATM    7  C   UNK N   1      30.257  17.190   7.061  0.00  0.00     0.032 A 
HETATM    8  C   UNK N   1      28.846  18.599   9.088  0.00  0.00     0.032 A 
HETATM    9  C   UNK N   1      30.730  17.195   8.387  0.00  0.00     0.002 A 
HETATM   10  C   UNK N   1      30.028  17.896   9.397  0.00  0.00     0.002 A 
HETATM   11  H   UNK N   1      28.711  17.656   4.753  0.00  0.00     0.167 HD
ENDROOT
BRANCH   6  12
HETATM   12  C   UNK N   1      26.392  19.221   4.932  0.00  0.00     0.083 A 
HETATM   13  N   UNK N   1      25.062  18.882   5.043  0.00  0.00    -0.357 N 
HETATM   14  C   UNK N   1      24.308  19.362   4.022  0.00  0.00     0.138 A 
ATOM     15  HN  UNK N   1      24.683  18.329   5.812  1.00  0.00     0.166 HD
HETATM   16  S   UNK N   1      25.307  20.196   3.003  0.00  0.00    -0.094 SA
HETATM   17  C   UNK N   1      26.736  19.987   3.808  0.00  0.00     0.084 A 
ENDBRANCH   6  12
TORSDOF 1
ENDMDL
MODEL 9
REMARK VINA RESULT:      -4.9     17.946     19.194
REMARK  1 active torsions:
REMARK  status: ('A' for Active; 'I' for Inactive)
REMARK    1  A    between atoms: C_9  and  C_10 
ROOT
HETATM    1  N   UNK N   1      20.621  16.097   2.123  0.00  0.00    -0.339 N 
HETATM    2  N   UNK N   1      19.133  16.805   0.567  0.00  0.00    -0.339 N 
ATOM      3  HN  UNK N   1      18.576  17.413  -0.034  1.00  0.00     0.167 HD
HETATM    4  C   UNK N   1      20.016  15.042   1.564  0.00  0.00     0.060 A 
HETATM    5  C   UNK N   1      19.123  15.466   0.630  0.00  0.00     0.060 A 
HETATM    6  C   UNK N   1      20.061  17.162   1.494  0.00  0.00     0.134 A 
HETATM    7  C   UNK N   1      20.219  13.696   1.844  0.00  0.00     0.032 A 
HETATM    8  C   UNK N   1      18.350  14.576  -0.110  0.00  0.00     0.032 A 
HETATM    9  C   UNK N   1      19.456  12.763   1.117  0.00  0.00     0.002 A 
HETATM   10  C   UNK N   1      18.525  13.202   0.144  0.00  0.00     0.002 A 
HETATM   11  H   UNK N   1      21.310  16.101   2.826  0.00  0.00     0.167 HD
ENDROOT
BRANCH   6  12
HETATM   12  C   UNK N   1      20.424  18.549   1.789  0.00  0.00     0.083 A 
HETATM   13  N   UNK N   1      20.437  19.523   0.815  0.00  0.00    -0.357 N 
HETATM   14  C   UNK N   1      20.800  20.740   1.291  0.00  0.00     0.138 A 
ATOM     15  HN  UNK N   1      20.198  19.347  -0.162  1.00  0.00     0.166 HD
HETATM   16  S   UNK N   1      21.098  20.584   2.909  0.00  0.00    -0.094 SA
HETATM   17  C   UNK N   1      20.780  18.971   3.078  0.00  0.00     0.084 A 
ENDBRANCH   6  12
TORSDOF 1
ENDMDL
