MODEL 1
REMARK VINA RESULT:      -8.4      0.000      0.000
REMARK  4 active torsions:
REMARK  status: ('A' for Active; 'I' for Inactive)
REMARK    1  A    between atoms: N_4  and  C_15 
REMARK    2  A    between atoms: C_10  and  C_16 
REMARK    3  A    between atoms: C_15  and  C_17 
REMARK    4  A    between atoms: C_17  and  C_18 
ROOT
HETATM    1  N   UNK N   1      35.192  15.289   8.941  0.00  0.00     0.088 N 
HETATM    2  C   UNK N   1      35.729  14.078  11.494  0.00  0.00     0.042 C 
HETATM    3  C   UNK N   1      34.491  14.923  11.245  0.00  0.00     0.041 C 
HETATM    4  C   UNK N   1      36.871  14.591  10.622  0.00  0.00     0.041 C 
HETATM    5  C   UNK N   1      34.121  14.762   9.787  0.00  0.00     0.273 C 
HETATM    6  C   UNK N   1      36.425  14.521   9.155  0.00  0.00     0.273 C 
ENDROOT
BRANCH   1   7
HETATM    7  C   UNK N   1      34.783  15.085   7.559  0.00  0.00     0.277 C 
BRANCH   7   8
HETATM    8  C   UNK N   1      34.427  16.423   6.920  0.00  0.00     0.076 C 
BRANCH   8   9
HETATM    9  C   UNK N   1      32.946  16.659   6.913  0.00  0.00     0.034 A 
HETATM   10  C   UNK N   1      32.331  17.369   7.953  0.00  0.00     0.257 A 
HETATM   11  O   UNK N   1      33.009  17.819   8.864  0.00  0.00    -0.267 OA
HETATM   12  N   UNK N   1      30.965  17.557   7.952  0.00  0.00    -0.303 N 
HETATM   13  C   UNK N   1      30.362  18.313   9.064  0.00  0.00     0.133 C 
HETATM   14  C   UNK N   1      30.206  17.030   6.932  0.00  0.00     0.086 A 
HETATM   15  C   UNK N   1      28.924  18.739   8.805  0.00  0.00     0.021 C 
HETATM   16  C   UNK N   1      28.145  17.562   8.264  0.00  0.00     0.009 C 
HETATM   17  C   UNK N   1      28.710  17.170   6.909  0.00  0.00     0.077 C 
HETATM   18  N   UNK N   1      30.802  16.350   5.919  0.00  0.00    -0.349 N 
HETATM   19  C   UNK N   1      32.143  16.155   5.883  0.00  0.00     0.018 A 
ATOM     20  HN  UNK N   1      30.225  15.977   5.165  1.00  0.00     0.167 HD
HETATM   21  C   UNK N   1      32.732  15.386   4.747  0.00  0.00     0.069 C 
ENDBRANCH   8   9
ENDBRANCH   7   8
ENDBRANCH   1   7
BRANCH   2  22
HETATM   22  C   UNK N   1      36.024  14.027  12.959  0.00  0.00     0.050 A 
HETATM   23  N   UNK N   1      36.812  14.882  13.656  0.00  0.00    -0.264 N 
HETATM   24  O   UNK N   1      36.805  14.485  14.905  0.00  0.00    -0.237 OA
ATOM     25  HN  UNK N   1      37.317  15.683  13.278  1.00  0.00     0.194 HD
HETATM   26  C   UNK N   1      36.049  13.420  15.041  0.00  0.00     0.114 A 
HETATM   27  C   UNK N   1      35.533  13.089  13.829  0.00  0.00     0.025 A 
HETATM   28  C   UNK N   1      35.754  12.689  16.190  0.00  0.00     0.082 A 
HETATM   29  C   UNK N   1      34.681  12.004  13.650  0.00  0.00     0.019 A 
HETATM   30  C   UNK N   1      34.357  11.242  14.785  0.00  0.00     0.043 A 
HETATM   31  C   UNK N   1      34.889  11.581  16.051  0.00  0.00     0.119 A 
HETATM   32  F   UNK N   1      34.563  10.838  17.134  0.00  0.00    -0.206 F 
ENDBRANCH   2  22
TORSDOF 4
ENDMDL
MODEL 2
REMARK VINA RESULT:      -8.3      3.482      5.617
REMARK  4 active torsions:
REMARK  status: ('A' for Active; 'I' for Inactive)
REMARK    1  A    between atoms: N_4  and  C_15 
REMARK    2  A    between atoms: C_10  and  C_16 
REMARK    3  A    between atoms: C_15  and  C_17 
REMARK    4  A    between atoms: C_17  and  C_18 
ROOT
HETATM    1  N   UNK N   1      30.921  16.657   6.389  0.00  0.00     0.088 N 
HETATM    2  C   UNK N   1      32.731  16.350   8.604  0.00  0.00     0.042 C 
HETATM    3  C   UNK N   1      32.101  17.688   8.254  0.00  0.00     0.041 C 
HETATM    4  C   UNK N   1      32.920  15.535   7.328  0.00  0.00     0.041 C 
HETATM    5  C   UNK N   1      30.750  17.403   7.636  0.00  0.00     0.273 C 
HETATM    6  C   UNK N   1      31.547  15.357   6.663  0.00  0.00     0.273 C 
ENDROOT
BRANCH   1   7
HETATM    7  C   UNK N   1      29.590  16.398   5.861  0.00  0.00     0.277 C 
BRANCH   7   8
HETATM    8  C   UNK N   1      28.545  17.109   6.715  0.00  0.00     0.076 C 
BRANCH   8   9
HETATM    9  C   UNK N   1      27.346  17.508   5.909  0.00  0.00     0.034 A 
HETATM   10  C   UNK N   1      27.359  18.681   5.142  0.00  0.00     0.257 A 
HETATM   11  O   UNK N   1      28.364  19.375   5.113  0.00  0.00    -0.267 OA
HETATM   12  N   UNK N   1      26.241  19.055   4.426  0.00  0.00    -0.303 N 
HETATM   13  C   UNK N   1      26.303  20.294   3.631  0.00  0.00     0.133 C 
HETATM   14  C   UNK N   1      25.107  18.277   4.479  0.00  0.00     0.086 A 
HETATM   15  C   UNK N   1      25.158  20.440   2.638  0.00  0.00     0.021 C 
HETATM   16  C   UNK N   1      23.853  20.125   3.332  0.00  0.00     0.009 C 
HETATM   17  C   UNK N   1      23.850  18.665   3.751  0.00  0.00     0.077 C 
HETATM   18  N   UNK N   1      25.096  17.135   5.214  0.00  0.00    -0.349 N 
HETATM   19  C   UNK N   1      26.180  16.733   5.923  0.00  0.00     0.018 A 
ATOM     20  HN  UNK N   1      24.251  16.565   5.233  1.00  0.00     0.167 HD
HETATM   21  C   UNK N   1      26.096  15.475   6.722  0.00  0.00     0.069 C 
ENDBRANCH   8   9
ENDBRANCH   7   8
ENDBRANCH   1   7
BRANCH   2  22
HETATM   22  C   UNK N   1      33.974  16.567   9.406  0.00  0.00     0.050 A 
HETATM   23  N   UNK N   1      34.781  17.655   9.369  0.00  0.00    -0.264 N 
HETATM   24  O   UNK N   1      35.755  17.444  10.221  0.00  0.00    -0.237 OA
ATOM     25  HN  UNK N   1      34.656  18.482   8.786  1.00  0.00     0.194 HD
HETATM   26  C   UNK N   1      35.608  16.275  10.803  0.00  0.00     0.114 A 
HETATM   27  C   UNK N   1      34.489  15.679  10.314  0.00  0.00     0.025 A 
HETATM   28  C   UNK N   1      36.400  15.667  11.774  0.00  0.00     0.082 A 
HETATM   29  C   UNK N   1      34.060  14.428  10.745  0.00  0.00     0.019 A 
HETATM   30  C   UNK N   1      34.831  13.782  11.726  0.00  0.00     0.043 A 
HETATM   31  C   UNK N   1      35.997  14.397  12.240  0.00  0.00     0.119 A 
HETATM   32  F   UNK N   1      36.725  13.762  13.188  0.00  0.00    -0.206 F 
ENDBRANCH   2  22
TORSDOF 4
ENDMDL
MODEL 3
REMARK VINA RESULT:      -8.3      3.414      9.267
REMARK  4 active torsions:
REMARK  status: ('A' for Active; 'I' for Inactive)
REMARK    1  A    between atoms: N_4  and  C_15 
REMARK    2  A    between atoms: C_10  and  C_16 
REMARK    3  A    between atoms: C_15  and  C_17 
REMARK    4  A    between atoms: C_17  and  C_18 
ROOT
HETATM    1  N   UNK N   1      34.622  16.018   9.379  0.00  0.00     0.088 N 
HETATM    2  C   UNK N   1      32.536  17.027   7.674  0.00  0.00     0.042 C 
HETATM    3  C   UNK N   1      32.635  15.558   8.047  0.00  0.00     0.041 C 
HETATM    4  C   UNK N   1      33.937  17.629   7.626  0.00  0.00     0.041 C 
HETATM    5  C   UNK N   1      33.261  15.482   9.422  0.00  0.00     0.273 C 
HETATM    6  C   UNK N   1      34.591  17.438   9.002  0.00  0.00     0.273 C 
ENDROOT
BRANCH   1   7
HETATM    7  C   UNK N   1      35.156  15.936  10.730  0.00  0.00     0.277 C 
BRANCH   7   8
HETATM    8  C   UNK N   1      36.061  14.715  10.858  0.00  0.00     0.076 C 
BRANCH   8   9
HETATM    9  C   UNK N   1      35.558  13.756  11.894  0.00  0.00     0.034 A 
HETATM   10  C   UNK N   1      35.803  13.983  13.256  0.00  0.00     0.257 A 
HETATM   11  O   UNK N   1      36.414  14.982  13.604  0.00  0.00    -0.267 OA
HETATM   12  N   UNK N   1      35.360  13.081  14.200  0.00  0.00    -0.303 N 
HETATM   13  C   UNK N   1      35.638  13.363  15.620  0.00  0.00     0.133 C 
HETATM   14  C   UNK N   1      34.689  11.948  13.798  0.00  0.00     0.086 A 
HETATM   15  C   UNK N   1      34.839  12.495  16.582  0.00  0.00     0.021 C 
HETATM   16  C   UNK N   1      34.913  11.054  16.134  0.00  0.00     0.009 C 
HETATM   17  C   UNK N   1      34.226  10.914  14.786  0.00  0.00     0.077 C 
HETATM   18  N   UNK N   1      34.443  11.733  12.480  0.00  0.00    -0.349 N 
HETATM   19  C   UNK N   1      34.855  12.603  11.526  0.00  0.00     0.018 A 
ATOM     20  HN  UNK N   1      33.934  10.894  12.201  1.00  0.00     0.167 HD
HETATM   21  C   UNK N   1      34.564  12.298  10.094  0.00  0.00     0.069 C 
ENDBRANCH   8   9
ENDBRANCH   7   8
ENDBRANCH   1   7
BRANCH   2  22
HETATM   22  C   UNK N   1      31.737  17.181   6.420  0.00  0.00     0.050 A 
HETATM   23  N   UNK N   1      32.219  17.218   5.153  0.00  0.00    -0.264 N 
HETATM   24  O   UNK N   1      31.192  17.365   4.352  0.00  0.00    -0.237 OA
ATOM     25  HN  UNK N   1      33.197  17.147   4.876  1.00  0.00     0.194 HD
HETATM   26  C   UNK N   1      30.077  17.422   5.044  0.00  0.00     0.114 A 
HETATM   27  C   UNK N   1      30.374  17.311   6.365  0.00  0.00     0.025 A 
HETATM   28  C   UNK N   1      28.765  17.557   4.595  0.00  0.00     0.082 A 
HETATM   29  C   UNK N   1      29.397  17.328   7.356  0.00  0.00     0.019 A 
HETATM   30  C   UNK N   1      28.060  17.461   6.943  0.00  0.00     0.043 A 
HETATM   31  C   UNK N   1      27.743  17.575   5.570  0.00  0.00     0.119 A 
HETATM   32  F   UNK N   1      26.450  17.698   5.190  0.00  0.00    -0.206 F 
ENDBRANCH   2  22
TORSDOF 4
ENDMDL
MODEL 4
REMARK VINA RESULT:      -8.3      2.746      4.675
REMARK  4 active torsions:
REMARK  status: ('A' for Active; 'I' for Inactive)
REMARK    1  A    between atoms: N_4  and  C_15 
REMARK    2  A    between atoms: C_10  and  C_16 
REMARK    3  A    between atoms: C_15  and  C_17 
REMARK    4  A    between atoms: C_17  and  C_18 
ROOT
HETATM    1  N   UNK N   1      35.365  13.091  12.810  0.00  0.00     0.088 N 
HETATM    2  C   UNK N   1      35.734  12.663  15.631  0.00  0.00     0.042 C 
HETATM    3  C   UNK N   1      34.419  12.360  14.932  0.00  0.00     0.041 C 
HETATM    4  C   UNK N   1      36.419  13.830  14.926  0.00  0.00     0.041 C 
HETATM    5  C   UNK N   1      34.745  11.965  13.508  0.00  0.00     0.273 C 
HETATM    6  C   UNK N   1      36.636  13.444  13.456  0.00  0.00     0.273 C 
ENDROOT
BRANCH   1   7
HETATM    7  C   UNK N   1      35.671  12.639  11.460  0.00  0.00     0.277 C 
BRANCH   7   8
HETATM    8  C   UNK N   1      36.675  13.586  10.811  0.00  0.00     0.076 C 
BRANCH   8   9
HETATM    9  C   UNK N   1      36.082  14.304   9.636  0.00  0.00     0.034 A 
HETATM   10  C   UNK N   1      35.393  15.511   9.810  0.00  0.00     0.257 A 
HETATM   11  O   UNK N   1      35.291  15.996  10.928  0.00  0.00    -0.267 OA
HETATM   12  N   UNK N   1      34.826  16.150   8.727  0.00  0.00    -0.303 N 
HETATM   13  C   UNK N   1      34.114  17.419   8.958  0.00  0.00     0.133 C 
HETATM   14  C   UNK N   1      34.929  15.588   7.475  0.00  0.00     0.086 A 
HETATM   15  C   UNK N   1      33.818  18.194   7.682  0.00  0.00     0.021 C 
HETATM   16  C   UNK N   1      33.242  17.253   6.650  0.00  0.00     0.009 C 
HETATM   17  C   UNK N   1      34.292  16.223   6.271  0.00  0.00     0.077 C 
HETATM   18  N   UNK N   1      35.605  14.422   7.304  0.00  0.00    -0.349 N 
HETATM   19  C   UNK N   1      36.182  13.772   8.344  0.00  0.00     0.018 A 
ATOM     20  HN  UNK N   1      35.682  14.026   6.367  1.00  0.00     0.167 HD
HETATM   21  C   UNK N   1      36.898  12.488   8.088  0.00  0.00     0.069 C 
ENDBRANCH   8   9
ENDBRANCH   7   8
ENDBRANCH   1   7
BRANCH   2  22
HETATM   22  C   UNK N   1      35.499  12.858  17.094  0.00  0.00     0.050 A 
HETATM   23  N   UNK N   1      35.412  14.041  17.750  0.00  0.00    -0.264 N 
HETATM   24  O   UNK N   1      35.203  13.768  19.015  0.00  0.00    -0.237 OA
ATOM     25  HN  UNK N   1      35.494  14.969  17.337  1.00  0.00     0.194 HD
HETATM   26  C   UNK N   1      35.151  12.469  19.200  0.00  0.00     0.114 A 
HETATM   27  C   UNK N   1      35.337  11.848  18.006  0.00  0.00     0.025 A 
HETATM   28  C   UNK N   1      34.935  11.753  20.375  0.00  0.00     0.082 A 
HETATM   29  C   UNK N   1      35.327  10.462  17.875  0.00  0.00     0.019 A 
HETATM   30  C   UNK N   1      35.110   9.704  19.037  0.00  0.00     0.043 A 
HETATM   31  C   UNK N   1      34.914  10.344  20.283  0.00  0.00     0.119 A 
HETATM   32  F   UNK N   1      34.701   9.597  21.392  0.00  0.00    -0.206 F 
ENDBRANCH   2  22
TORSDOF 4
ENDMDL
MODEL 5
REMARK VINA RESULT:      -8.3      1.835      2.404
REMARK  4 active torsions:
REMARK  status: ('A' for Active; 'I' for Inactive)
REMARK    1  A    between atoms: N_4  and  C_15 
REMARK    2  A    between atoms: C_10  and  C_16 
REMARK    3  A    between atoms: C_15  and  C_17 
REMARK    4  A    between atoms: C_17  and  C_18 
ROOT
HETATM    1  N   UNK N   1      36.097  14.899   9.683  0.00  0.00     0.088 N 
HETATM    2  C   UNK N   1      35.574  13.968  12.354  0.00  0.00     0.042 C 
HETATM    3  C   UNK N   1      36.061  15.379  12.071  0.00  0.00     0.041 C 
HETATM    4  C   UNK N   1      36.136  13.021  11.298  0.00  0.00     0.041 C 
HETATM    5  C   UNK N   1      35.532  15.775  10.709  0.00  0.00     0.273 C 
HETATM    6  C   UNK N   1      35.676  13.512   9.918  0.00  0.00     0.273 C 
ENDROOT
BRANCH   1   7
HETATM    7  C   UNK N   1      35.534  15.318   8.408  0.00  0.00     0.277 C 
BRANCH   7   8
HETATM    8  C   UNK N   1      34.555  16.467   8.625  0.00  0.00     0.076 C 
BRANCH   8   9
HETATM    9  C   UNK N   1      33.364  16.360   7.721  0.00  0.00     0.034 A 
HETATM   10  C   UNK N   1      33.370  16.966   6.457  0.00  0.00     0.257 A 
HETATM   11  O   UNK N   1      34.364  17.568   6.078  0.00  0.00    -0.267 OA
HETATM   12  N   UNK N   1      32.260  16.886   5.643  0.00  0.00    -0.303 N 
HETATM   13  C   UNK N   1      32.315  17.534   4.321  0.00  0.00     0.133 C 
HETATM   14  C   UNK N   1      31.139  16.222   6.085  0.00  0.00     0.086 A 
HETATM   15  C   UNK N   1      31.186  17.116   3.389  0.00  0.00     0.021 C 
HETATM   16  C   UNK N   1      29.874  17.176   4.137  0.00  0.00     0.009 C 
HETATM   17  C   UNK N   1      29.889  16.145   5.254  0.00  0.00     0.077 C 
HETATM   18  N   UNK N   1      31.134  15.627   7.306  0.00  0.00    -0.349 N 
HETATM   19  C   UNK N   1      32.211  15.678   8.128  0.00  0.00     0.018 A 
ATOM     20  HN  UNK N   1      30.299  15.130   7.613  1.00  0.00     0.167 HD
HETATM   21  C   UNK N   1      32.135  15.015   9.463  0.00  0.00     0.069 C 
ENDBRANCH   8   9
ENDBRANCH   7   8
ENDBRANCH   1   7
BRANCH   2  22
HETATM   22  C   UNK N   1      35.886  13.596  13.768  0.00  0.00     0.050 A 
HETATM   23  N   UNK N   1      36.747  14.232  14.601  0.00  0.00    -0.264 N 
HETATM   24  O   UNK N   1      36.728  13.588  15.742  0.00  0.00    -0.237 OA
ATOM     25  HN  UNK N   1      37.305  15.056  14.380  1.00  0.00     0.194 HD
HETATM   26  C   UNK N   1      35.896  12.573  15.681  0.00  0.00     0.114 A 
HETATM   27  C   UNK N   1      35.339  12.537  14.443  0.00  0.00     0.025 A 
HETATM   28  C   UNK N   1      35.564  11.644  16.664  0.00  0.00     0.082 A 
HETATM   29  C   UNK N   1      34.405  11.574  14.071  0.00  0.00     0.019 A 
HETATM   30  C   UNK N   1      34.041  10.620  15.036  0.00  0.00     0.043 A 
HETATM   31  C   UNK N   1      34.616  10.653  16.328  0.00  0.00     0.119 A 
HETATM   32  F   UNK N   1      34.251   9.728  17.246  0.00  0.00    -0.206 F 
ENDBRANCH   2  22
TORSDOF 4
ENDMDL
MODEL 6
REMARK VINA RESULT:      -8.2      2.622      3.831
REMARK  4 active torsions:
REMARK  status: ('A' for Active; 'I' for Inactive)
REMARK    1  A    between atoms: N_4  and  C_15 
REMARK    2  A    between atoms: C_10  and  C_16 
REMARK    3  A    between atoms: C_15  and  C_17 
REMARK    4  A    between atoms: C_17  and  C_18 
ROOT
HETATM    1  N   UNK N   1      32.283  16.147   6.523  0.00  0.00     0.088 N 
HETATM    2  C   UNK N   1      33.970  15.482   8.757  0.00  0.00     0.042 C 
HETATM    3  C   UNK N   1      32.477  15.716   8.913  0.00  0.00     0.041 C 
HETATM    4  C   UNK N   1      34.497  16.347   7.616  0.00  0.00     0.041 C 
HETATM    5  C   UNK N   1      31.816  15.297   7.618  0.00  0.00     0.273 C 
HETATM    6  C   UNK N   1      33.731  15.978   6.338  0.00  0.00     0.273 C 
ENDROOT
BRANCH   1   7
HETATM    7  C   UNK N   1      31.629  15.679   5.310  0.00  0.00     0.277 C 
BRANCH   7   8
HETATM    8  C   UNK N   1      30.134  15.507   5.560  0.00  0.00     0.076 C 
BRANCH   8   9
HETATM    9  C   UNK N   1      29.365  16.743   5.202  0.00  0.00     0.034 A 
HETATM   10  C   UNK N   1      28.930  17.628   6.198  0.00  0.00     0.257 A 
HETATM   11  O   UNK N   1      29.199  17.402   7.369  0.00  0.00    -0.267 OA
HETATM   12  N   UNK N   1      28.200  18.748   5.862  0.00  0.00    -0.303 N 
HETATM   13  C   UNK N   1      27.768  19.651   6.942  0.00  0.00     0.133 C 
HETATM   14  C   UNK N   1      27.886  18.984   4.543  0.00  0.00     0.086 A 
HETATM   15  C   UNK N   1      27.263  20.999   6.446  0.00  0.00     0.021 C 
HETATM   16  C   UNK N   1      26.304  20.781   5.299  0.00  0.00     0.009 C 
HETATM   17  C   UNK N   1      27.055  20.167   4.130  0.00  0.00     0.077 C 
HETATM   18  N   UNK N   1      28.314  18.133   3.575  0.00  0.00    -0.349 N 
HETATM   19  C   UNK N   1      29.042  17.028   3.870  0.00  0.00     0.018 A 
ATOM     20  HN  UNK N   1      28.083  18.330   2.602  1.00  0.00     0.167 HD
HETATM   21  C   UNK N   1      29.470  16.126   2.760  0.00  0.00     0.069 C 
ENDBRANCH   8   9
ENDBRANCH   7   8
ENDBRANCH   1   7
BRANCH   2  22
HETATM   22  C   UNK N   1      34.656  15.679  10.070  0.00  0.00     0.050 A 
HETATM   23  N   UNK N   1      35.007  16.862  10.631  0.00  0.00    -0.264 N 
HETATM   24  O   UNK N   1      35.583  16.593  11.776  0.00  0.00    -0.237 OA
ATOM     25  HN  UNK N   1      34.852  17.788  10.234  1.00  0.00     0.194 HD
HETATM   26  C   UNK N   1      35.617  15.295  11.977  0.00  0.00     0.114 A 
HETATM   27  C   UNK N   1      35.040  14.672  10.917  0.00  0.00     0.025 A 
HETATM   28  C   UNK N   1      36.122  14.583  13.062  0.00  0.00     0.082 A 
HETATM   29  C   UNK N   1      34.917  13.288  10.839  0.00  0.00     0.019 A 
HETATM   30  C   UNK N   1      35.413  12.533  11.915  0.00  0.00     0.043 A 
HETATM   31  C   UNK N   1      36.013  13.175  13.023  0.00  0.00     0.119 A 
HETATM   32  F   UNK N   1      36.481  12.432  14.054  0.00  0.00    -0.206 F 
ENDBRANCH   2  22
TORSDOF 4
ENDMDL
MODEL 7
REMARK VINA RESULT:      -8.2      2.953      4.860
REMARK  4 active torsions:
REMARK  status: ('A' for Active; 'I' for Inactive)
REMARK    1  A    between atoms: N_4  and  C_15 
REMARK    2  A    between atoms: C_10  and  C_16 
REMARK    3  A    between atoms: C_15  and  C_17 
REMARK    4  A    between atoms: C_17  and  C_18 
ROOT
HETATM    1  N   UNK N   1      36.548  11.280  11.278  0.00  0.00     0.088 N 
HETATM    2  C   UNK N   1      36.118  11.442  14.118  0.00  0.00     0.042 C 
HETATM    3  C   UNK N   1      37.498  11.225  13.521  0.00  0.00     0.041 C 
HETATM    4  C   UNK N   1      35.071  10.805  13.209  0.00  0.00     0.041 C 
HETATM    5  C   UNK N   1      37.520  11.911  12.173  0.00  0.00     0.273 C 
HETATM    6  C   UNK N   1      35.191  11.441  11.817  0.00  0.00     0.273 C 
ENDROOT
BRANCH   1   7
HETATM    7  C   UNK N   1      36.605  11.998  10.013  0.00  0.00     0.277 C 
BRANCH   7   8
HETATM    8  C   UNK N   1      37.137  13.410  10.241  0.00  0.00     0.076 C 
BRANCH   8   9
HETATM    9  C   UNK N   1      36.143  14.452   9.822  0.00  0.00     0.034 A 
HETATM   10  C   UNK N   1      35.872  14.675   8.465  0.00  0.00     0.257 A 
HETATM   11  O   UNK N   1      36.433  14.000   7.615  0.00  0.00    -0.267 OA
HETATM   12  N   UNK N   1      34.977  15.654   8.088  0.00  0.00    -0.303 N 
HETATM   13  C   UNK N   1      34.720  15.850   6.650  0.00  0.00     0.133 C 
HETATM   14  C   UNK N   1      34.364  16.423   9.051  0.00  0.00     0.086 A 
HETATM   15  C   UNK N   1      33.499  16.711   6.361  0.00  0.00     0.021 C 
HETATM   16  C   UNK N   1      33.539  17.944   7.232  0.00  0.00     0.009 C 
HETATM   17  C   UNK N   1      33.415  17.531   8.689  0.00  0.00     0.077 C 
HETATM   18  N   UNK N   1      34.619  16.201  10.366  0.00  0.00    -0.349 N 
HETATM   19  C   UNK N   1      35.485  15.241  10.773  0.00  0.00     0.018 A 
ATOM     20  HN  UNK N   1      34.146  16.772  11.066  1.00  0.00     0.167 HD
HETATM   21  C   UNK N   1      35.731  15.059  12.234  0.00  0.00     0.069 C 
ENDBRANCH   8   9
ENDBRANCH   7   8
ENDBRANCH   1   7
BRANCH   2  22
HETATM   22  C   UNK N   1      36.097  10.969  15.536  0.00  0.00     0.050 A 
HETATM   23  N   UNK N   1      36.438   9.736  15.983  0.00  0.00    -0.264 N 
HETATM   24  O   UNK N   1      36.278   9.737  17.284  0.00  0.00    -0.237 OA
ATOM     25  HN  UNK N   1      36.757   8.953  15.414  1.00  0.00     0.194 HD
HETATM   26  C   UNK N   1      35.854  10.912  17.691  0.00  0.00     0.114 A 
HETATM   27  C   UNK N   1      35.721  11.728  16.614  0.00  0.00     0.025 A 
HETATM   28  C   UNK N   1      35.571  11.349  18.983  0.00  0.00     0.082 A 
HETATM   29  C   UNK N   1      35.295  13.048  16.724  0.00  0.00     0.019 A 
HETATM   30  C   UNK N   1      35.002  13.528  18.011  0.00  0.00     0.043 A 
HETATM   31  C   UNK N   1      35.139  12.684  19.138  0.00  0.00     0.119 A 
HETATM   32  F   UNK N   1      34.857  13.165  20.371  0.00  0.00    -0.206 F 
ENDBRANCH   2  22
TORSDOF 4
ENDMDL
MODEL 8
REMARK VINA RESULT:      -8.1      6.744     12.770
REMARK  4 active torsions:
REMARK  status: ('A' for Active; 'I' for Inactive)
REMARK    1  A    between atoms: N_4  and  C_15 
REMARK    2  A    between atoms: C_10  and  C_16 
REMARK    3  A    between atoms: C_15  and  C_17 
REMARK    4  A    between atoms: C_17  and  C_18 
ROOT
HETATM    1  N   UNK N   1      27.581  17.912   5.023  0.00  0.00     0.088 N 
HETATM    2  C   UNK N   1      24.981  19.033   4.510  0.00  0.00     0.042 C 
HETATM    3  C   UNK N   1      25.504  17.824   3.753  0.00  0.00     0.041 C 
HETATM    4  C   UNK N   1      26.154  19.932   4.891  0.00  0.00     0.041 C 
HETATM    5  C   UNK N   1      26.430  17.074   4.684  0.00  0.00     0.273 C 
HETATM    6  C   UNK N   1      27.133  19.111   5.743  0.00  0.00     0.273 C 
ENDROOT
BRANCH   1   7
HETATM    7  C   UNK N   1      28.416  17.142   5.933  0.00  0.00     0.277 C 
BRANCH   7   8
HETATM    8  C   UNK N   1      29.317  18.079   6.729  0.00  0.00     0.076 C 
BRANCH   8   9
HETATM    9  C   UNK N   1      30.385  17.329   7.468  0.00  0.00     0.034 A 
HETATM   10  C   UNK N   1      31.542  16.897   6.806  0.00  0.00     0.257 A 
HETATM   11  O   UNK N   1      31.694  17.151   5.620  0.00  0.00    -0.267 OA
HETATM   12  N   UNK N   1      32.506  16.183   7.486  0.00  0.00    -0.303 N 
HETATM   13  C   UNK N   1      33.707  15.753   6.750  0.00  0.00     0.133 C 
HETATM   14  C   UNK N   1      32.319  15.885   8.817  0.00  0.00     0.086 A 
HETATM   15  C   UNK N   1      34.835  15.270   7.651  0.00  0.00     0.021 C 
HETATM   16  C   UNK N   1      34.277  14.319   8.683  0.00  0.00     0.009 C 
HETATM   17  C   UNK N   1      33.319  15.073   9.591  0.00  0.00     0.077 C 
HETATM   18  N   UNK N   1      31.203  16.312   9.462  0.00  0.00    -0.349 N 
HETATM   19  C   UNK N   1      30.239  17.023   8.826  0.00  0.00     0.018 A 
ATOM     20  HN  UNK N   1      31.086  16.092  10.451  1.00  0.00     0.167 HD
HETATM   21  C   UNK N   1      29.030  17.449   9.591  0.00  0.00     0.069 C 
ENDBRANCH   8   9
ENDBRANCH   7   8
ENDBRANCH   1   7
BRANCH   2  22
HETATM   22  C   UNK N   1      23.902  19.701   3.721  0.00  0.00     0.050 A 
HETATM   23  N   UNK N   1      24.017  20.840   2.994  0.00  0.00    -0.264 N 
HETATM   24  O   UNK N   1      22.844  21.081   2.463  0.00  0.00    -0.237 OA
ATOM     25  HN  UNK N   1      24.859  21.404   2.883  1.00  0.00     0.194 HD
HETATM   26  C   UNK N   1      21.984  20.151   2.812  0.00  0.00     0.114 A 
HETATM   27  C   UNK N   1      22.612  19.252   3.615  0.00  0.00     0.025 A 
HETATM   28  C   UNK N   1      20.643  20.013   2.463  0.00  0.00     0.082 A 
HETATM   29  C   UNK N   1      21.963  18.140   4.143  0.00  0.00     0.019 A 
HETATM   30  C   UNK N   1      20.609  17.964   3.813  0.00  0.00     0.043 A 
HETATM   31  C   UNK N   1      19.949  18.895   2.976  0.00  0.00     0.119 A 
HETATM   32  F   UNK N   1      18.646  18.707   2.664  0.00  0.00    -0.206 F 
ENDBRANCH   2  22
TORSDOF 4
ENDMDL
MODEL 9
REMARK VINA RESULT:      -8.1      3.554      9.141
REMARK  4 active torsions:
REMARK  status: ('A' for Active; 'I' for Inactive)
REMARK    1  A    between atoms: N_4  and  C_15 
REMARK    2  A    between atoms: C_10  and  C_16 
REMARK    3  A    between atoms: C_15  and  C_17 
REMARK    4  A    between atoms: C_17  and  C_18 
ROOT
HETATM    1  N   UNK N   1      34.392  15.113   8.213  0.00  0.00     0.088 N 
HETATM    2  C   UNK N   1      32.015  16.569   8.925  0.00  0.00     0.042 C 
HETATM    3  C   UNK N   1      31.958  15.228   8.212  0.00  0.00     0.041 C 
HETATM    4  C   UNK N   1      33.282  17.308   8.506  0.00  0.00     0.041 C 
HETATM    5  C   UNK N   1      33.171  14.434   8.647  0.00  0.00     0.273 C 
HETATM    6  C   UNK N   1      34.491  16.429   8.858  0.00  0.00     0.273 C 
ENDROOT
BRANCH   1   7
HETATM    7  C   UNK N   1      35.514  14.312   8.680  0.00  0.00     0.277 C 
BRANCH   7   8
HETATM    8  C   UNK N   1      36.163  14.982   9.887  0.00  0.00     0.076 C 
BRANCH   8   9
HETATM    9  C   UNK N   1      36.485  13.991  10.965  0.00  0.00     0.034 A 
HETATM   10  C   UNK N   1      35.577  13.745  12.004  0.00  0.00     0.257 A 
HETATM   11  O   UNK N   1      34.502  14.328  12.021  0.00  0.00    -0.267 OA
HETATM   12  N   UNK N   1      35.893  12.853  13.007  0.00  0.00    -0.303 N 
HETATM   13  C   UNK N   1      34.906  12.624  14.076  0.00  0.00     0.133 C 
HETATM   14  C   UNK N   1      37.113  12.216  12.990  0.00  0.00     0.086 A 
HETATM   15  C   UNK N   1      35.208  11.403  14.934  0.00  0.00     0.021 C 
HETATM   16  C   UNK N   1      36.666  11.419  15.329  0.00  0.00     0.009 C 
HETATM   17  C   UNK N   1      37.522  11.268  14.083  0.00  0.00     0.077 C 
HETATM   18  N   UNK N   1      37.990  12.446  11.979  0.00  0.00    -0.349 N 
HETATM   19  C   UNK N   1      37.708  13.309  10.973  0.00  0.00     0.018 A 
ATOM     20  HN  UNK N   1      38.884  11.955  11.977  1.00  0.00     0.167 HD
HETATM   21  C   UNK N   1      38.722  13.527   9.900  0.00  0.00     0.069 C 
ENDBRANCH   8   9
ENDBRANCH   7   8
ENDBRANCH   1   7
BRANCH   2  22
HETATM   22  C   UNK N   1      30.741  17.318   8.701  0.00  0.00     0.050 A 
HETATM   23  N   UNK N   1      29.961  17.890   9.651  0.00  0.00    -0.264 N 
HETATM   24  O   UNK N   1      28.943  18.443   9.036  0.00  0.00    -0.237 OA
ATOM     25  HN  UNK N   1      30.132  17.890  10.656  1.00  0.00     0.194 HD
HETATM   26  C   UNK N   1      29.036  18.253   7.739  0.00  0.00     0.114 A 
HETATM   27  C   UNK N   1      30.163  17.540   7.479  0.00  0.00     0.025 A 
HETATM   28  C   UNK N   1      28.185  18.680   6.722  0.00  0.00     0.082 A 
HETATM   29  C   UNK N   1      30.542  17.187   6.188  0.00  0.00     0.019 A 
HETATM   30  C   UNK N   1      29.711  17.600   5.133  0.00  0.00     0.043 A 
HETATM   31  C   UNK N   1      28.537  18.345   5.396  0.00  0.00     0.119 A 
HETATM   32  F   UNK N   1      27.751  18.739   4.368  0.00  0.00    -0.206 F 
ENDBRANCH   2  22
TORSDOF 4
ENDMDL
