MODEL 1
REMARK VINA RESULT:      -5.8      0.000      0.000
REMARK  5 active torsions:
REMARK  status: ('A' for Active; 'I' for Inactive)
REMARK    1  A    between atoms: N_1  and  C_2 
REMARK    2  A    between atoms: N_1  and  C_6 
REMARK    3  A    between atoms: C_2  and  C_3 
REMARK    4  A    between atoms: C_6  and  C_13 
REMARK    5  A    between atoms: C_16  and  C_17 
ROOT
HETATM    1  N   UNK N   1      25.806  24.532  -7.464  0.00  0.00     0.091 N 
HETATM    2  C   UNK N   1      25.375  23.666  -8.559  0.00  0.00     0.310 C 
ENDROOT
BRANCH   1   3
HETATM    3  C   UNK N   1      25.959  25.958  -7.814  0.00  0.00     0.311 C 
BRANCH   3   4
HETATM    4  C   UNK N   1      26.068  26.926  -6.662  0.00  0.00    -0.019 A 
HETATM    5  C   UNK N   1      27.059  27.925  -6.652  0.00  0.00    -0.018 A 
HETATM    6  C   UNK N   1      27.144  28.812  -5.551  0.00  0.00    -0.025 A 
HETATM    7  C   UNK N   1      27.963  28.061  -7.716  0.00  0.00     0.013 A 
HETATM    8  C   UNK N   1      26.253  28.691  -4.483  0.00  0.00     0.012 A 
HETATM    9  C   UNK N   1      28.123  29.809  -5.532  0.00  0.00     0.012 A 
HETATM   10  C   UNK N   1      25.276  27.692  -4.496  0.00  0.00     0.002 A 
HETATM   11  C   UNK N   1      25.188  26.812  -5.577  0.00  0.00     0.010 A 
HETATM   12  C   UNK N   1      29.018  29.933  -6.598  0.00  0.00     0.001 A 
HETATM   13  C   UNK N   1      28.939  29.061  -7.687  0.00  0.00     0.001 A 
ENDBRANCH   3   4
ENDBRANCH   1   3
BRANCH   1  14
HETATM   14  C   UNK N   1      27.078  24.002  -6.990  0.00  0.00     0.299 C 
BRANCH  14  15
HETATM   15  C   UNK N   1      27.068  23.677  -5.519  0.00  0.00     0.004 C 
HETATM   16  C   UNK N   1      27.797  24.277  -4.559  0.00  0.00     0.009 C 
BRANCH  16  17
HETATM   17  C   UNK N   1      28.849  25.309  -4.712  0.00  0.00    -0.036 A 
HETATM   18  C   UNK N   1      29.001  26.256  -3.693  0.00  0.00     0.011 A 
HETATM   19  C   UNK N   1      29.997  27.235  -3.778  0.00  0.00     0.001 A 
HETATM   20  C   UNK N   1      30.860  27.261  -4.877  0.00  0.00     0.000 A 
HETATM   21  C   UNK N   1      30.722  26.314  -5.893  0.00  0.00     0.001 A 
HETATM   22  C   UNK N   1      29.719  25.346  -5.810  0.00  0.00     0.011 A 
ENDBRANCH  16  17
ENDBRANCH  14  15
ENDBRANCH   1  14
TORSDOF 5
ENDMDL
MODEL 2
REMARK VINA RESULT:      -5.7      1.760      4.142
REMARK  5 active torsions:
REMARK  status: ('A' for Active; 'I' for Inactive)
REMARK    1  A    between atoms: N_1  and  C_2 
REMARK    2  A    between atoms: N_1  and  C_6 
REMARK    3  A    between atoms: C_2  and  C_3 
REMARK    4  A    between atoms: C_6  and  C_13 
REMARK    5  A    between atoms: C_16  and  C_17 
ROOT
HETATM    1  N   UNK N   1      29.950  28.150  -5.038  0.00  0.00     0.091 N 
HETATM    2  C   UNK N   1      31.251  28.807  -5.126  0.00  0.00     0.310 C 
ENDROOT
BRANCH   1   3
HETATM    3  C   UNK N   1      28.788  29.019  -5.303  0.00  0.00     0.311 C 
BRANCH   3   4
HETATM    4  C   UNK N   1      27.452  28.332  -5.449  0.00  0.00    -0.019 A 
HETATM    5  C   UNK N   1      27.140  27.605  -6.613  0.00  0.00    -0.018 A 
HETATM    6  C   UNK N   1      25.874  26.981  -6.727  0.00  0.00    -0.025 A 
HETATM    7  C   UNK N   1      28.063  27.484  -7.662  0.00  0.00     0.013 A 
HETATM    8  C   UNK N   1      24.942  27.092  -5.693  0.00  0.00     0.012 A 
HETATM    9  C   UNK N   1      25.555  26.255  -7.877  0.00  0.00     0.012 A 
HETATM   10  C   UNK N   1      25.255  27.822  -4.544  0.00  0.00     0.002 A 
HETATM   11  C   UNK N   1      26.502  28.442  -4.425  0.00  0.00     0.010 A 
HETATM   12  C   UNK N   1      26.483  26.142  -8.916  0.00  0.00     0.001 A 
HETATM   13  C   UNK N   1      27.734  26.756  -8.809  0.00  0.00     0.001 A 
ENDBRANCH   3   4
ENDBRANCH   1   3
BRANCH   1  14
HETATM   14  C   UNK N   1      29.854  27.595  -3.693  0.00  0.00     0.299 C 
BRANCH  14  15
HETATM   15  C   UNK N   1      30.623  26.310  -3.531  0.00  0.00     0.004 C 
HETATM   16  C   UNK N   1      30.199  25.074  -3.857  0.00  0.00     0.009 C 
BRANCH  16  17
HETATM   17  C   UNK N   1      28.863  24.657  -4.344  0.00  0.00    -0.036 A 
HETATM   18  C   UNK N   1      28.760  24.149  -5.643  0.00  0.00     0.011 A 
HETATM   19  C   UNK N   1      27.525  23.718  -6.140  0.00  0.00     0.001 A 
HETATM   20  C   UNK N   1      26.387  23.776  -5.332  0.00  0.00     0.000 A 
HETATM   21  C   UNK N   1      26.483  24.272  -4.030  0.00  0.00     0.001 A 
HETATM   22  C   UNK N   1      27.715  24.713  -3.542  0.00  0.00     0.011 A 
ENDBRANCH  16  17
ENDBRANCH  14  15
ENDBRANCH   1  14
TORSDOF 5
ENDMDL
MODEL 3
REMARK VINA RESULT:      -5.5      1.748      4.185
REMARK  5 active torsions:
REMARK  status: ('A' for Active; 'I' for Inactive)
REMARK    1  A    between atoms: N_1  and  C_2 
REMARK    2  A    between atoms: N_1  and  C_6 
REMARK    3  A    between atoms: C_2  and  C_3 
REMARK    4  A    between atoms: C_6  and  C_13 
REMARK    5  A    between atoms: C_16  and  C_17 
ROOT
HETATM    1  N   UNK N   1      30.593  27.338  -7.656  0.00  0.00     0.091 N 
HETATM    2  C   UNK N   1      31.879  28.029  -7.670  0.00  0.00     0.310 C 
ENDROOT
BRANCH   1   3
HETATM    3  C   UNK N   1      29.413  28.211  -7.498  0.00  0.00     0.311 C 
BRANCH   3   4
HETATM    4  C   UNK N   1      28.064  27.546  -7.614  0.00  0.00    -0.019 A 
HETATM    5  C   UNK N   1      27.113  27.660  -6.583  0.00  0.00    -0.018 A 
HETATM    6  C   UNK N   1      25.859  27.015  -6.715  0.00  0.00    -0.025 A 
HETATM    7  C   UNK N   1      27.384  28.405  -5.426  0.00  0.00     0.013 A 
HETATM    8  C   UNK N   1      25.573  26.268  -7.859  0.00  0.00     0.012 A 
HETATM    9  C   UNK N   1      24.908  27.124  -5.697  0.00  0.00     0.012 A 
HETATM   10  C   UNK N   1      26.524  26.152  -8.876  0.00  0.00     0.002 A 
HETATM   11  C   UNK N   1      27.763  26.784  -8.752  0.00  0.00     0.010 A 
HETATM   12  C   UNK N   1      25.191  27.869  -4.549  0.00  0.00     0.001 A 
HETATM   13  C   UNK N   1      26.426  28.508  -4.413  0.00  0.00     0.001 A 
ENDBRANCH   3   4
ENDBRANCH   1   3
BRANCH   1  14
HETATM   14  C   UNK N   1      30.647  26.380  -6.558  0.00  0.00     0.299 C 
BRANCH  14  15
HETATM   15  C   UNK N   1      30.600  24.949  -7.024  0.00  0.00     0.004 C 
HETATM   16  C   UNK N   1      29.650  24.040  -6.732  0.00  0.00     0.009 C 
BRANCH  16  17
HETATM   17  C   UNK N   1      28.496  24.178  -5.814  0.00  0.00    -0.036 A 
HETATM   18  C   UNK N   1      27.285  23.578  -6.177  0.00  0.00     0.011 A 
HETATM   19  C   UNK N   1      26.173  23.657  -5.332  0.00  0.00     0.001 A 
HETATM   20  C   UNK N   1      26.271  24.323  -4.108  0.00  0.00     0.000 A 
HETATM   21  C   UNK N   1      27.478  24.915  -3.732  0.00  0.00     0.001 A 
HETATM   22  C   UNK N   1      28.582  24.844  -4.584  0.00  0.00     0.011 A 
ENDBRANCH  16  17
ENDBRANCH  14  15
ENDBRANCH   1  14
TORSDOF 5
ENDMDL
MODEL 4
REMARK VINA RESULT:      -5.5     13.032     15.515
REMARK  5 active torsions:
REMARK  status: ('A' for Active; 'I' for Inactive)
REMARK    1  A    between atoms: N_1  and  C_2 
REMARK    2  A    between atoms: N_1  and  C_6 
REMARK    3  A    between atoms: C_2  and  C_3 
REMARK    4  A    between atoms: C_6  and  C_13 
REMARK    5  A    between atoms: C_16  and  C_17 
ROOT
HETATM    1  N   UNK N   1      30.582  17.914   8.053  0.00  0.00     0.091 N 
HETATM    2  C   UNK N   1      30.422  18.708   9.268  0.00  0.00     0.310 C 
ENDROOT
BRANCH   1   3
HETATM    3  C   UNK N   1      29.400  17.123   7.659  0.00  0.00     0.311 C 
BRANCH   3   4
HETATM    4  C   UNK N   1      29.011  17.175   6.202  0.00  0.00    -0.019 A 
HETATM    5  C   UNK N   1      28.299  18.273   5.684  0.00  0.00    -0.018 A 
HETATM    6  C   UNK N   1      27.937  18.288   4.315  0.00  0.00    -0.025 A 
HETATM    7  C   UNK N   1      27.944  19.357   6.501  0.00  0.00     0.013 A 
HETATM    8  C   UNK N   1      28.281  17.216   3.489  0.00  0.00     0.012 A 
HETATM    9  C   UNK N   1      27.232  19.375   3.792  0.00  0.00     0.012 A 
HETATM   10  C   UNK N   1      28.980  16.125   4.010  0.00  0.00     0.002 A 
HETATM   11  C   UNK N   1      29.339  16.103   5.360  0.00  0.00     0.010 A 
HETATM   12  C   UNK N   1      26.885  20.448   4.616  0.00  0.00     0.001 A 
HETATM   13  C   UNK N   1      27.239  20.440   5.968  0.00  0.00     0.001 A 
ENDBRANCH   3   4
ENDBRANCH   1   3
BRANCH   1  14
HETATM   14  C   UNK N   1      31.714  17.025   8.283  0.00  0.00     0.299 C 
BRANCH  14  15
HETATM   15  C   UNK N   1      33.044  17.696   8.060  0.00  0.00     0.004 C 
HETATM   16  C   UNK N   1      33.714  17.782   6.895  0.00  0.00     0.009 C 
BRANCH  16  17
HETATM   17  C   UNK N   1      33.379  17.163   5.591  0.00  0.00    -0.036 A 
HETATM   18  C   UNK N   1      33.752  15.832   5.374  0.00  0.00     0.011 A 
HETATM   19  C   UNK N   1      33.435  15.194   4.171  0.00  0.00     0.001 A 
HETATM   20  C   UNK N   1      32.726  15.880   3.181  0.00  0.00     0.000 A 
HETATM   21  C   UNK N   1      32.341  17.205   3.393  0.00  0.00     0.001 A 
HETATM   22  C   UNK N   1      32.669  17.842   4.591  0.00  0.00     0.011 A 
ENDBRANCH  16  17
ENDBRANCH  14  15
ENDBRANCH   1  14
TORSDOF 5
ENDMDL
MODEL 5
REMARK VINA RESULT:      -5.5      1.595      3.772
REMARK  5 active torsions:
REMARK  status: ('A' for Active; 'I' for Inactive)
REMARK    1  A    between atoms: N_1  and  C_2 
REMARK    2  A    between atoms: N_1  and  C_6 
REMARK    3  A    between atoms: C_2  and  C_3 
REMARK    4  A    between atoms: C_6  and  C_13 
REMARK    5  A    between atoms: C_16  and  C_17 
ROOT
HETATM    1  N   UNK N   1      29.594  24.033  -6.115  0.00  0.00     0.091 N 
HETATM    2  C   UNK N   1      30.570  22.947  -6.152  0.00  0.00     0.310 C 
ENDROOT
BRANCH   1   3
HETATM    3  C   UNK N   1      30.109  25.324  -5.618  0.00  0.00     0.311 C 
BRANCH   3   4
HETATM    4  C   UNK N   1      29.380  26.562  -6.078  0.00  0.00    -0.019 A 
HETATM    5  C   UNK N   1      29.213  27.662  -5.216  0.00  0.00    -0.018 A 
HETATM    6  C   UNK N   1      28.513  28.806  -5.672  0.00  0.00    -0.025 A 
HETATM    7  C   UNK N   1      29.730  27.647  -3.912  0.00  0.00     0.013 A 
HETATM    8  C   UNK N   1      27.990  28.837  -6.966  0.00  0.00     0.012 A 
HETATM    9  C   UNK N   1      28.344  29.904  -4.824  0.00  0.00     0.012 A 
HETATM   10  C   UNK N   1      28.153  27.739  -7.814  0.00  0.00     0.002 A 
HETATM   11  C   UNK N   1      28.840  26.607  -7.371  0.00  0.00     0.010 A 
HETATM   12  C   UNK N   1      28.864  29.876  -3.527  0.00  0.00     0.001 A 
HETATM   13  C   UNK N   1      29.555  28.749  -3.072  0.00  0.00     0.001 A 
ENDBRANCH   3   4
ENDBRANCH   1   3
BRANCH   1  14
HETATM   14  C   UNK N   1      28.499  23.580  -5.266  0.00  0.00     0.299 C 
BRANCH  14  15
HETATM   15  C   UNK N   1      27.217  23.363  -6.025  0.00  0.00     0.004 C 
HETATM   16  C   UNK N   1      26.148  24.183  -6.046  0.00  0.00     0.009 C 
BRANCH  16  17
HETATM   17  C   UNK N   1      25.920  25.420  -5.264  0.00  0.00    -0.036 A 
HETATM   18  C   UNK N   1      26.440  25.489  -3.967  0.00  0.00     0.011 A 
HETATM   19  C   UNK N   1      26.275  26.646  -3.198  0.00  0.00     0.001 A 
HETATM   20  C   UNK N   1      25.601  27.749  -3.729  0.00  0.00     0.000 A 
HETATM   21  C   UNK N   1      25.088  27.692  -5.025  0.00  0.00     0.001 A 
HETATM   22  C   UNK N   1      25.244  26.531  -5.786  0.00  0.00     0.011 A 
ENDBRANCH  16  17
ENDBRANCH  14  15
ENDBRANCH   1  14
TORSDOF 5
ENDMDL
MODEL 6
REMARK VINA RESULT:      -5.4      1.622      2.835
REMARK  5 active torsions:
REMARK  status: ('A' for Active; 'I' for Inactive)
REMARK    1  A    between atoms: N_1  and  C_2 
REMARK    2  A    between atoms: N_1  and  C_6 
REMARK    3  A    between atoms: C_2  and  C_3 
REMARK    4  A    between atoms: C_6  and  C_13 
REMARK    5  A    between atoms: C_16  and  C_17 
ROOT
HETATM    1  N   UNK N   1      27.388  25.751  -8.943  0.00  0.00     0.091 N 
HETATM    2  C   UNK N   1      27.536  26.192 -10.327  0.00  0.00     0.310 C 
ENDROOT
BRANCH   1   3
HETATM    3  C   UNK N   1      27.936  26.672  -7.928  0.00  0.00     0.311 C 
BRANCH   3   4
HETATM    4  C   UNK N   1      27.024  27.031  -6.781  0.00  0.00    -0.019 A 
HETATM    5  C   UNK N   1      27.543  27.564  -5.586  0.00  0.00    -0.018 A 
HETATM    6  C   UNK N   1      26.663  27.881  -4.523  0.00  0.00    -0.025 A 
HETATM    7  C   UNK N   1      28.919  27.790  -5.431  0.00  0.00     0.013 A 
HETATM    8  C   UNK N   1      25.291  27.660  -4.660  0.00  0.00     0.012 A 
HETATM    9  C   UNK N   1      27.168  28.412  -3.334  0.00  0.00     0.012 A 
HETATM   10  C   UNK N   1      24.782  27.124  -5.846  0.00  0.00     0.002 A 
HETATM   11  C   UNK N   1      25.645  26.808  -6.899  0.00  0.00     0.010 A 
HETATM   12  C   UNK N   1      28.541  28.632  -3.191  0.00  0.00     0.001 A 
HETATM   13  C   UNK N   1      29.415  28.321  -4.237  0.00  0.00     0.001 A 
ENDBRANCH   3   4
ENDBRANCH   1   3
BRANCH   1  14
HETATM   14  C   UNK N   1      28.053  24.457  -8.844  0.00  0.00     0.299 C 
BRANCH  14  15
HETATM   15  C   UNK N   1      27.109  23.336  -8.499  0.00  0.00     0.004 C 
HETATM   16  C   UNK N   1      26.696  22.986  -7.266  0.00  0.00     0.009 C 
BRANCH  16  17
HETATM   17  C   UNK N   1      27.135  23.528  -5.959  0.00  0.00    -0.036 A 
HETATM   18  C   UNK N   1      26.158  23.827  -5.003  0.00  0.00     0.011 A 
HETATM   19  C   UNK N   1      26.523  24.316  -3.744  0.00  0.00     0.001 A 
HETATM   20  C   UNK N   1      27.872  24.493  -3.428  0.00  0.00     0.000 A 
HETATM   21  C   UNK N   1      28.854  24.187  -4.371  0.00  0.00     0.001 A 
HETATM   22  C   UNK N   1      28.485  23.711  -5.631  0.00  0.00     0.011 A 
ENDBRANCH  16  17
ENDBRANCH  14  15
ENDBRANCH   1  14
TORSDOF 5
ENDMDL
MODEL 7
REMARK VINA RESULT:      -5.3      1.949      4.572
REMARK  5 active torsions:
REMARK  status: ('A' for Active; 'I' for Inactive)
REMARK    1  A    between atoms: N_1  and  C_2 
REMARK    2  A    between atoms: N_1  and  C_6 
REMARK    3  A    between atoms: C_2  and  C_3 
REMARK    4  A    between atoms: C_6  and  C_13 
REMARK    5  A    between atoms: C_16  and  C_17 
ROOT
HETATM    1  N   UNK N   1      30.475  28.500  -4.777  0.00  0.00     0.091 N 
HETATM    2  C   UNK N   1      31.448  29.396  -4.159  0.00  0.00     0.310 C 
ENDROOT
BRANCH   1   3
HETATM    3  C   UNK N   1      29.354  29.169  -5.465  0.00  0.00     0.311 C 
BRANCH   3   4
HETATM    4  C   UNK N   1      28.565  28.331  -6.440  0.00  0.00    -0.019 A 
HETATM    5  C   UNK N   1      27.258  27.906  -6.132  0.00  0.00    -0.018 A 
HETATM    6  C   UNK N   1      26.546  27.109  -7.062  0.00  0.00    -0.025 A 
HETATM    7  C   UNK N   1      26.647  28.261  -4.921  0.00  0.00     0.013 A 
HETATM    8  C   UNK N   1      27.140  26.746  -8.272  0.00  0.00     0.012 A 
HETATM    9  C   UNK N   1      25.248  26.685  -6.767  0.00  0.00     0.012 A 
HETATM   10  C   UNK N   1      28.440  27.164  -8.568  0.00  0.00     0.002 A 
HETATM   11  C   UNK N   1      29.149  27.948  -7.655  0.00  0.00     0.010 A 
HETATM   12  C   UNK N   1      24.651  27.044  -5.556  0.00  0.00     0.001 A 
HETATM   13  C   UNK N   1      25.348  27.830  -4.634  0.00  0.00     0.001 A 
ENDBRANCH   3   4
ENDBRANCH   1   3
BRANCH   1  14
HETATM   14  C   UNK N   1      29.961  27.645  -3.714  0.00  0.00     0.299 C 
BRANCH  14  15
HETATM   15  C   UNK N   1      30.774  26.392  -3.522  0.00  0.00     0.004 C 
HETATM   16  C   UNK N   1      30.408  25.139  -3.853  0.00  0.00     0.009 C 
BRANCH  16  17
HETATM   17  C   UNK N   1      29.104  24.669  -4.377  0.00  0.00    -0.036 A 
HETATM   18  C   UNK N   1      27.984  24.759  -3.545  0.00  0.00     0.011 A 
HETATM   19  C   UNK N   1      26.726  24.353  -4.002  0.00  0.00     0.001 A 
HETATM   20  C   UNK N   1      26.579  23.867  -5.304  0.00  0.00     0.000 A 
HETATM   21  C   UNK N   1      27.690  23.783  -6.145  0.00  0.00     0.001 A 
HETATM   22  C   UNK N   1      28.946  24.179  -5.680  0.00  0.00     0.011 A 
ENDBRANCH  16  17
ENDBRANCH  14  15
ENDBRANCH   1  14
TORSDOF 5
ENDMDL
MODEL 8
REMARK VINA RESULT:      -5.3     13.435     15.569
REMARK  5 active torsions:
REMARK  status: ('A' for Active; 'I' for Inactive)
REMARK    1  A    between atoms: N_1  and  C_2 
REMARK    2  A    between atoms: N_1  and  C_6 
REMARK    3  A    between atoms: C_2  and  C_3 
REMARK    4  A    between atoms: C_6  and  C_13 
REMARK    5  A    between atoms: C_16  and  C_17 
ROOT
HETATM    1  N   UNK N   1      30.543  15.655   4.977  0.00  0.00     0.091 N 
HETATM    2  C   UNK N   1      30.036  14.291   4.861  0.00  0.00     0.310 C 
ENDROOT
BRANCH   1   3
HETATM    3  C   UNK N   1      29.562  16.718   4.684  0.00  0.00     0.311 C 
BRANCH   3   4
HETATM    4  C   UNK N   1      29.089  17.541   5.857  0.00  0.00    -0.019 A 
HETATM    5  C   UNK N   1      28.278  18.675   5.662  0.00  0.00    -0.018 A 
HETATM    6  C   UNK N   1      27.860  19.435   6.781  0.00  0.00    -0.025 A 
HETATM    7  C   UNK N   1      27.873  19.064   4.376  0.00  0.00     0.013 A 
HETATM    8  C   UNK N   1      28.255  19.062   8.068  0.00  0.00     0.012 A 
HETATM    9  C   UNK N   1      27.053  20.560   6.598  0.00  0.00     0.012 A 
HETATM   10  C   UNK N   1      29.067  17.941   8.254  0.00  0.00     0.002 A 
HETATM   11  C   UNK N   1      29.485  17.187   7.154  0.00  0.00     0.010 A 
HETATM   12  C   UNK N   1      26.656  20.937   5.312  0.00  0.00     0.001 A 
HETATM   13  C   UNK N   1      27.066  20.192   4.204  0.00  0.00     0.001 A 
ENDBRANCH   3   4
ENDBRANCH   1   3
BRANCH   1  14
HETATM   14  C   UNK N   1      31.671  15.760   4.060  0.00  0.00     0.299 C 
BRANCH  14  15
HETATM   15  C   UNK N   1      32.233  17.154   3.975  0.00  0.00     0.004 C 
HETATM   16  C   UNK N   1      33.063  17.741   4.858  0.00  0.00     0.009 C 
BRANCH  16  17
HETATM   17  C   UNK N   1      33.537  17.221   6.162  0.00  0.00    -0.036 A 
HETATM   18  C   UNK N   1      33.053  17.819   7.330  0.00  0.00     0.011 A 
HETATM   19  C   UNK N   1      33.450  17.347   8.586  0.00  0.00     0.001 A 
HETATM   20  C   UNK N   1      34.323  16.260   8.680  0.00  0.00     0.000 A 
HETATM   21  C   UNK N   1      34.803  15.650   7.520  0.00  0.00     0.001 A 
HETATM   22  C   UNK N   1      34.414  16.132   6.268  0.00  0.00     0.011 A 
ENDBRANCH  16  17
ENDBRANCH  14  15
ENDBRANCH   1  14
TORSDOF 5
ENDMDL
MODEL 9
REMARK VINA RESULT:      -5.2      1.441      3.605
REMARK  5 active torsions:
REMARK  status: ('A' for Active; 'I' for Inactive)
REMARK    1  A    between atoms: N_1  and  C_2 
REMARK    2  A    between atoms: N_1  and  C_6 
REMARK    3  A    between atoms: C_2  and  C_3 
REMARK    4  A    between atoms: C_6  and  C_13 
REMARK    5  A    between atoms: C_16  and  C_17 
ROOT
HETATM    1  N   UNK N   1      27.299  23.892  -8.671  0.00  0.00     0.091 N 
HETATM    2  C   UNK N   1      27.292  22.494  -9.090  0.00  0.00     0.310 C 
ENDROOT
BRANCH   1   3
HETATM    3  C   UNK N   1      28.483  24.310  -7.896  0.00  0.00     0.311 C 
BRANCH   3   4
HETATM    4  C   UNK N   1      28.495  25.735  -7.399  0.00  0.00    -0.019 A 
HETATM    5  C   UNK N   1      29.071  26.060  -6.156  0.00  0.00    -0.018 A 
HETATM    6  C   UNK N   1      29.056  27.404  -5.711  0.00  0.00    -0.025 A 
HETATM    7  C   UNK N   1      29.663  25.075  -5.352  0.00  0.00     0.013 A 
HETATM    8  C   UNK N   1      28.469  28.397  -6.499  0.00  0.00     0.012 A 
HETATM    9  C   UNK N   1      29.627  27.738  -4.480  0.00  0.00     0.012 A 
HETATM   10  C   UNK N   1      27.893  28.066  -7.728  0.00  0.00     0.002 A 
HETATM   11  C   UNK N   1      27.902  26.742  -8.173  0.00  0.00     0.010 A 
HETATM   12  C   UNK N   1      30.213  26.747  -3.688  0.00  0.00     0.001 A 
HETATM   13  C   UNK N   1      30.231  25.419  -4.122  0.00  0.00     0.001 A 
ENDBRANCH   3   4
ENDBRANCH   1   3
BRANCH   1  14
HETATM   14  C   UNK N   1      26.094  24.095  -7.876  0.00  0.00     0.299 C 
BRANCH  14  15
HETATM   15  C   UNK N   1      26.078  23.277  -6.612  0.00  0.00     0.004 C 
HETATM   16  C   UNK N   1      25.938  23.743  -5.356  0.00  0.00     0.009 C 
BRANCH  16  17
HETATM   17  C   UNK N   1      25.873  25.150  -4.898  0.00  0.00    -0.036 A 
HETATM   18  C   UNK N   1      25.187  26.076  -5.693  0.00  0.00     0.011 A 
HETATM   19  C   UNK N   1      25.076  27.411  -5.290  0.00  0.00     0.001 A 
HETATM   20  C   UNK N   1      25.636  27.825  -4.079  0.00  0.00     0.000 A 
HETATM   21  C   UNK N   1      26.313  26.907  -3.275  0.00  0.00     0.001 A 
HETATM   22  C   UNK N   1      26.432  25.577  -3.686  0.00  0.00     0.011 A 
ENDBRANCH  16  17
ENDBRANCH  14  15
ENDBRANCH   1  14
TORSDOF 5
ENDMDL
