MODEL 1
REMARK VINA RESULT:      -7.7      0.000      0.000
REMARK  5 active torsions:
REMARK  status: ('A' for Active; 'I' for Inactive)
REMARK    1  A    between atoms: N_2  and  C_8 
REMARK    2  A    between atoms: N_3  and  C_9 
REMARK    3  A    between atoms: C_8  and  C_10 
REMARK    4  A    between atoms: C_8  and  C_11 
REMARK    5  A    between atoms: C_9  and  C_12 
ROOT
HETATM    1  N   UNK N   1      21.982  16.417   5.245  0.00  0.00     0.105 N 
HETATM    2  N   UNK N   1      20.461  15.162   7.417  0.00  0.00     0.096 N 
HETATM    3  C   UNK N   1      22.311  15.071   5.758  0.00  0.00     0.304 C 
HETATM    4  C   UNK N   1      21.281  17.195   6.271  0.00  0.00     0.304 C 
HETATM    5  C   UNK N   1      21.099  14.350   6.377  0.00  0.00     0.303 C 
HETATM    6  C   UNK N   1      20.061  16.439   6.810  0.00  0.00     0.303 C 
ENDROOT
BRANCH   1   7
HETATM    7  C   UNK N   1      21.229  16.454   3.969  0.00  0.00     0.289 C 
BRANCH   7   8
HETATM    8  C   UNK N   1      21.816  15.537   2.922  0.00  0.00    -0.021 A 
HETATM    9  C   UNK N   1      21.000  14.859   1.999  0.00  0.00     0.011 A 
HETATM   10  C   UNK N   1      21.577  14.057   1.012  0.00  0.00     0.024 A 
HETATM   11  C   UNK N   1      22.967  13.930   0.937  0.00  0.00     0.034 A 
HETATM   12 Cl   UNK N   1      23.689  12.936  -0.308  0.00  0.00    -0.084 Cl
HETATM   13  C   UNK N   1      23.782  14.602   1.853  0.00  0.00     0.024 A 
HETATM   14  C   UNK N   1      23.207  15.405   2.841  0.00  0.00     0.011 A 
ENDBRANCH   7   8
BRANCH   7  15
HETATM   15  C   UNK N   1      21.060  17.898   3.504  0.00  0.00    -0.021 A 
HETATM   16  C   UNK N   1      22.172  18.754   3.492  0.00  0.00     0.010 A 
HETATM   17  C   UNK N   1      22.053  20.075   3.054  0.00  0.00     0.001 A 
HETATM   18  C   UNK N   1      20.816  20.558   2.623  0.00  0.00     0.000 A 
HETATM   19  C   UNK N   1      19.697  19.722   2.639  0.00  0.00     0.001 A 
HETATM   20  C   UNK N   1      19.817  18.399   3.078  0.00  0.00     0.010 A 
ENDBRANCH   7  15
ENDBRANCH   1   7
BRANCH   2  21
HETATM   21  C   UNK N   1      21.405  15.341   8.535  0.00  0.00     0.311 C 
BRANCH  21  22
HETATM   22  C   UNK N   1      21.432  14.159   9.451  0.00  0.00    -0.030 A 
HETATM   23  C   UNK N   1      22.661  13.571   9.764  0.00  0.00     0.015 A 
HETATM   24  C   UNK N   1      22.721  12.511  10.669  0.00  0.00    -0.061 A 
HETATM   25  C   UNK N   1      21.548  12.028  11.258  0.00  0.00     0.007 A 
HETATM   26  C   UNK N   1      24.035  11.911  11.020  0.00  0.00     0.048 C 
HETATM   27  C   UNK N   1      20.316  12.610  10.940  0.00  0.00     0.001 A 
HETATM   28  C   UNK N   1      20.257  13.683  10.043  0.00  0.00     0.009 A 
ENDBRANCH  21  22
ENDBRANCH   2  21
TORSDOF 5
ENDMDL
MODEL 2
REMARK VINA RESULT:      -7.6      2.327      3.503
REMARK  5 active torsions:
REMARK  status: ('A' for Active; 'I' for Inactive)
REMARK    1  A    between atoms: N_2  and  C_8 
REMARK    2  A    between atoms: N_3  and  C_9 
REMARK    3  A    between atoms: C_8  and  C_10 
REMARK    4  A    between atoms: C_8  and  C_11 
REMARK    5  A    between atoms: C_9  and  C_12 
ROOT
HETATM    1  N   UNK N   1      21.742  16.223   5.215  0.00  0.00     0.105 N 
HETATM    2  N   UNK N   1      22.307  13.992   7.034  0.00  0.00     0.096 N 
HETATM    3  C   UNK N   1      22.556  16.393   6.437  0.00  0.00     0.304 C 
HETATM    4  C   UNK N   1      20.845  15.073   5.357  0.00  0.00     0.304 C 
HETATM    5  C   UNK N   1      23.258  15.094   6.877  0.00  0.00     0.303 C 
HETATM    6  C   UNK N   1      21.615  13.807   5.750  0.00  0.00     0.303 C 
ENDROOT
BRANCH   1   7
HETATM    7  C   UNK N   1      22.501  16.128   3.945  0.00  0.00     0.289 C 
BRANCH   7   8
HETATM    8  C   UNK N   1      23.636  17.122   3.871  0.00  0.00    -0.021 A 
HETATM    9  C   UNK N   1      24.959  16.709   3.636  0.00  0.00     0.011 A 
HETATM   10  C   UNK N   1      25.979  17.657   3.525  0.00  0.00     0.024 A 
HETATM   11  C   UNK N   1      25.685  19.019   3.642  0.00  0.00     0.034 A 
HETATM   12 Cl   UNK N   1      26.960  20.206   3.489  0.00  0.00    -0.084 Cl
HETATM   13  C   UNK N   1      24.371  19.434   3.876  0.00  0.00     0.024 A 
HETATM   14  C   UNK N   1      23.349  18.488   3.987  0.00  0.00     0.011 A 
ENDBRANCH   7   8
BRANCH   7  15
HETATM   15  C   UNK N   1      21.542  16.194   2.759  0.00  0.00    -0.021 A 
HETATM   16  C   UNK N   1      20.750  17.337   2.573  0.00  0.00     0.010 A 
HETATM   17  C   UNK N   1      19.877  17.434   1.486  0.00  0.00     0.001 A 
HETATM   18  C   UNK N   1      19.784  16.384   0.571  0.00  0.00     0.000 A 
HETATM   19  C   UNK N   1      20.558  15.235   0.747  0.00  0.00     0.001 A 
HETATM   20  C   UNK N   1      21.431  15.138   1.836  0.00  0.00     0.010 A 
ENDBRANCH   7  15
ENDBRANCH   1   7
BRANCH   2  21
HETATM   21  C   UNK N   1      21.378  14.309   8.134  0.00  0.00     0.311 C 
BRANCH  21  22
HETATM   22  C   UNK N   1      21.622  13.465   9.344  0.00  0.00    -0.030 A 
HETATM   23  C   UNK N   1      22.935  13.110   9.670  0.00  0.00     0.015 A 
HETATM   24  C   UNK N   1      23.197  12.382  10.831  0.00  0.00    -0.061 A 
HETATM   25  C   UNK N   1      22.144  11.998  11.667  0.00  0.00     0.007 A 
HETATM   26  C   UNK N   1      24.597  12.036  11.187  0.00  0.00     0.048 C 
HETATM   27  C   UNK N   1      20.828  12.345  11.338  0.00  0.00     0.001 A 
HETATM   28  C   UNK N   1      20.567  13.088  10.181  0.00  0.00     0.009 A 
ENDBRANCH  21  22
ENDBRANCH   2  21
TORSDOF 5
ENDMDL
MODEL 3
REMARK VINA RESULT:      -7.5      2.071      4.179
REMARK  5 active torsions:
REMARK  status: ('A' for Active; 'I' for Inactive)
REMARK    1  A    between atoms: N_2  and  C_8 
REMARK    2  A    between atoms: N_3  and  C_9 
REMARK    3  A    between atoms: C_8  and  C_10 
REMARK    4  A    between atoms: C_8  and  C_11 
REMARK    5  A    between atoms: C_9  and  C_12 
ROOT
HETATM    1  N   UNK N   1      21.313  14.921   4.610  0.00  0.00     0.105 N 
HETATM    2  N   UNK N   1      22.347  14.608   7.337  0.00  0.00     0.096 N 
HETATM    3  C   UNK N   1      20.827  15.749   5.734  0.00  0.00     0.304 C 
HETATM    4  C   UNK N   1      21.856  13.654   5.109  0.00  0.00     0.304 C 
HETATM    5  C   UNK N   1      21.867  15.907   6.858  0.00  0.00     0.303 C 
HETATM    6  C   UNK N   1      22.917  13.886   6.190  0.00  0.00     0.303 C 
ENDROOT
BRANCH   1   7
HETATM    7  C   UNK N   1      22.287  15.575   3.703  0.00  0.00     0.289 C 
BRANCH   7   8
HETATM    8  C   UNK N   1      21.931  17.013   3.409  0.00  0.00    -0.021 A 
HETATM    9  C   UNK N   1      22.741  18.074   3.851  0.00  0.00     0.011 A 
HETATM   10  C   UNK N   1      22.411  19.390   3.521  0.00  0.00     0.024 A 
HETATM   11  C   UNK N   1      21.277  19.655   2.747  0.00  0.00     0.034 A 
HETATM   12 Cl   UNK N   1      20.872  21.303   2.323  0.00  0.00    -0.084 Cl
HETATM   13  C   UNK N   1      20.469  18.603   2.307  0.00  0.00     0.024 A 
HETATM   14  C   UNK N   1      20.797  17.286   2.635  0.00  0.00     0.011 A 
ENDBRANCH   7   8
BRANCH   7  15
HETATM   15  C   UNK N   1      22.492  14.720   2.455  0.00  0.00    -0.021 A 
HETATM   16  C   UNK N   1      23.788  14.532   1.951  0.00  0.00     0.010 A 
HETATM   17  C   UNK N   1      24.009  13.741   0.821  0.00  0.00     0.001 A 
HETATM   18  C   UNK N   1      22.933  13.127   0.179  0.00  0.00     0.000 A 
HETATM   19  C   UNK N   1      21.635  13.312   0.661  0.00  0.00     0.001 A 
HETATM   20  C   UNK N   1      21.414  14.105   1.791  0.00  0.00     0.010 A 
ENDBRANCH   7  15
ENDBRANCH   1   7
BRANCH   2  21
HETATM   21  C   UNK N   1      21.226  13.880   7.960  0.00  0.00     0.311 C 
BRANCH  21  22
HETATM   22  C   UNK N   1      21.626  13.206   9.234  0.00  0.00    -0.030 A 
HETATM   23  C   UNK N   1      22.981  12.957   9.474  0.00  0.00     0.015 A 
HETATM   24  C   UNK N   1      23.386  12.392  10.684  0.00  0.00    -0.061 A 
HETATM   25  C   UNK N   1      22.435  12.065  11.655  0.00  0.00     0.007 A 
HETATM   26  C   UNK N   1      24.831  12.160  10.945  0.00  0.00     0.048 C 
HETATM   27  C   UNK N   1      21.078  12.305  11.413  0.00  0.00     0.001 A 
HETATM   28  C   UNK N   1      20.672  12.885  10.206  0.00  0.00     0.009 A 
ENDBRANCH  21  22
ENDBRANCH   2  21
TORSDOF 5
ENDMDL
MODEL 4
REMARK VINA RESULT:      -7.4      6.786      9.106
REMARK  5 active torsions:
REMARK  status: ('A' for Active; 'I' for Inactive)
REMARK    1  A    between atoms: N_2  and  C_8 
REMARK    2  A    between atoms: N_3  and  C_9 
REMARK    3  A    between atoms: C_8  and  C_10 
REMARK    4  A    between atoms: C_8  and  C_11 
REMARK    5  A    between atoms: C_9  and  C_12 
ROOT
HETATM    1  N   UNK N   1      28.049  16.370   4.978  0.00  0.00     0.105 N 
HETATM    2  N   UNK N   1      27.121  15.203   2.452  0.00  0.00     0.096 N 
HETATM    3  C   UNK N   1      28.598  15.104   4.450  0.00  0.00     0.304 C 
HETATM    4  C   UNK N   1      26.702  16.601   4.448  0.00  0.00     0.304 C 
HETATM    5  C   UNK N   1      28.495  14.996   2.917  0.00  0.00     0.303 C 
HETATM    6  C   UNK N   1      26.681  16.526   2.917  0.00  0.00     0.303 C 
ENDROOT
BRANCH   1   7
HETATM    7  C   UNK N   1      28.893  17.572   4.773  0.00  0.00     0.289 C 
BRANCH   7   8
HETATM    8  C   UNK N   1      30.307  17.379   5.270  0.00  0.00    -0.021 A 
HETATM    9  C   UNK N   1      31.413  17.563   4.423  0.00  0.00     0.011 A 
HETATM   10  C   UNK N   1      32.709  17.425   4.926  0.00  0.00     0.024 A 
HETATM   11  C   UNK N   1      32.908  17.109   6.273  0.00  0.00     0.034 A 
HETATM   12 Cl   UNK N   1      34.532  16.950   6.904  0.00  0.00    -0.084 Cl
HETATM   13  C   UNK N   1      31.810  16.925   7.118  0.00  0.00     0.024 A 
HETATM   14  C   UNK N   1      30.513  17.063   6.618  0.00  0.00     0.011 A 
ENDBRANCH   7   8
BRANCH   7  15
HETATM   15  C   UNK N   1      28.196  18.803   5.349  0.00  0.00    -0.021 A 
HETATM   16  C   UNK N   1      27.740  19.807   4.482  0.00  0.00     0.010 A 
HETATM   17  C   UNK N   1      27.083  20.936   4.977  0.00  0.00     0.001 A 
HETATM   18  C   UNK N   1      26.875  21.075   6.351  0.00  0.00     0.000 A 
HETATM   19  C   UNK N   1      27.333  20.089   7.228  0.00  0.00     0.001 A 
HETATM   20  C   UNK N   1      27.991  18.960   6.732  0.00  0.00     0.010 A 
ENDBRANCH   7  15
ENDBRANCH   1   7
BRANCH   2  21
HETATM   21  C   UNK N   1      26.270  14.114   2.964  0.00  0.00     0.311 C 
BRANCH  21  22
HETATM   22  C   UNK N   1      25.413  13.512   1.895  0.00  0.00    -0.030 A 
HETATM   23  C   UNK N   1      25.549  12.152   1.602  0.00  0.00     0.015 A 
HETATM   24  C   UNK N   1      24.715  11.551   0.659  0.00  0.00    -0.061 A 
HETATM   25  C   UNK N   1      23.747  12.312  -0.002  0.00  0.00     0.007 A 
HETATM   26  C   UNK N   1      24.845  10.098   0.375  0.00  0.00     0.048 C 
HETATM   27  C   UNK N   1      23.614  13.676   0.284  0.00  0.00     0.001 A 
HETATM   28  C   UNK N   1      24.440  14.275   1.240  0.00  0.00     0.009 A 
ENDBRANCH  21  22
ENDBRANCH   2  21
TORSDOF 5
ENDMDL
MODEL 5
REMARK VINA RESULT:      -7.3     13.599     18.054
REMARK  5 active torsions:
REMARK  status: ('A' for Active; 'I' for Inactive)
REMARK    1  A    between atoms: N_2  and  C_8 
REMARK    2  A    between atoms: N_3  and  C_9 
REMARK    3  A    between atoms: C_8  and  C_10 
REMARK    4  A    between atoms: C_8  and  C_11 
REMARK    5  A    between atoms: C_9  and  C_12 
ROOT
HETATM    1  N   UNK N   1      35.505  12.782  13.593  0.00  0.00     0.105 N 
HETATM    2  N   UNK N   1      36.091  13.320  10.770  0.00  0.00     0.096 N 
HETATM    3  C   UNK N   1      35.424  11.729  12.560  0.00  0.00     0.304 C 
HETATM    4  C   UNK N   1      35.325  14.105  12.986  0.00  0.00     0.304 C 
HETATM    5  C   UNK N   1      36.340  11.999  11.352  0.00  0.00     0.303 C 
HETATM    6  C   UNK N   1      36.298  14.324  11.823  0.00  0.00     0.303 C 
ENDROOT
BRANCH   1   7
HETATM    7  C   UNK N   1      36.726  12.766  14.435  0.00  0.00     0.289 C 
BRANCH   7   8
HETATM    8  C   UNK N   1      37.134  11.369  14.839  0.00  0.00    -0.021 A 
HETATM    9  C   UNK N   1      36.281  10.545  15.593  0.00  0.00     0.011 A 
HETATM   10  C   UNK N   1      36.668   9.240  15.909  0.00  0.00     0.024 A 
HETATM   11  C   UNK N   1      37.902   8.750  15.470  0.00  0.00     0.034 A 
HETATM   12 Cl   UNK N   1      38.379   7.112  15.854  0.00  0.00    -0.084 Cl
HETATM   13  C   UNK N   1      38.752   9.567  14.720  0.00  0.00     0.024 A 
HETATM   14  C   UNK N   1      38.368  10.872  14.403  0.00  0.00     0.011 A 
ENDBRANCH   7   8
BRANCH   7  15
HETATM   15  C   UNK N   1      36.562  13.728  15.610  0.00  0.00    -0.021 A 
HETATM   16  C   UNK N   1      35.644  13.425  16.627  0.00  0.00     0.010 A 
HETATM   17  C   UNK N   1      35.485  14.276  17.724  0.00  0.00     0.001 A 
HETATM   18  C   UNK N   1      36.243  15.444  17.815  0.00  0.00     0.000 A 
HETATM   19  C   UNK N   1      37.154  15.765  16.805  0.00  0.00     0.001 A 
HETATM   20  C   UNK N   1      37.312  14.914  15.708  0.00  0.00     0.010 A 
ENDBRANCH   7  15
ENDBRANCH   1   7
BRANCH   2  21
HETATM   21  C   UNK N   1      34.723  13.354  10.221  0.00  0.00     0.311 C 
BRANCH  21  22
HETATM   22  C   UNK N   1      34.586  14.333   9.099  0.00  0.00    -0.030 A 
HETATM   23  C   UNK N   1      33.736  15.432   9.258  0.00  0.00     0.015 A 
HETATM   24  C   UNK N   1      33.642  16.397   8.255  0.00  0.00    -0.061 A 
HETATM   25  C   UNK N   1      34.392  16.261   7.083  0.00  0.00     0.007 A 
HETATM   26  C   UNK N   1      32.761  17.579   8.445  0.00  0.00     0.048 C 
HETATM   27  C   UNK N   1      35.236  15.157   6.917  0.00  0.00     0.001 A 
HETATM   28  C   UNK N   1      35.342  14.197   7.930  0.00  0.00     0.009 A 
ENDBRANCH  21  22
ENDBRANCH   2  21
TORSDOF 5
ENDMDL
MODEL 6
REMARK VINA RESULT:      -7.2      3.641      8.379
REMARK  5 active torsions:
REMARK  status: ('A' for Active; 'I' for Inactive)
REMARK    1  A    between atoms: N_2  and  C_8 
REMARK    2  A    between atoms: N_3  and  C_9 
REMARK    3  A    between atoms: C_8  and  C_10 
REMARK    4  A    between atoms: C_8  and  C_11 
REMARK    5  A    between atoms: C_9  and  C_12 
ROOT
HETATM    1  N   UNK N   1      23.250  13.490   6.429  0.00  0.00     0.105 N 
HETATM    2  N   UNK N   1      22.453  15.970   5.081  0.00  0.00     0.096 N 
HETATM    3  C   UNK N   1      23.629  14.821   6.946  0.00  0.00     0.304 C 
HETATM    4  C   UNK N   1      22.992  13.558   4.988  0.00  0.00     0.304 C 
HETATM    5  C   UNK N   1      22.643  15.930   6.533  0.00  0.00     0.303 C 
HETATM    6  C   UNK N   1      21.969  14.649   4.652  0.00  0.00     0.303 C 
ENDROOT
BRANCH   1   7
HETATM    7  C   UNK N   1      22.118  12.829   7.122  0.00  0.00     0.289 C 
BRANCH   7   8
HETATM    8  C   UNK N   1      22.368  12.648   8.600  0.00  0.00    -0.021 A 
HETATM    9  C   UNK N   1      21.322  12.717   9.536  0.00  0.00     0.011 A 
HETATM   10  C   UNK N   1      21.578  12.497  10.891  0.00  0.00     0.024 A 
HETATM   11  C   UNK N   1      22.876  12.202  11.319  0.00  0.00     0.034 A 
HETATM   12 Cl   UNK N   1      23.194  11.912  13.015  0.00  0.00    -0.084 Cl
HETATM   13  C   UNK N   1      23.920  12.132  10.392  0.00  0.00     0.024 A 
HETATM   14  C   UNK N   1      23.666  12.352   9.036  0.00  0.00     0.011 A 
ENDBRANCH   7   8
BRANCH   7  15
HETATM   15  C   UNK N   1      21.742  11.540   6.395  0.00  0.00    -0.021 A 
HETATM   16  C   UNK N   1      20.465  11.414   5.827  0.00  0.00     0.010 A 
HETATM   17  C   UNK N   1      20.099  10.254   5.140  0.00  0.00     0.001 A 
HETATM   18  C   UNK N   1      21.008   9.202   5.014  0.00  0.00     0.000 A 
HETATM   19  C   UNK N   1      22.280   9.308   5.582  0.00  0.00     0.001 A 
HETATM   20  C   UNK N   1      22.646  10.469   6.270  0.00  0.00     0.010 A 
ENDBRANCH   7  15
ENDBRANCH   1   7
BRANCH   2  21
HETATM   21  C   UNK N   1      23.726  16.339   4.437  0.00  0.00     0.311 C 
BRANCH  21  22
HETATM   22  C   UNK N   1      23.758  17.776   4.023  0.00  0.00    -0.030 A 
HETATM   23  C   UNK N   1      24.994  18.416   3.891  0.00  0.00     0.015 A 
HETATM   24  C   UNK N   1      25.055  19.735   3.440  0.00  0.00    -0.061 A 
HETATM   25  C   UNK N   1      23.878  20.422   3.128  0.00  0.00     0.007 A 
HETATM   26  C   UNK N   1      26.374  20.400   3.272  0.00  0.00     0.048 C 
HETATM   27  C   UNK N   1      22.639  19.786   3.268  0.00  0.00     0.001 A 
HETATM   28  C   UNK N   1      22.579  18.458   3.706  0.00  0.00     0.009 A 
ENDBRANCH  21  22
ENDBRANCH   2  21
TORSDOF 5
ENDMDL
MODEL 7
REMARK VINA RESULT:      -7.1     14.062     18.905
REMARK  5 active torsions:
REMARK  status: ('A' for Active; 'I' for Inactive)
REMARK    1  A    between atoms: N_2  and  C_8 
REMARK    2  A    between atoms: N_3  and  C_9 
REMARK    3  A    between atoms: C_8  and  C_10 
REMARK    4  A    between atoms: C_8  and  C_11 
REMARK    5  A    between atoms: C_9  and  C_12 
ROOT
HETATM    1  N   UNK N   1      27.836  25.130  -6.418  0.00  0.00     0.105 N 
HETATM    2  N   UNK N   1      25.628  24.984  -8.344  0.00  0.00     0.096 N 
HETATM    3  C   UNK N   1      27.487  26.263  -7.301  0.00  0.00     0.304 C 
HETATM    4  C   UNK N   1      27.386  23.867  -7.010  0.00  0.00     0.304 C 
HETATM    5  C   UNK N   1      26.008  26.259  -7.730  0.00  0.00     0.303 C 
HETATM    6  C   UNK N   1      25.897  23.916  -7.370  0.00  0.00     0.303 C 
ENDROOT
BRANCH   1   7
HETATM    7  C   UNK N   1      27.363  25.237  -5.017  0.00  0.00     0.289 C 
BRANCH   7   8
HETATM    8  C   UNK N   1      27.151  26.669  -4.583  0.00  0.00    -0.021 A 
HETATM    9  C   UNK N   1      28.222  27.576  -4.502  0.00  0.00     0.011 A 
HETATM   10  C   UNK N   1      27.986  28.906  -4.145  0.00  0.00     0.024 A 
HETATM   11  C   UNK N   1      26.684  29.338  -3.872  0.00  0.00     0.034 A 
HETATM   12 Cl   UNK N   1      26.388  31.006  -3.439  0.00  0.00    -0.084 Cl
HETATM   13  C   UNK N   1      25.617  28.438  -3.952  0.00  0.00     0.024 A 
HETATM   14  C   UNK N   1      25.851  27.108  -4.309  0.00  0.00     0.011 A 
ENDBRANCH   7   8
BRANCH   7  15
HETATM   15  C   UNK N   1      28.282  24.440  -4.094  0.00  0.00    -0.021 A 
HETATM   16  C   UNK N   1      27.750  23.830  -2.948  0.00  0.00     0.010 A 
HETATM   17  C   UNK N   1      28.563  23.079  -2.095  0.00  0.00     0.001 A 
HETATM   18  C   UNK N   1      29.921  22.930  -2.378  0.00  0.00     0.000 A 
HETATM   19  C   UNK N   1      30.468  23.539  -3.510  0.00  0.00     0.001 A 
HETATM   20  C   UNK N   1      29.655  24.292  -4.363  0.00  0.00     0.010 A 
ENDBRANCH   7  15
ENDBRANCH   1   7
BRANCH   2  21
HETATM   21  C   UNK N   1      26.384  24.808  -9.596  0.00  0.00     0.311 C 
BRANCH  21  22
HETATM   22  C   UNK N   1      25.990  25.801 -10.643  0.00  0.00    -0.030 A 
HETATM   23  C   UNK N   1      24.633  26.065 -10.850  0.00  0.00     0.015 A 
HETATM   24  C   UNK N   1      24.241  27.037 -11.771  0.00  0.00    -0.061 A 
HETATM   25  C   UNK N   1      25.206  27.743 -12.496  0.00  0.00     0.007 A 
HETATM   26  C   UNK N   1      22.797  27.334 -11.964  0.00  0.00     0.048 C 
HETATM   27  C   UNK N   1      26.565  27.474 -12.296  0.00  0.00     0.001 A 
HETATM   28  C   UNK N   1      26.959  26.510 -11.361  0.00  0.00     0.009 A 
ENDBRANCH  21  22
ENDBRANCH   2  21
TORSDOF 5
ENDMDL
MODEL 8
REMARK VINA RESULT:      -7.1      6.193      8.774
REMARK  5 active torsions:
REMARK  status: ('A' for Active; 'I' for Inactive)
REMARK    1  A    between atoms: N_2  and  C_8 
REMARK    2  A    between atoms: N_3  and  C_9 
REMARK    3  A    between atoms: C_8  and  C_10 
REMARK    4  A    between atoms: C_8  and  C_11 
REMARK    5  A    between atoms: C_9  and  C_12 
ROOT
HETATM    1  N   UNK N   1      27.938  16.357   4.884  0.00  0.00     0.105 N 
HETATM    2  N   UNK N   1      26.649  15.432   2.417  0.00  0.00     0.096 N 
HETATM    3  C   UNK N   1      28.350  15.113   4.202  0.00  0.00     0.304 C 
HETATM    4  C   UNK N   1      26.550  16.688   4.545  0.00  0.00     0.304 C 
HETATM    5  C   UNK N   1      28.056  15.129   2.690  0.00  0.00     0.303 C 
HETATM    6  C   UNK N   1      26.340  16.733   3.027  0.00  0.00     0.303 C 
ENDROOT
BRANCH   1   7
HETATM    7  C   UNK N   1      28.814  17.533   4.662  0.00  0.00     0.289 C 
BRANCH   7   8
HETATM    8  C   UNK N   1      30.237  17.287   5.103  0.00  0.00    -0.021 A 
HETATM    9  C   UNK N   1      30.531  16.741   6.365  0.00  0.00     0.011 A 
HETATM   10  C   UNK N   1      31.855  16.479   6.724  0.00  0.00     0.024 A 
HETATM   11  C   UNK N   1      32.891  16.757   5.827  0.00  0.00     0.034 A 
HETATM   12 Cl   UNK N   1      34.548  16.416   6.271  0.00  0.00    -0.084 Cl
HETATM   13  C   UNK N   1      32.603  17.299   4.571  0.00  0.00     0.024 A 
HETATM   14  C   UNK N   1      31.280  17.561   4.210  0.00  0.00     0.011 A 
ENDBRANCH   7   8
BRANCH   7  15
HETATM   15  C   UNK N   1      28.181  18.778   5.278  0.00  0.00    -0.021 A 
HETATM   16  C   UNK N   1      27.721  19.806   4.441  0.00  0.00     0.010 A 
HETATM   17  C   UNK N   1      27.121  20.949   4.975  0.00  0.00     0.001 A 
HETATM   18  C   UNK N   1      26.975  21.079   6.357  0.00  0.00     0.000 A 
HETATM   19  C   UNK N   1      27.437  20.070   7.205  0.00  0.00     0.001 A 
HETATM   20  C   UNK N   1      28.039  18.926   6.670  0.00  0.00     0.010 A 
ENDBRANCH   7  15
ENDBRANCH   1   7
BRANCH   2  21
HETATM   21  C   UNK N   1      25.809  14.345   2.952  0.00  0.00     0.311 C 
BRANCH  21  22
HETATM   22  C   UNK N   1      24.512  14.215   2.217  0.00  0.00    -0.030 A 
HETATM   23  C   UNK N   1      23.384  14.878   2.710  0.00  0.00     0.015 A 
HETATM   24  C   UNK N   1      22.180  14.829   2.008  0.00  0.00    -0.061 A 
HETATM   25  C   UNK N   1      22.097  14.108   0.813  0.00  0.00     0.007 A 
HETATM   26  C   UNK N   1      20.993  15.561   2.521  0.00  0.00     0.048 C 
HETATM   27  C   UNK N   1      23.223  13.437   0.322  0.00  0.00     0.001 A 
HETATM   28  C   UNK N   1      24.435  13.498   1.018  0.00  0.00     0.009 A 
ENDBRANCH  21  22
ENDBRANCH   2  21
TORSDOF 5
ENDMDL
MODEL 9
REMARK VINA RESULT:      -6.9      3.695      8.446
REMARK  5 active torsions:
REMARK  status: ('A' for Active; 'I' for Inactive)
REMARK    1  A    between atoms: N_2  and  C_8 
REMARK    2  A    between atoms: N_3  and  C_9 
REMARK    3  A    between atoms: C_8  and  C_10 
REMARK    4  A    between atoms: C_8  and  C_11 
REMARK    5  A    between atoms: C_9  and  C_12 
ROOT
HETATM    1  N   UNK N   1      22.964  13.575   6.606  0.00  0.00     0.105 N 
HETATM    2  N   UNK N   1      21.193  15.752   5.753  0.00  0.00     0.096 N 
HETATM    3  C   UNK N   1      22.920  14.874   7.310  0.00  0.00     0.304 C 
HETATM    4  C   UNK N   1      22.519  13.735   5.218  0.00  0.00     0.304 C 
HETATM    5  C   UNK N   1      21.567  15.594   7.160  0.00  0.00     0.303 C 
HETATM    6  C   UNK N   1      21.147  14.415   5.144  0.00  0.00     0.303 C 
ENDROOT
BRANCH   1   7
HETATM    7  C   UNK N   1      22.229  12.464   7.256  0.00  0.00     0.289 C 
BRANCH   7   8
HETATM    8  C   UNK N   1      22.484  12.392   8.743  0.00  0.00    -0.021 A 
HETATM    9  C   UNK N   1      21.437  12.507   9.674  0.00  0.00     0.011 A 
HETATM   10  C   UNK N   1      21.699  12.386  11.041  0.00  0.00     0.024 A 
HETATM   11  C   UNK N   1      23.003  12.147  11.485  0.00  0.00     0.034 A 
HETATM   12 Cl   UNK N   1      23.328  11.983  13.196  0.00  0.00    -0.084 Cl
HETATM   13  C   UNK N   1      24.047  12.033  10.563  0.00  0.00     0.024 A 
HETATM   14  C   UNK N   1      23.787  12.152   9.196  0.00  0.00     0.011 A 
ENDBRANCH   7   8
BRANCH   7  15
HETATM   15  C   UNK N   1      22.499  11.156   6.517  0.00  0.00    -0.021 A 
HETATM   16  C   UNK N   1      23.818  10.692   6.393  0.00  0.00     0.010 A 
HETATM   17  C   UNK N   1      24.094   9.490   5.738  0.00  0.00     0.001 A 
HETATM   18  C   UNK N   1      23.052   8.736   5.195  0.00  0.00     0.000 A 
HETATM   19  C   UNK N   1      21.735   9.189   5.301  0.00  0.00     0.001 A 
HETATM   20  C   UNK N   1      21.459  10.393   5.956  0.00  0.00     0.010 A 
ENDBRANCH   7  15
ENDBRANCH   1   7
BRANCH   2  21
HETATM   21  C   UNK N   1      22.167  16.639   5.092  0.00  0.00     0.311 C 
BRANCH  21  22
HETATM   22  C   UNK N   1      21.523  17.545   4.091  0.00  0.00    -0.030 A 
HETATM   23  C   UNK N   1      21.126  17.019   2.857  0.00  0.00     0.015 A 
HETATM   24  C   UNK N   1      20.461  17.825   1.933  0.00  0.00    -0.061 A 
HETATM   25  C   UNK N   1      20.199  19.165   2.236  0.00  0.00     0.007 A 
HETATM   26  C   UNK N   1      20.015  17.252   0.636  0.00  0.00     0.048 C 
HETATM   27  C   UNK N   1      20.602  19.695   3.466  0.00  0.00     0.001 A 
HETATM   28  C   UNK N   1      21.256  18.883   4.400  0.00  0.00     0.009 A 
ENDBRANCH  21  22
ENDBRANCH   2  21
TORSDOF 5
ENDMDL
