REMARK  12 active torsions:
REMARK  status: ('A' for Active; 'I' for Inactive)
REMARK    1  A    between atoms: O_1  and  C_12 
REMARK    2  A    between atoms: O_1  and  C_14 
REMARK    3  A    between atoms: O_2  and  C_13 
REMARK    4  A    between atoms: O_2  and  C_15 
REMARK    5  A    between atoms: N_3  and  C_26 
REMARK    6  A    between atoms: N_4  and  C_27 
REMARK    7  A    between atoms: C_9  and  C_10 
REMARK    8  A    between atoms: C_9  and  C_11 
REMARK    9  A    between atoms: C_10  and  C_12 
REMARK   10  A    between atoms: C_11  and  C_13 
REMARK   11  A    between atoms: C_20  and  C_26 
REMARK   12  A    between atoms: C_21  and  C_27 
ROOT
HETATM    1  C   UNK N   1       7.926  -1.419  -0.000  0.00  0.00     0.004 C 
ENDROOT
BRANCH   1   2
HETATM    2  C   UNK N   1       7.858  -2.918   0.000  0.00  0.00     0.027 C 
BRANCH   2   3
HETATM    3  C   UNK N   1       6.359  -3.090   0.000  0.00  0.00     0.175 C 
BRANCH   3   4
HETATM    4  O   UNK N   1       5.921  -4.389   0.000  0.00  0.00    -0.351 OA
BRANCH   4   5
HETATM    5  C   UNK N   1       4.590  -4.653   0.000  0.00  0.00     0.068 A 
HETATM    6  C   UNK N   1       3.641  -3.610   0.000  0.00  0.00     0.037 A 
HETATM    7  C   UNK N   1       2.277  -3.892   0.000  0.00  0.00     0.018 A 
HETATM    8  C   UNK N   1       1.834  -5.220  -0.000  0.00  0.00     0.007 A 
HETATM    9  C   UNK N   1       2.776  -6.259  -0.000  0.00  0.00     0.018 A 
HETATM   10  C   UNK N   1       4.147  -5.977   0.000  0.00  0.00     0.037 A 
BRANCH   8  11
HETATM   11  C   UNK N   1       0.386  -5.520  -0.000  0.00  0.00     0.102 C 
HETATM   12  N   UNK N   1      -0.476  -4.572  -0.000  0.00  0.00    -0.385 N 
HETATM   13  H   UNK N   1      -0.175  -3.634  -0.000  0.00  0.00     0.157 HD
ATOM     14  HN  UNK N   1      -1.472  -4.788  -0.000  1.00  0.00     0.157 HD
BRANCH  11  15
HETATM   15  N   UNK N   1      -0.059  -6.863  -0.000  0.00  0.00    -0.385 N 
HETATM   16  H   UNK N   1      -1.023  -7.062  -0.000  0.00  0.00     0.157 HD
HETATM   17  H   UNK N   1       0.595  -7.599  -0.000  0.00  0.00     0.157 HD
ENDBRANCH  11  15
ENDBRANCH   8  11
ENDBRANCH   4   5
ENDBRANCH   3   4
ENDBRANCH   2   3
ENDBRANCH   1   2
BRANCH   1  18
HETATM   18  C   UNK N   1       9.247  -0.702   0.000  0.00  0.00     0.027 C 
BRANCH  18  19
HETATM   19  C   UNK N   1       8.714   0.704   0.000  0.00  0.00     0.175 C 
BRANCH  19  20
HETATM   20  O   UNK N   1       9.634   1.722   0.000  0.00  0.00    -0.351 OA
BRANCH  20  21
HETATM   21  C   UNK N   1       9.183   3.004   0.000  0.00  0.00     0.068 A 
HETATM   22  C   UNK N   1      10.088   4.070  -0.000  0.00  0.00     0.037 A 
HETATM   23  C   UNK N   1       9.615   5.390  -0.000  0.00  0.00     0.018 A 
HETATM   24  C   UNK N   1       8.234   5.654  -0.000  0.00  0.00     0.007 A 
HETATM   25  C   UNK N   1       7.332   4.587   0.000  0.00  0.00     0.018 A 
HETATM   26  C   UNK N   1       7.800   3.279   0.000  0.00  0.00     0.037 A 
BRANCH  24  27
HETATM   27  C   UNK N   1       7.728   7.042  -0.000  0.00  0.00     0.102 C 
HETATM   28  N   UNK N   1       6.466   7.273  -0.000  0.00  0.00    -0.385 N 
HETATM   29  H   UNK N   1       6.135   8.200   0.000  0.00  0.00     0.157 HD
ATOM     30  HN  UNK N   1       5.805   6.496  -0.000  1.00  0.00     0.157 HD
BRANCH  27  31
HETATM   31  N   UNK N   1       8.632   8.128  -0.000  0.00  0.00    -0.385 N 
HETATM   32  H   UNK N   1       9.602   7.961  -0.000  0.00  0.00     0.157 HD
HETATM   33  H   UNK N   1       8.291   9.052  -0.000  0.00  0.00     0.157 HD
ENDBRANCH  27  31
ENDBRANCH  24  27
ENDBRANCH  20  21
ENDBRANCH  19  20
ENDBRANCH  18  19
ENDBRANCH   1  18
TORSDOF 12
