MODEL 1
REMARK VINA RESULT:      -6.0      0.000      0.000
REMARK  12 active torsions:
REMARK  status: ('A' for Active; 'I' for Inactive)
REMARK    1  A    between atoms: O_1  and  C_12 
REMARK    2  A    between atoms: O_1  and  C_14 
REMARK    3  A    between atoms: O_2  and  C_13 
REMARK    4  A    between atoms: O_2  and  C_15 
REMARK    5  A    between atoms: N_3  and  C_26 
REMARK    6  A    between atoms: N_4  and  C_27 
REMARK    7  A    between atoms: C_9  and  C_10 
REMARK    8  A    between atoms: C_9  and  C_11 
REMARK    9  A    between atoms: C_10  and  C_12 
REMARK   10  A    between atoms: C_11  and  C_13 
REMARK   11  A    between atoms: C_20  and  C_26 
REMARK   12  A    between atoms: C_21  and  C_27 
ROOT
HETATM    1  C   UNK N   1      28.867  29.270  -3.427  0.00  0.00     0.004 C 
ENDROOT
BRANCH   1   2
HETATM    2  C   UNK N   1      27.740  29.412  -2.447  0.00  0.00     0.027 C 
BRANCH   2   3
HETATM    3  C   UNK N   1      26.579  29.360  -3.409  0.00  0.00     0.175 C 
BRANCH   3   4
HETATM    4  O   UNK N   1      25.693  28.335  -3.201  0.00  0.00    -0.351 OA
BRANCH   4   5
HETATM    5  C   UNK N   1      25.825  27.177  -3.896  0.00  0.00     0.068 A 
HETATM    6  C   UNK N   1      26.546  26.087  -3.366  0.00  0.00     0.037 A 
HETATM    7  C   UNK N   1      26.675  24.903  -4.088  0.00  0.00     0.018 A 
HETATM    8  C   UNK N   1      26.087  24.784  -5.353  0.00  0.00     0.007 A 
HETATM    9  C   UNK N   1      25.370  25.867  -5.883  0.00  0.00     0.018 A 
HETATM   10  C   UNK N   1      25.240  27.057  -5.158  0.00  0.00     0.037 A 
BRANCH   8  11
HETATM   11  C   UNK N   1      26.224  23.527  -6.120  0.00  0.00     0.102 C 
HETATM   12  N   UNK N   1      27.377  23.002  -6.311  0.00  0.00    -0.385 N 
HETATM   13  H   UNK N   1      28.182  23.437  -5.944  0.00  0.00     0.157 HD
ATOM     14  HN  UNK N   1      27.462  22.136  -6.841  1.00  0.00     0.157 HD
BRANCH  11  15
HETATM   15  N   UNK N   1      25.076  22.894  -6.652  0.00  0.00    -0.385 N 
HETATM   16  H   UNK N   1      24.900  21.946  -6.451  0.00  0.00     0.157 HD
HETATM   17  H   UNK N   1      24.454  23.399  -7.223  0.00  0.00     0.157 HD
ENDBRANCH  11  15
ENDBRANCH   8  11
ENDBRANCH   4   5
ENDBRANCH   3   4
ENDBRANCH   2   3
ENDBRANCH   1   2
BRANCH   1  18
HETATM   18  C   UNK N   1      30.107  28.495  -3.076  0.00  0.00     0.027 C 
BRANCH  18  19
HETATM   19  C   UNK N   1      29.925  27.369  -4.055  0.00  0.00     0.175 C 
BRANCH  19  20
HETATM   20  O   UNK N   1      31.061  26.776  -4.545  0.00  0.00    -0.351 OA
BRANCH  20  21
HETATM   21  C   UNK N   1      31.289  25.468  -4.251  0.00  0.00     0.068 A 
HETATM   22  C   UNK N   1      32.340  24.780  -4.865  0.00  0.00     0.037 A 
HETATM   23  C   UNK N   1      32.569  23.432  -4.556  0.00  0.00     0.018 A 
HETATM   24  C   UNK N   1      31.748  22.761  -3.632  0.00  0.00     0.007 A 
HETATM   25  C   UNK N   1      30.698  23.451  -3.021  0.00  0.00     0.018 A 
HETATM   26  C   UNK N   1      30.471  24.787  -3.326  0.00  0.00     0.037 A 
BRANCH  24  27
HETATM   27  C   UNK N   1      31.982  21.340  -3.302  0.00  0.00     0.102 C 
HETATM   28  N   UNK N   1      31.161  20.438  -3.698  0.00  0.00    -0.385 N 
HETATM   29  H   UNK N   1      31.323  19.493  -3.475  0.00  0.00     0.157 HD
ATOM     30  HN  UNK N   1      30.340  20.699  -4.244  1.00  0.00     0.157 HD
BRANCH  27  31
HETATM   31  N   UNK N   1      33.115  20.964  -2.546  0.00  0.00    -0.385 N 
HETATM   32  H   UNK N   1      33.408  21.520  -1.788  0.00  0.00     0.157 HD
HETATM   33  H   UNK N   1      33.612  20.146  -2.778  0.00  0.00     0.157 HD
ENDBRANCH  27  31
ENDBRANCH  24  27
ENDBRANCH  20  21
ENDBRANCH  19  20
ENDBRANCH  18  19
ENDBRANCH   1  18
TORSDOF 12
ENDMDL
MODEL 2
REMARK VINA RESULT:      -6.0      1.620      5.393
REMARK  12 active torsions:
REMARK  status: ('A' for Active; 'I' for Inactive)
REMARK    1  A    between atoms: O_1  and  C_12 
REMARK    2  A    between atoms: O_1  and  C_14 
REMARK    3  A    between atoms: O_2  and  C_13 
REMARK    4  A    between atoms: O_2  and  C_15 
REMARK    5  A    between atoms: N_3  and  C_26 
REMARK    6  A    between atoms: N_4  and  C_27 
REMARK    7  A    between atoms: C_9  and  C_10 
REMARK    8  A    between atoms: C_9  and  C_11 
REMARK    9  A    between atoms: C_10  and  C_12 
REMARK   10  A    between atoms: C_11  and  C_13 
REMARK   11  A    between atoms: C_20  and  C_26 
REMARK   12  A    between atoms: C_21  and  C_27 
ROOT
HETATM    1  C   UNK N   1      27.867  30.032  -5.020  0.00  0.00     0.004 C 
ENDROOT
BRANCH   1   2
HETATM    2  C   UNK N   1      27.880  29.240  -6.295  0.00  0.00     0.027 C 
BRANCH   2   3
HETATM    3  C   UNK N   1      29.264  28.648  -6.194  0.00  0.00     0.175 C 
BRANCH   3   4
HETATM    4  O   UNK N   1      29.376  27.351  -6.625  0.00  0.00    -0.351 OA
BRANCH   4   5
HETATM    5  C   UNK N   1      29.679  26.369  -5.739  0.00  0.00     0.068 A 
HETATM    6  C   UNK N   1      29.957  26.667  -4.389  0.00  0.00     0.037 A 
HETATM    7  C   UNK N   1      30.266  25.651  -3.487  0.00  0.00     0.018 A 
HETATM    8  C   UNK N   1      30.304  24.319  -3.916  0.00  0.00     0.007 A 
HETATM    9  C   UNK N   1      30.028  24.020  -5.258  0.00  0.00     0.018 A 
HETATM   10  C   UNK N   1      29.717  25.040  -6.165  0.00  0.00     0.037 A 
BRANCH   8  11
HETATM   11  C   UNK N   1      30.633  23.240  -2.959  0.00  0.00     0.102 C 
HETATM   12  N   UNK N   1      31.684  22.526  -3.118  0.00  0.00    -0.385 N 
HETATM   13  H   UNK N   1      32.282  22.694  -3.883  0.00  0.00     0.157 HD
ATOM     14  HN  UNK N   1      31.903  21.784  -2.454  1.00  0.00     0.157 HD
BRANCH  11  15
HETATM   15  N   UNK N   1      29.783  22.989  -1.856  0.00  0.00    -0.385 N 
HETATM   16  H   UNK N   1      29.475  23.734  -1.292  0.00  0.00     0.157 HD
HETATM   17  H   UNK N   1      29.500  22.068  -1.652  0.00  0.00     0.157 HD
ENDBRANCH  11  15
ENDBRANCH   8  11
ENDBRANCH   4   5
ENDBRANCH   3   4
ENDBRANCH   2   3
ENDBRANCH   1   2
BRANCH   1  18
HETATM   18  C   UNK N   1      26.649  30.068  -4.141  0.00  0.00     0.027 C 
BRANCH  18  19
HETATM   19  C   UNK N   1      26.936  28.823  -3.348  0.00  0.00     0.175 C 
BRANCH  19  20
HETATM   20  O   UNK N   1      25.921  27.906  -3.234  0.00  0.00    -0.351 OA
BRANCH  20  21
HETATM   21  C   UNK N   1      25.945  26.809  -4.036  0.00  0.00     0.068 A 
HETATM   22  C   UNK N   1      25.431  26.874  -5.335  0.00  0.00     0.037 A 
HETATM   23  C   UNK N   1      25.458  25.738  -6.157  0.00  0.00     0.018 A 
HETATM   24  C   UNK N   1      26.000  24.529  -5.686  0.00  0.00     0.007 A 
HETATM   25  C   UNK N   1      26.514  24.467  -4.388  0.00  0.00     0.018 A 
HETATM   26  C   UNK N   1      26.486  25.592  -3.573  0.00  0.00     0.037 A 
BRANCH  24  27
HETATM   27  C   UNK N   1      26.033  23.328  -6.546  0.00  0.00     0.102 C 
HETATM   28  N   UNK N   1      26.990  23.155  -7.383  0.00  0.00    -0.385 N 
HETATM   29  H   UNK N   1      27.007  22.353  -7.953  0.00  0.00     0.157 HD
ATOM     30  HN  UNK N   1      27.735  23.849  -7.458  1.00  0.00     0.157 HD
BRANCH  27  31
HETATM   31  N   UNK N   1      25.009  22.360  -6.453  0.00  0.00    -0.385 N 
HETATM   32  H   UNK N   1      24.547  22.212  -5.597  0.00  0.00     0.157 HD
HETATM   33  H   UNK N   1      24.758  21.832  -7.246  0.00  0.00     0.157 HD
ENDBRANCH  27  31
ENDBRANCH  24  27
ENDBRANCH  20  21
ENDBRANCH  19  20
ENDBRANCH  18  19
ENDBRANCH   1  18
TORSDOF 12
ENDMDL
MODEL 3
REMARK VINA RESULT:      -6.0      1.605      2.030
REMARK  12 active torsions:
REMARK  status: ('A' for Active; 'I' for Inactive)
REMARK    1  A    between atoms: O_1  and  C_12 
REMARK    2  A    between atoms: O_1  and  C_14 
REMARK    3  A    between atoms: O_2  and  C_13 
REMARK    4  A    between atoms: O_2  and  C_15 
REMARK    5  A    between atoms: N_3  and  C_26 
REMARK    6  A    between atoms: N_4  and  C_27 
REMARK    7  A    between atoms: C_9  and  C_10 
REMARK    8  A    between atoms: C_9  and  C_11 
REMARK    9  A    between atoms: C_10  and  C_12 
REMARK   10  A    between atoms: C_11  and  C_13 
REMARK   11  A    between atoms: C_20  and  C_26 
REMARK   12  A    between atoms: C_21  and  C_27 
ROOT
HETATM    1  C   UNK N   1      27.717  30.091  -5.237  0.00  0.00     0.004 C 
ENDROOT
BRANCH   1   2
HETATM    2  C   UNK N   1      27.776  29.541  -3.842  0.00  0.00     0.027 C 
BRANCH   2   3
HETATM    3  C   UNK N   1      26.298  29.498  -3.540  0.00  0.00     0.175 C 
BRANCH   3   4
HETATM    4  O   UNK N   1      25.822  28.278  -3.135  0.00  0.00    -0.351 OA
BRANCH   4   5
HETATM    5  C   UNK N   1      25.860  27.221  -3.986  0.00  0.00     0.068 A 
HETATM    6  C   UNK N   1      26.530  26.031  -3.638  0.00  0.00     0.037 A 
HETATM    7  C   UNK N   1      26.563  24.952  -4.519  0.00  0.00     0.018 A 
HETATM    8  C   UNK N   1      25.928  25.041  -5.763  0.00  0.00     0.007 A 
HETATM    9  C   UNK N   1      25.260  26.224  -6.111  0.00  0.00     0.018 A 
HETATM   10  C   UNK N   1      25.226  27.309  -5.227  0.00  0.00     0.037 A 
BRANCH   8  11
HETATM   11  C   UNK N   1      25.963  23.896  -6.699  0.00  0.00     0.102 C 
HETATM   12  N   UNK N   1      25.186  23.863  -7.717  0.00  0.00    -0.385 N 
HETATM   13  H   UNK N   1      24.559  24.605  -7.881  0.00  0.00     0.157 HD
ATOM     14  HN  UNK N   1      25.217  23.070  -8.357  1.00  0.00     0.157 HD
BRANCH  11  15
HETATM   15  N   UNK N   1      26.859  22.825  -6.474  0.00  0.00    -0.385 N 
HETATM   16  H   UNK N   1      27.784  23.008  -6.190  0.00  0.00     0.157 HD
HETATM   17  H   UNK N   1      26.558  21.896  -6.601  0.00  0.00     0.157 HD
ENDBRANCH  11  15
ENDBRANCH   8  11
ENDBRANCH   4   5
ENDBRANCH   3   4
ENDBRANCH   2   3
ENDBRANCH   1   2
BRANCH   1  18
HETATM   18  C   UNK N   1      28.781  29.761  -6.247  0.00  0.00     0.027 C 
BRANCH  18  19
HETATM   19  C   UNK N   1      28.536  28.279  -6.321  0.00  0.00     0.175 C 
BRANCH  19  20
HETATM   20  O   UNK N   1      29.624  27.476  -6.556  0.00  0.00    -0.351 OA
BRANCH  20  21
HETATM   21  C   UNK N   1      29.872  26.451  -5.698  0.00  0.00     0.068 A 
HETATM   22  C   UNK N   1      29.797  25.127  -6.142  0.00  0.00     0.037 A 
HETATM   23  C   UNK N   1      30.054  24.075  -5.251  0.00  0.00     0.018 A 
HETATM   24  C   UNK N   1      30.387  24.339  -3.911  0.00  0.00     0.007 A 
HETATM   25  C   UNK N   1      30.461  25.663  -3.471  0.00  0.00     0.018 A 
HETATM   26  C   UNK N   1      30.207  26.706  -4.353  0.00  0.00     0.037 A 
BRANCH  24  27
HETATM   27  C   UNK N   1      30.659  23.236  -2.966  0.00  0.00     0.102 C 
HETATM   28  N   UNK N   1      29.854  22.998  -1.996  0.00  0.00    -0.385 N 
HETATM   29  H   UNK N   1      30.040  22.262  -1.370  0.00  0.00     0.157 HD
ATOM     30  HN  UNK N   1      29.019  23.573  -1.873  1.00  0.00     0.157 HD
BRANCH  27  31
HETATM   31  N   UNK N   1      31.811  22.433  -3.124  0.00  0.00    -0.385 N 
HETATM   32  H   UNK N   1      32.677  22.850  -3.332  0.00  0.00     0.157 HD
HETATM   33  H   UNK N   1      31.745  21.455  -3.027  0.00  0.00     0.157 HD
ENDBRANCH  27  31
ENDBRANCH  24  27
ENDBRANCH  20  21
ENDBRANCH  19  20
ENDBRANCH  18  19
ENDBRANCH   1  18
TORSDOF 12
ENDMDL
MODEL 4
REMARK VINA RESULT:      -6.0     11.061     14.452
REMARK  12 active torsions:
REMARK  status: ('A' for Active; 'I' for Inactive)
REMARK    1  A    between atoms: O_1  and  C_12 
REMARK    2  A    between atoms: O_1  and  C_14 
REMARK    3  A    between atoms: O_2  and  C_13 
REMARK    4  A    between atoms: O_2  and  C_15 
REMARK    5  A    between atoms: N_3  and  C_26 
REMARK    6  A    between atoms: N_4  and  C_27 
REMARK    7  A    between atoms: C_9  and  C_10 
REMARK    8  A    between atoms: C_9  and  C_11 
REMARK    9  A    between atoms: C_10  and  C_12 
REMARK   10  A    between atoms: C_11  and  C_13 
REMARK   11  A    between atoms: C_20  and  C_26 
REMARK   12  A    between atoms: C_21  and  C_27 
ROOT
HETATM    1  C   UNK N   1      26.581  19.851   4.909  0.00  0.00     0.004 C 
ENDROOT
BRANCH   1   2
HETATM    2  C   UNK N   1      27.827  19.685   5.729  0.00  0.00     0.027 C 
BRANCH   2   3
HETATM    3  C   UNK N   1      28.265  18.331   5.228  0.00  0.00     0.175 C 
BRANCH   3   4
HETATM    4  O   UNK N   1      28.581  17.423   6.205  0.00  0.00    -0.351 OA
BRANCH   4   5
HETATM    5  C   UNK N   1      29.798  17.469   6.802  0.00  0.00     0.068 A 
HETATM    6  C   UNK N   1      30.963  17.075   6.112  0.00  0.00     0.037 A 
HETATM    7  C   UNK N   1      32.208  17.127   6.735  0.00  0.00     0.018 A 
HETATM    8  C   UNK N   1      32.314  17.573   8.058  0.00  0.00     0.007 A 
HETATM    9  C   UNK N   1      31.157  17.965   8.746  0.00  0.00     0.018 A 
HETATM   10  C   UNK N   1      29.905  17.913   8.121  0.00  0.00     0.037 A 
BRANCH   8  11
HETATM   11  C   UNK N   1      33.636  17.628   8.719  0.00  0.00     0.102 C 
HETATM   12  N   UNK N   1      33.939  16.789   9.640  0.00  0.00    -0.385 N 
HETATM   13  H   UNK N   1      33.289  16.101   9.911  0.00  0.00     0.157 HD
ATOM     14  HN  UNK N   1      34.852  16.835  10.090  1.00  0.00     0.157 HD
BRANCH  11  15
HETATM   15  N   UNK N   1      34.578  18.612   8.338  0.00  0.00    -0.385 N 
HETATM   16  H   UNK N   1      34.274  19.516   8.096  0.00  0.00     0.157 HD
HETATM   17  H   UNK N   1      35.538  18.392   8.315  0.00  0.00     0.157 HD
ENDBRANCH  11  15
ENDBRANCH   8  11
ENDBRANCH   4   5
ENDBRANCH   3   4
ENDBRANCH   2   3
ENDBRANCH   1   2
BRANCH   1  18
HETATM   18  C   UNK N   1      26.530  19.404   3.475  0.00  0.00     0.027 C 
BRANCH  18  19
HETATM   19  C   UNK N   1      25.509  20.396   2.990  0.00  0.00     0.175 C 
BRANCH  19  20
HETATM   20  O   UNK N   1      24.397  20.582   3.772  0.00  0.00    -0.351 OA
BRANCH  20  21
HETATM   21  C   UNK N   1      23.243  19.958   3.418  0.00  0.00     0.068 A 
HETATM   22  C   UNK N   1      22.933  18.699   3.942  0.00  0.00     0.037 A 
HETATM   23  C   UNK N   1      21.740  18.061   3.572  0.00  0.00     0.018 A 
HETATM   24  C   UNK N   1      20.849  18.677   2.675  0.00  0.00     0.007 A 
HETATM   25  C   UNK N   1      21.162  19.935   2.153  0.00  0.00     0.018 A 
HETATM   26  C   UNK N   1      22.343  20.567   2.519  0.00  0.00     0.037 A 
BRANCH  24  27
HETATM   27  C   UNK N   1      19.591  18.011   2.280  0.00  0.00     0.102 C 
HETATM   28  N   UNK N   1      18.483  18.658   2.293  0.00  0.00    -0.385 N 
HETATM   29  H   UNK N   1      17.648  18.209   2.029  0.00  0.00     0.157 HD
ATOM     30  HN  UNK N   1      18.467  19.637   2.576  1.00  0.00     0.157 HD
BRANCH  27  31
HETATM   31  N   UNK N   1      19.598  16.655   1.885  0.00  0.00    -0.385 N 
HETATM   32  H   UNK N   1      20.373  16.085   2.094  0.00  0.00     0.157 HD
HETATM   33  H   UNK N   1      18.827  16.279   1.401  0.00  0.00     0.157 HD
ENDBRANCH  27  31
ENDBRANCH  24  27
ENDBRANCH  20  21
ENDBRANCH  19  20
ENDBRANCH  18  19
ENDBRANCH   1  18
TORSDOF 12
ENDMDL
MODEL 5
REMARK VINA RESULT:      -5.9     18.425     21.351
REMARK  12 active torsions:
REMARK  status: ('A' for Active; 'I' for Inactive)
REMARK    1  A    between atoms: O_1  and  C_12 
REMARK    2  A    between atoms: O_1  and  C_14 
REMARK    3  A    between atoms: O_2  and  C_13 
REMARK    4  A    between atoms: O_2  and  C_15 
REMARK    5  A    between atoms: N_3  and  C_26 
REMARK    6  A    between atoms: N_4  and  C_27 
REMARK    7  A    between atoms: C_9  and  C_10 
REMARK    8  A    between atoms: C_9  and  C_11 
REMARK    9  A    between atoms: C_10  and  C_12 
REMARK   10  A    between atoms: C_11  and  C_13 
REMARK   11  A    between atoms: C_20  and  C_26 
REMARK   12  A    between atoms: C_21  and  C_27 
ROOT
HETATM    1  C   UNK N   1      36.246  14.211  11.988  0.00  0.00     0.004 C 
ENDROOT
BRANCH   1   2
HETATM    2  C   UNK N   1      35.792  15.641  12.021  0.00  0.00     0.027 C 
BRANCH   2   3
HETATM    3  C   UNK N   1      36.001  15.993  10.569  0.00  0.00     0.175 C 
BRANCH   3   4
HETATM    4  O   UNK N   1      35.394  17.151  10.156  0.00  0.00    -0.351 OA
BRANCH   4   5
HETATM    5  C   UNK N   1      34.454  17.108   9.179  0.00  0.00     0.068 A 
HETATM    6  C   UNK N   1      34.517  17.977   8.070  0.00  0.00     0.037 A 
HETATM    7  C   UNK N   1      33.546  17.926   7.072  0.00  0.00     0.018 A 
HETATM    8  C   UNK N   1      32.494  17.006   7.162  0.00  0.00     0.007 A 
HETATM    9  C   UNK N   1      32.429  16.141   8.264  0.00  0.00     0.018 A 
HETATM   10  C   UNK N   1      33.404  16.192   9.267  0.00  0.00     0.037 A 
BRANCH   8  11
HETATM   11  C   UNK N   1      31.463  16.951   6.103  0.00  0.00     0.102 C 
HETATM   12  N   UNK N   1      30.310  16.448   6.343  0.00  0.00    -0.385 N 
HETATM   13  H   UNK N   1      30.104  16.093   7.238  0.00  0.00     0.157 HD
ATOM     14  HN  UNK N   1      29.605  16.414   5.607  1.00  0.00     0.157 HD
BRANCH  11  15
HETATM   15  N   UNK N   1      31.746  17.457   4.813  0.00  0.00    -0.385 N 
HETATM   16  H   UNK N   1      32.665  17.720   4.578  0.00  0.00     0.157 HD
HETATM   17  H   UNK N   1      31.024  17.547   4.149  0.00  0.00     0.157 HD
ENDBRANCH  11  15
ENDBRANCH   8  11
ENDBRANCH   4   5
ENDBRANCH   3   4
ENDBRANCH   2   3
ENDBRANCH   1   2
BRANCH   1  18
HETATM   18  C   UNK N   1      35.255  13.084  11.896  0.00  0.00     0.027 C 
BRANCH  18  19
HETATM   19  C   UNK N   1      35.497  12.491  13.256  0.00  0.00     0.175 C 
BRANCH  19  20
HETATM   20  O   UNK N   1      34.437  12.468  14.126  0.00  0.00    -0.351 OA
BRANCH  20  21
HETATM   21  C   UNK N   1      34.681  12.220  15.440  0.00  0.00     0.068 A 
HETATM   22  C   UNK N   1      34.769  10.904  15.904  0.00  0.00     0.037 A 
HETATM   23  C   UNK N   1      35.021  10.655  17.261  0.00  0.00     0.018 A 
HETATM   24  C   UNK N   1      35.187  11.720  18.163  0.00  0.00     0.007 A 
HETATM   25  C   UNK N   1      35.099  13.034  17.697  0.00  0.00     0.018 A 
HETATM   26  C   UNK N   1      34.849  13.281  16.353  0.00  0.00     0.037 A 
BRANCH  24  27
HETATM   27  C   UNK N   1      35.453  11.467  19.594  0.00  0.00     0.102 C 
HETATM   28  N   UNK N   1      35.847  12.418  20.360  0.00  0.00    -0.385 N 
HETATM   29  H   UNK N   1      36.023  12.242  21.312  0.00  0.00     0.157 HD
ATOM     30  HN  UNK N   1      35.979  13.356  19.982  1.00  0.00     0.157 HD
BRANCH  27  31
HETATM   31  N   UNK N   1      35.275  10.172  20.132  0.00  0.00    -0.385 N 
HETATM   32  H   UNK N   1      35.982   9.495  20.028  0.00  0.00     0.157 HD
HETATM   33  H   UNK N   1      34.443   9.948  20.610  0.00  0.00     0.157 HD
ENDBRANCH  27  31
ENDBRANCH  24  27
ENDBRANCH  20  21
ENDBRANCH  19  20
ENDBRANCH  18  19
ENDBRANCH   1  18
TORSDOF 12
ENDMDL
MODEL 6
REMARK VINA RESULT:      -5.9     18.406     21.455
REMARK  12 active torsions:
REMARK  status: ('A' for Active; 'I' for Inactive)
REMARK    1  A    between atoms: O_1  and  C_12 
REMARK    2  A    between atoms: O_1  and  C_14 
REMARK    3  A    between atoms: O_2  and  C_13 
REMARK    4  A    between atoms: O_2  and  C_15 
REMARK    5  A    between atoms: N_3  and  C_26 
REMARK    6  A    between atoms: N_4  and  C_27 
REMARK    7  A    between atoms: C_9  and  C_10 
REMARK    8  A    between atoms: C_9  and  C_11 
REMARK    9  A    between atoms: C_10  and  C_12 
REMARK   10  A    between atoms: C_11  and  C_13 
REMARK   11  A    between atoms: C_20  and  C_26 
REMARK   12  A    between atoms: C_21  and  C_27 
ROOT
HETATM    1  C   UNK N   1      34.900  14.240  11.902  0.00  0.00     0.004 C 
ENDROOT
BRANCH   1   2
HETATM    2  C   UNK N   1      35.785  15.392  12.279  0.00  0.00     0.027 C 
BRANCH   2   3
HETATM    3  C   UNK N   1      36.172  15.859  10.897  0.00  0.00     0.175 C 
BRANCH   3   4
HETATM    4  O   UNK N   1      35.411  16.882  10.393  0.00  0.00    -0.351 OA
BRANCH   4   5
HETATM    5  C   UNK N   1      34.946  16.813   9.120  0.00  0.00     0.068 A 
HETATM    6  C   UNK N   1      34.961  15.599   8.404  0.00  0.00     0.037 A 
HETATM    7  C   UNK N   1      34.481  15.539   7.098  0.00  0.00     0.018 A 
HETATM    8  C   UNK N   1      33.977  16.691   6.481  0.00  0.00     0.007 A 
HETATM    9  C   UNK N   1      33.962  17.900   7.191  0.00  0.00     0.018 A 
HETATM   10  C   UNK N   1      34.443  17.961   8.504  0.00  0.00     0.037 A 
BRANCH   8  11
HETATM   11  C   UNK N   1      33.468  16.629   5.094  0.00  0.00     0.102 C 
HETATM   12  N   UNK N   1      33.703  15.606   4.359  0.00  0.00    -0.385 N 
HETATM   13  H   UNK N   1      34.227  14.853   4.717  0.00  0.00     0.157 HD
ATOM     14  HN  UNK N   1      33.348  15.572   3.404  1.00  0.00     0.157 HD
BRANCH  11  15
HETATM   15  N   UNK N   1      32.714  17.704   4.568  0.00  0.00    -0.385 N 
HETATM   16  H   UNK N   1      33.086  18.615   4.573  0.00  0.00     0.157 HD
HETATM   17  H   UNK N   1      31.817  17.541   4.196  0.00  0.00     0.157 HD
ENDBRANCH  11  15
ENDBRANCH   8  11
ENDBRANCH   4   5
ENDBRANCH   3   4
ENDBRANCH   2   3
ENDBRANCH   1   2
BRANCH   1  18
HETATM   18  C   UNK N   1      35.415  12.828  11.917  0.00  0.00     0.027 C 
BRANCH  18  19
HETATM   19  C   UNK N   1      35.039  12.491  13.334  0.00  0.00     0.175 C 
BRANCH  19  20
HETATM   20  O   UNK N   1      36.053  12.117  14.179  0.00  0.00    -0.351 OA
BRANCH  20  21
HETATM   21  C   UNK N   1      35.836  12.175  15.519  0.00  0.00     0.068 A 
HETATM   22  C   UNK N   1      35.473  13.383  16.123  0.00  0.00     0.037 A 
HETATM   23  C   UNK N   1      35.250  13.434  17.506  0.00  0.00     0.018 A 
HETATM   24  C   UNK N   1      35.388  12.279  18.296  0.00  0.00     0.007 A 
HETATM   25  C   UNK N   1      35.751  11.074  17.690  0.00  0.00     0.018 A 
HETATM   26  C   UNK N   1      35.971  11.022  16.319  0.00  0.00     0.037 A 
BRANCH  24  27
HETATM   27  C   UNK N   1      35.155  12.326  19.754  0.00  0.00     0.102 C 
HETATM   28  N   UNK N   1      34.713  13.396  20.307  0.00  0.00    -0.385 N 
HETATM   29  H   UNK N   1      34.560  13.421  21.279  0.00  0.00     0.157 HD
ATOM     30  HN  UNK N   1      34.520  14.221  19.740  1.00  0.00     0.157 HD
BRANCH  27  31
HETATM   31  N   UNK N   1      35.418  11.190  20.552  0.00  0.00    -0.385 N 
HETATM   32  H   UNK N   1      36.280  11.106  21.020  0.00  0.00     0.157 HD
HETATM   33  H   UNK N   1      34.738  10.483  20.640  0.00  0.00     0.157 HD
ENDBRANCH  27  31
ENDBRANCH  24  27
ENDBRANCH  20  21
ENDBRANCH  19  20
ENDBRANCH  18  19
ENDBRANCH   1  18
TORSDOF 12
ENDMDL
MODEL 7
REMARK VINA RESULT:      -5.9     16.775     19.652
REMARK  12 active torsions:
REMARK  status: ('A' for Active; 'I' for Inactive)
REMARK    1  A    between atoms: O_1  and  C_12 
REMARK    2  A    between atoms: O_1  and  C_14 
REMARK    3  A    between atoms: O_2  and  C_13 
REMARK    4  A    between atoms: O_2  and  C_15 
REMARK    5  A    between atoms: N_3  and  C_26 
REMARK    6  A    between atoms: N_4  and  C_27 
REMARK    7  A    between atoms: C_9  and  C_10 
REMARK    8  A    between atoms: C_9  and  C_11 
REMARK    9  A    between atoms: C_10  and  C_12 
REMARK   10  A    between atoms: C_11  and  C_13 
REMARK   11  A    between atoms: C_20  and  C_26 
REMARK   12  A    between atoms: C_21  and  C_27 
ROOT
HETATM    1  C   UNK N   1      36.119  14.979  10.725  0.00  0.00     0.004 C 
ENDROOT
BRANCH   1   2
HETATM    2  C   UNK N   1      35.467  16.314  10.932  0.00  0.00     0.027 C 
BRANCH   2   3
HETATM    3  C   UNK N   1      35.058  16.605   9.509  0.00  0.00     0.175 C 
BRANCH   3   4
HETATM    4  O   UNK N   1      33.801  17.131   9.359  0.00  0.00    -0.351 OA
BRANCH   4   5
HETATM    5  C   UNK N   1      33.240  17.198   8.126  0.00  0.00     0.068 A 
HETATM    6  C   UNK N   1      34.025  17.451   6.982  0.00  0.00     0.037 A 
HETATM    7  C   UNK N   1      33.438  17.518   5.720  0.00  0.00     0.018 A 
HETATM    8  C   UNK N   1      32.058  17.333   5.576  0.00  0.00     0.007 A 
HETATM    9  C   UNK N   1      31.276  17.081   6.712  0.00  0.00     0.018 A 
HETATM   10  C   UNK N   1      31.864  17.013   7.980  0.00  0.00     0.037 A 
BRANCH   8  11
HETATM   11  C   UNK N   1      31.435  17.404   4.236  0.00  0.00     0.102 C 
HETATM   12  N   UNK N   1      32.152  17.309   3.178  0.00  0.00    -0.385 N 
HETATM   13  H   UNK N   1      33.127  17.187   3.254  0.00  0.00     0.157 HD
ATOM     14  HN  UNK N   1      31.714  17.359   2.259  1.00  0.00     0.157 HD
BRANCH  11  15
HETATM   15  N   UNK N   1      30.037  17.578   4.114  0.00  0.00    -0.385 N 
HETATM   16  H   UNK N   1      29.450  16.794   4.018  0.00  0.00     0.157 HD
HETATM   17  H   UNK N   1      29.650  18.483   4.125  0.00  0.00     0.157 HD
ENDBRANCH  11  15
ENDBRANCH   8  11
ENDBRANCH   4   5
ENDBRANCH   3   4
ENDBRANCH   2   3
ENDBRANCH   1   2
BRANCH   1  18
HETATM   18  C   UNK N   1      35.327  13.795  10.246  0.00  0.00     0.027 C 
BRANCH  18  19
HETATM   19  C   UNK N   1      34.863  13.304  11.589  0.00  0.00     0.175 C 
BRANCH  19  20
HETATM   20  O   UNK N   1      35.808  12.742  12.410  0.00  0.00    -0.351 OA
BRANCH  20  21
HETATM   21  C   UNK N   1      35.703  12.938  13.751  0.00  0.00     0.068 A 
HETATM   22  C   UNK N   1      36.576  13.812  14.406  0.00  0.00     0.037 A 
HETATM   23  C   UNK N   1      36.461  14.010  15.789  0.00  0.00     0.018 A 
HETATM   24  C   UNK N   1      35.473  13.336  16.528  0.00  0.00     0.007 A 
HETATM   25  C   UNK N   1      34.601  12.463  15.871  0.00  0.00     0.018 A 
HETATM   26  C   UNK N   1      34.715  12.267  14.500  0.00  0.00     0.037 A 
BRANCH  24  27
HETATM   27  C   UNK N   1      35.345  13.539  17.986  0.00  0.00     0.102 C 
HETATM   28  N   UNK N   1      35.345  14.724  18.478  0.00  0.00    -0.385 N 
HETATM   29  H   UNK N   1      35.260  14.853  19.450  0.00  0.00     0.157 HD
ATOM     30  HN  UNK N   1      35.433  15.533  17.863  1.00  0.00     0.157 HD
BRANCH  27  31
HETATM   31  N   UNK N   1      35.223  12.428  18.850  0.00  0.00    -0.385 N 
HETATM   32  H   UNK N   1      35.601  11.558  18.589  0.00  0.00     0.157 HD
HETATM   33  H   UNK N   1      34.760  12.526  19.714  0.00  0.00     0.157 HD
ENDBRANCH  27  31
ENDBRANCH  24  27
ENDBRANCH  20  21
ENDBRANCH  19  20
ENDBRANCH  18  19
ENDBRANCH   1  18
TORSDOF 12
ENDMDL
MODEL 8
REMARK VINA RESULT:      -5.8     16.961     20.772
REMARK  12 active torsions:
REMARK  status: ('A' for Active; 'I' for Inactive)
REMARK    1  A    between atoms: O_1  and  C_12 
REMARK    2  A    between atoms: O_1  and  C_14 
REMARK    3  A    between atoms: O_2  and  C_13 
REMARK    4  A    between atoms: O_2  and  C_15 
REMARK    5  A    between atoms: N_3  and  C_26 
REMARK    6  A    between atoms: N_4  and  C_27 
REMARK    7  A    between atoms: C_9  and  C_10 
REMARK    8  A    between atoms: C_9  and  C_11 
REMARK    9  A    between atoms: C_10  and  C_12 
REMARK   10  A    between atoms: C_11  and  C_13 
REMARK   11  A    between atoms: C_20  and  C_26 
REMARK   12  A    between atoms: C_21  and  C_27 
ROOT
HETATM    1  C   UNK N   1      35.405  14.111  10.564  0.00  0.00     0.004 C 
ENDROOT
BRANCH   1   2
HETATM    2  C   UNK N   1      36.621  13.231  10.570  0.00  0.00     0.027 C 
BRANCH   2   3
HETATM    3  C   UNK N   1      36.899  13.218  12.053  0.00  0.00     0.175 C 
BRANCH   3   4
HETATM    4  O   UNK N   1      35.925  12.638  12.824  0.00  0.00    -0.351 OA
BRANCH   4   5
HETATM    5  C   UNK N   1      35.797  12.991  14.128  0.00  0.00     0.068 A 
HETATM    6  C   UNK N   1      36.695  13.897  14.729  0.00  0.00     0.037 A 
HETATM    7  C   UNK N   1      36.555  14.252  16.068  0.00  0.00     0.018 A 
HETATM    8  C   UNK N   1      35.516  13.709  16.834  0.00  0.00     0.007 A 
HETATM    9  C   UNK N   1      34.623  12.807  16.239  0.00  0.00     0.018 A 
HETATM   10  C   UNK N   1      34.762  12.449  14.893  0.00  0.00     0.037 A 
BRANCH   8  11
HETATM   11  C   UNK N   1      35.367  14.085  18.256  0.00  0.00     0.102 C 
HETATM   12  N   UNK N   1      35.353  15.318  18.606  0.00  0.00    -0.385 N 
HETATM   13  H   UNK N   1      35.441  16.023  17.925  0.00  0.00     0.157 HD
ATOM     14  HN  UNK N   1      35.249  15.568  19.589  1.00  0.00     0.157 HD
BRANCH  11  15
HETATM   15  N   UNK N   1      35.239  13.081  19.245  0.00  0.00    -0.385 N 
HETATM   16  H   UNK N   1      36.043  12.696  19.662  0.00  0.00     0.157 HD
HETATM   17  H   UNK N   1      34.346  12.767  19.516  0.00  0.00     0.157 HD
ENDBRANCH  11  15
ENDBRANCH   8  11
ENDBRANCH   4   5
ENDBRANCH   3   4
ENDBRANCH   2   3
ENDBRANCH   1   2
BRANCH   1  18
HETATM   18  C   UNK N   1      35.531  15.608  10.548  0.00  0.00     0.027 C 
BRANCH  18  19
HETATM   19  C   UNK N   1      34.234  15.913   9.852  0.00  0.00     0.175 C 
BRANCH  19  20
HETATM   20  O   UNK N   1      34.131  17.129   9.224  0.00  0.00    -0.351 OA
BRANCH  20  21
HETATM   21  C   UNK N   1      33.444  17.199   8.053  0.00  0.00     0.068 A 
HETATM   22  C   UNK N   1      32.057  17.026   8.038  0.00  0.00     0.037 A 
HETATM   23  C   UNK N   1      31.356  17.099   6.826  0.00  0.00     0.018 A 
HETATM   24  C   UNK N   1      32.036  17.346   5.621  0.00  0.00     0.007 A 
HETATM   25  C   UNK N   1      33.422  17.519   5.639  0.00  0.00     0.018 A 
HETATM   26  C   UNK N   1      34.118  17.446   6.839  0.00  0.00     0.037 A 
BRANCH  24  27
HETATM   27  C   UNK N   1      31.304  17.425   4.340  0.00  0.00     0.102 C 
HETATM   28  N   UNK N   1      30.036  17.622   4.327  0.00  0.00    -0.385 N 
HETATM   29  H   UNK N   1      29.554  17.674   3.471  0.00  0.00     0.157 HD
ATOM     30  HN  UNK N   1      29.528  17.725   5.206  1.00  0.00     0.157 HD
BRANCH  27  31
HETATM   31  N   UNK N   1      31.996  17.284   3.116  0.00  0.00    -0.385 N 
HETATM   32  H   UNK N   1      32.591  16.512   2.973  0.00  0.00     0.157 HD
HETATM   33  H   UNK N   1      31.883  17.957   2.406  0.00  0.00     0.157 HD
ENDBRANCH  27  31
ENDBRANCH  24  27
ENDBRANCH  20  21
ENDBRANCH  19  20
ENDBRANCH  18  19
ENDBRANCH   1  18
TORSDOF 12
ENDMDL
MODEL 9
REMARK VINA RESULT:      -5.6      3.897      7.266
REMARK  12 active torsions:
REMARK  status: ('A' for Active; 'I' for Inactive)
REMARK    1  A    between atoms: O_1  and  C_12 
REMARK    2  A    between atoms: O_1  and  C_14 
REMARK    3  A    between atoms: O_2  and  C_13 
REMARK    4  A    between atoms: O_2  and  C_15 
REMARK    5  A    between atoms: N_3  and  C_26 
REMARK    6  A    between atoms: N_4  and  C_27 
REMARK    7  A    between atoms: C_9  and  C_10 
REMARK    8  A    between atoms: C_9  and  C_11 
REMARK    9  A    between atoms: C_10  and  C_12 
REMARK   10  A    between atoms: C_11  and  C_13 
REMARK   11  A    between atoms: C_20  and  C_26 
REMARK   12  A    between atoms: C_21  and  C_27 
ROOT
HETATM    1  C   UNK N   1      27.942  22.827  -6.999  0.00  0.00     0.004 C 
ENDROOT
BRANCH   1   2
HETATM    2  C   UNK N   1      28.594  22.794  -5.648  0.00  0.00     0.027 C 
BRANCH   2   3
HETATM    3  C   UNK N   1      29.656  23.842  -5.869  0.00  0.00     0.175 C 
BRANCH   3   4
HETATM    4  O   UNK N   1      29.188  25.119  -6.044  0.00  0.00    -0.351 OA
BRANCH   4   5
HETATM    5  C   UNK N   1      29.670  26.127  -5.274  0.00  0.00     0.068 A 
HETATM    6  C   UNK N   1      29.447  27.476  -5.618  0.00  0.00     0.037 A 
HETATM    7  C   UNK N   1      29.946  28.503  -4.820  0.00  0.00     0.018 A 
HETATM    8  C   UNK N   1      30.676  28.203  -3.664  0.00  0.00     0.007 A 
HETATM    9  C   UNK N   1      30.899  26.862  -3.320  0.00  0.00     0.018 A 
HETATM   10  C   UNK N   1      30.398  25.829  -4.121  0.00  0.00     0.037 A 
BRANCH   8  11
HETATM   11  C   UNK N   1      31.206  29.293  -2.816  0.00  0.00     0.102 C 
HETATM   12  N   UNK N   1      32.068  30.119  -3.281  0.00  0.00    -0.385 N 
HETATM   13  H   UNK N   1      32.383  30.030  -4.210  0.00  0.00     0.157 HD
ATOM     14  HN  UNK N   1      32.428  30.867  -2.689  1.00  0.00     0.157 HD
BRANCH  11  15
HETATM   15  N   UNK N   1      30.761  29.431  -1.481  0.00  0.00    -0.385 N 
HETATM   16  H   UNK N   1      30.904  28.701  -0.836  0.00  0.00     0.157 HD
HETATM   17  H   UNK N   1      30.308  30.258  -1.195  0.00  0.00     0.157 HD
ENDBRANCH  11  15
ENDBRANCH   8  11
ENDBRANCH   4   5
ENDBRANCH   3   4
ENDBRANCH   2   3
ENDBRANCH   1   2
BRANCH   1  18
HETATM   18  C   UNK N   1      26.484  22.502  -7.166  0.00  0.00     0.027 C 
BRANCH  18  19
HETATM   19  C   UNK N   1      25.948  23.899  -7.017  0.00  0.00     0.175 C 
BRANCH  19  20
HETATM   20  O   UNK N   1      25.309  24.202  -5.841  0.00  0.00    -0.351 OA
BRANCH  20  21
HETATM   21  C   UNK N   1      25.621  25.367  -5.215  0.00  0.00     0.068 A 
HETATM   22  C   UNK N   1      26.267  25.349  -3.974  0.00  0.00     0.037 A 
HETATM   23  C   UNK N   1      26.586  26.554  -3.334  0.00  0.00     0.018 A 
HETATM   24  C   UNK N   1      26.262  27.787  -3.928  0.00  0.00     0.007 A 
HETATM   25  C   UNK N   1      25.617  27.802  -5.167  0.00  0.00     0.018 A 
HETATM   26  C   UNK N   1      25.301  26.607  -5.803  0.00  0.00     0.037 A 
BRANCH  24  27
HETATM   27  C   UNK N   1      26.595  29.061  -3.259  0.00  0.00     0.102 C 
HETATM   28  N   UNK N   1      27.374  29.076  -2.240  0.00  0.00    -0.385 N 
HETATM   29  H   UNK N   1      27.593  29.928  -1.799  0.00  0.00     0.157 HD
ATOM     30  HN  UNK N   1      27.768  28.203  -1.887  1.00  0.00     0.157 HD
BRANCH  27  31
HETATM   31  N   UNK N   1      26.057  30.277  -3.738  0.00  0.00    -0.385 N 
HETATM   32  H   UNK N   1      26.596  30.858  -4.321  0.00  0.00     0.157 HD
HETATM   33  H   UNK N   1      25.142  30.542  -3.488  0.00  0.00     0.157 HD
ENDBRANCH  27  31
ENDBRANCH  24  27
ENDBRANCH  20  21
ENDBRANCH  19  20
ENDBRANCH  18  19
ENDBRANCH   1  18
TORSDOF 12
ENDMDL
