MODEL 1
REMARK VINA RESULT:      -8.5      0.000      0.000
REMARK  4 active torsions:
REMARK  status: ('A' for Active; 'I' for Inactive)
REMARK    1  A    between atoms: O_4  and  C_19 
REMARK    2  A    between atoms: C_10  and  N_7 
REMARK    3  A    between atoms: C_11  and  C_19 
REMARK    4  A    between atoms: C_16  and  C_22 
ROOT
HETATM    1  O   UNK N   1      36.082  14.536  13.520  0.00  0.00    -0.271 OA
HETATM    2  N   UNK N   1      35.540  13.877  11.430  0.00  0.00    -0.309 N 
HETATM    3  N   UNK N   1      36.708  11.852  11.346  0.00  0.00    -0.381 N 
HETATM    4  C   UNK N   1      35.811  12.745  10.580  0.00  0.00     0.099 A 
HETATM    5  C   UNK N   1      36.165  13.736  12.601  0.00  0.00     0.249 A 
HETATM    6  C   UNK N   1      36.933  12.469  12.669  0.00  0.00     0.205 A 
HETATM    7  C   UNK N   1      34.528  12.002  10.247  0.00  0.00     0.062 C 
HETATM    8  C   UNK N   1      36.506  13.159   9.296  0.00  0.00     0.062 C 
HETATM    9  H   UNK N   1      37.101  10.970  11.020  0.00  0.00     0.157 HD
ENDROOT
BRANCH   2  10
HETATM   10  C   UNK N   1      34.560  14.911  11.084  0.00  0.00     0.204 A 
HETATM   11  C   UNK N   1      34.052  14.843   9.562  0.00  0.00     0.161 A 
HETATM   12  S   UNK N   1      32.249  15.069   9.355  0.00  0.00    -0.135 SA
HETATM   13  N   UNK N   1      34.628  16.135   9.368  0.00  0.00    -0.219 NA
HETATM   14  C   UNK N   1      32.569  16.482   8.241  0.00  0.00     0.029 C 
HETATM   15  C   UNK N   1      33.813  17.182   8.815  0.00  0.00     0.182 C 
HETATM   16  C   UNK N   1      31.390  17.434   8.230  0.00  0.00     0.029 C 
HETATM   17  C   UNK N   1      32.791  15.915   6.844  0.00  0.00     0.029 C 
HETATM   18  C   UNK N   1      35.101  16.210  10.589  0.00  0.00     0.227 A 
HETATM   19  O   UNK N   1      35.240  17.249  11.218  0.00  0.00    -0.277 OA
BRANCH  15  20
HETATM   20  C   UNK N   1      34.563  18.157   7.940  0.00  0.00     0.160 C 
HETATM   21  O   UNK N   1      34.515  18.077   6.723  0.00  0.00    -0.649 OA
BRANCH  20  22
HETATM   22  O   UNK N   1      35.247  19.166   8.512  0.00  0.00    -0.775 OA
HETATM   23  H   UNK N   1      35.700  19.033   9.322  0.00  0.00     0.167 HD
ENDBRANCH  20  22
ENDBRANCH  15  20
ENDBRANCH   2  10
BRANCH   6  24
HETATM   24  C   UNK N   1      36.470  11.524  13.760  0.00  0.00    -0.027 A 
HETATM   25  C   UNK N   1      37.348  11.043  14.749  0.00  0.00     0.010 A 
HETATM   26  C   UNK N   1      36.894  10.167  15.738  0.00  0.00     0.001 A 
HETATM   27  C   UNK N   1      35.556   9.769  15.755  0.00  0.00     0.000 A 
HETATM   28  C   UNK N   1      34.673  10.242  14.781  0.00  0.00     0.001 A 
HETATM   29  C   UNK N   1      35.129  11.112  13.784  0.00  0.00     0.010 A 
ENDBRANCH   6  24
TORSDOF 4
ENDMDL
MODEL 2
REMARK VINA RESULT:      -8.3      2.780      7.500
REMARK  4 active torsions:
REMARK  status: ('A' for Active; 'I' for Inactive)
REMARK    1  A    between atoms: O_4  and  C_19 
REMARK    2  A    between atoms: C_10  and  N_7 
REMARK    3  A    between atoms: C_11  and  C_19 
REMARK    4  A    between atoms: C_16  and  C_22 
ROOT
HETATM    1  O   UNK N   1      32.228  14.762   9.053  0.00  0.00    -0.271 OA
HETATM    2  N   UNK N   1      33.638  15.698   7.559  0.00  0.00    -0.309 N 
HETATM    3  N   UNK N   1      32.079  16.577   6.052  0.00  0.00    -0.381 N 
HETATM    4  C   UNK N   1      33.525  16.457   6.338  0.00  0.00     0.099 A 
HETATM    5  C   UNK N   1      32.425  15.378   8.017  0.00  0.00     0.249 A 
HETATM    6  C   UNK N   1      31.348  15.900   7.143  0.00  0.00     0.205 A 
HETATM    7  C   UNK N   1      34.120  17.845   6.510  0.00  0.00     0.062 C 
HETATM    8  C   UNK N   1      34.202  15.755   5.175  0.00  0.00     0.062 C 
HETATM    9  H   UNK N   1      31.662  17.043   5.247  0.00  0.00     0.157 HD
ENDROOT
BRANCH   2  10
HETATM   10  C   UNK N   1      34.912  15.501   8.255  0.00  0.00     0.204 A 
HETATM   11  C   UNK N   1      35.112  14.019   8.840  0.00  0.00     0.161 A 
HETATM   12  S   UNK N   1      36.778  13.315   8.567  0.00  0.00    -0.135 SA
HETATM   13  N   UNK N   1      35.146  14.596  10.146  0.00  0.00    -0.219 NA
HETATM   14  C   UNK N   1      36.959  13.082  10.371  0.00  0.00     0.029 C 
HETATM   15  C   UNK N   1      36.251  14.287  11.012  0.00  0.00     0.182 C 
HETATM   16  C   UNK N   1      38.422  13.062  10.765  0.00  0.00     0.029 C 
HETATM   17  C   UNK N   1      36.310  11.749  10.722  0.00  0.00     0.029 C 
HETATM   18  C   UNK N   1      34.937  15.816   9.713  0.00  0.00     0.227 A 
HETATM   19  O   UNK N   1      35.365  16.827  10.250  0.00  0.00    -0.277 OA
BRANCH  15  20
HETATM   20  C   UNK N   1      35.892  14.221  12.477  0.00  0.00     0.160 C 
HETATM   21  O   UNK N   1      34.801  13.813  12.840  0.00  0.00    -0.649 OA
BRANCH  20  22
HETATM   22  O   UNK N   1      36.812  14.563  13.398  0.00  0.00    -0.775 OA
HETATM   23  H   UNK N   1      36.869  15.446  13.709  0.00  0.00     0.167 HD
ENDBRANCH  20  22
ENDBRANCH  15  20
ENDBRANCH   2  10
BRANCH   6  24
HETATM   24  C   UNK N   1      30.420  16.886   7.826  0.00  0.00    -0.027 A 
HETATM   25  C   UNK N   1      30.886  17.795   8.794  0.00  0.00     0.010 A 
HETATM   26  C   UNK N   1      30.006  18.688   9.411  0.00  0.00     0.001 A 
HETATM   27  C   UNK N   1      28.654  18.688   9.063  0.00  0.00     0.000 A 
HETATM   28  C   UNK N   1      28.180  17.791   8.100  0.00  0.00     0.001 A 
HETATM   29  C   UNK N   1      29.059  16.891   7.488  0.00  0.00     0.010 A 
ENDBRANCH   6  24
TORSDOF 4
ENDMDL
MODEL 3
REMARK VINA RESULT:      -8.2      2.265      2.862
REMARK  4 active torsions:
REMARK  status: ('A' for Active; 'I' for Inactive)
REMARK    1  A    between atoms: O_4  and  C_19 
REMARK    2  A    between atoms: C_10  and  N_7 
REMARK    3  A    between atoms: C_11  and  C_19 
REMARK    4  A    between atoms: C_16  and  C_22 
ROOT
HETATM    1  O   UNK N   1      34.143  14.905  11.671  0.00  0.00    -0.271 OA
HETATM    2  N   UNK N   1      35.693  13.938  10.345  0.00  0.00    -0.309 N 
HETATM    3  N   UNK N   1      37.290  13.378  11.959  0.00  0.00    -0.381 N 
HETATM    4  C   UNK N   1      36.975  13.303  10.516  0.00  0.00     0.099 A 
HETATM    5  C   UNK N   1      35.225  14.359  11.522  0.00  0.00     0.249 A 
HETATM    6  C   UNK N   1      36.155  14.042  12.633  0.00  0.00     0.205 A 
HETATM    7  C   UNK N   1      36.915  11.845  10.090  0.00  0.00     0.062 C 
HETATM    8  C   UNK N   1      38.065  14.015   9.736  0.00  0.00     0.062 C 
HETATM    9  H   UNK N   1      38.137  13.032  12.409  0.00  0.00     0.157 HD
ENDROOT
BRANCH   2  10
HETATM   10  C   UNK N   1      34.966  13.926   9.072  0.00  0.00     0.204 A 
HETATM   11  C   UNK N   1      34.890  15.359   8.352  0.00  0.00     0.161 A 
HETATM   12  S   UNK N   1      35.196  15.318   6.549  0.00  0.00    -0.135 SA
HETATM   13  N   UNK N   1      33.472  15.302   8.504  0.00  0.00    -0.219 NA
HETATM   14  C   UNK N   1      33.565  16.094   6.269  0.00  0.00     0.029 C 
HETATM   15  C   UNK N   1      32.641  15.504   7.348  0.00  0.00     0.182 C 
HETATM   16  C   UNK N   1      33.040  15.757   4.888  0.00  0.00     0.029 C 
HETATM   17  C   UNK N   1      33.753  17.600   6.399  0.00  0.00     0.029 C 
HETATM   18  C   UNK N   1      33.493  14.154   9.138  0.00  0.00     0.227 A 
HETATM   19  O   UNK N   1      32.605  13.315   9.088  0.00  0.00    -0.277 OA
BRANCH  15  20
HETATM   20  C   UNK N   1      31.331  16.196   7.638  0.00  0.00     0.160 C 
HETATM   21  O   UNK N   1      30.407  16.153   6.842  0.00  0.00    -0.649 OA
BRANCH  20  22
HETATM   22  O   UNK N   1      31.162  16.821   8.818  0.00  0.00    -0.775 OA
HETATM   23  H   UNK N   1      31.331  16.371   9.622  0.00  0.00     0.167 HD
ENDBRANCH  20  22
ENDBRANCH  15  20
ENDBRANCH   2  10
BRANCH   6  24
HETATM   24  C   UNK N   1      35.571  13.118  13.683  0.00  0.00    -0.027 A 
HETATM   25  C   UNK N   1      34.792  11.999  13.338  0.00  0.00     0.010 A 
HETATM   26  C   UNK N   1      34.262  11.169  14.329  0.00  0.00     0.001 A 
HETATM   27  C   UNK N   1      34.511  11.443  15.675  0.00  0.00     0.000 A 
HETATM   28  C   UNK N   1      35.286  12.550  16.031  0.00  0.00     0.001 A 
HETATM   29  C   UNK N   1      35.810  13.387  15.039  0.00  0.00     0.010 A 
ENDBRANCH   6  24
TORSDOF 4
ENDMDL
MODEL 4
REMARK VINA RESULT:      -8.1      3.680      9.123
REMARK  4 active torsions:
REMARK  status: ('A' for Active; 'I' for Inactive)
REMARK    1  A    between atoms: O_4  and  C_19 
REMARK    2  A    between atoms: C_10  and  N_7 
REMARK    3  A    between atoms: C_11  and  C_19 
REMARK    4  A    between atoms: C_16  and  C_22 
ROOT
HETATM    1  O   UNK N   1      30.331  17.527   8.157  0.00  0.00    -0.271 OA
HETATM    2  N   UNK N   1      30.786  16.209   6.382  0.00  0.00    -0.309 N 
HETATM    3  N   UNK N   1      28.681  16.190   5.362  0.00  0.00    -0.381 N 
HETATM    4  C   UNK N   1      30.070  15.698   5.240  0.00  0.00     0.099 A 
HETATM    5  C   UNK N   1      29.975  16.948   7.142  0.00  0.00     0.249 A 
HETATM    6  C   UNK N   1      28.605  17.022   6.581  0.00  0.00     0.205 A 
HETATM    7  C   UNK N   1      30.676  16.220   3.947  0.00  0.00     0.062 C 
HETATM    8  C   UNK N   1      30.055  14.180   5.217  0.00  0.00     0.062 C 
HETATM    9  H   UNK N   1      27.913  15.992   4.720  0.00  0.00     0.157 HD
ENDROOT
BRANCH   2  10
HETATM   10  C   UNK N   1      32.236  16.066   6.537  0.00  0.00     0.204 A 
HETATM   11  C   UNK N   1      32.671  14.936   7.592  0.00  0.00     0.161 A 
HETATM   12  S   UNK N   1      34.054  13.876   7.039  0.00  0.00    -0.135 SA
HETATM   13  N   UNK N   1      33.266  15.970   8.375  0.00  0.00    -0.219 NA
HETATM   14  C   UNK N   1      34.999  14.357   8.528  0.00  0.00     0.029 C 
HETATM   15  C   UNK N   1      34.638  15.830   8.783  0.00  0.00     0.182 C 
HETATM   16  C   UNK N   1      36.488  14.216   8.287  0.00  0.00     0.029 C 
HETATM   17  C   UNK N   1      34.566  13.429   9.657  0.00  0.00     0.029 C 
HETATM   18  C   UNK N   1      32.890  16.929   7.564  0.00  0.00     0.227 A 
HETATM   19  O   UNK N   1      33.508  17.968   7.381  0.00  0.00    -0.277 OA
BRANCH  15  20
HETATM   20  C   UNK N   1      34.948  16.428  10.134  0.00  0.00     0.160 C 
HETATM   21  O   UNK N   1      35.618  17.445  10.233  0.00  0.00    -0.649 OA
BRANCH  20  22
HETATM   22  O   UNK N   1      34.430  15.864  11.241  0.00  0.00    -0.775 OA
HETATM   23  H   UNK N   1      34.978  15.381  11.829  0.00  0.00     0.167 HD
ENDBRANCH  20  22
ENDBRANCH  15  20
ENDBRANCH   2  10
BRANCH   6  24
HETATM   24  C   UNK N   1      28.160  18.424   6.217  0.00  0.00    -0.027 A 
HETATM   25  C   UNK N   1      27.719  19.340   7.190  0.00  0.00     0.010 A 
HETATM   26  C   UNK N   1      27.309  20.624   6.823  0.00  0.00     0.001 A 
HETATM   27  C   UNK N   1      27.343  21.011   5.482  0.00  0.00     0.000 A 
HETATM   28  C   UNK N   1      27.783  20.112   4.506  0.00  0.00     0.001 A 
HETATM   29  C   UNK N   1      28.185  18.822   4.872  0.00  0.00     0.010 A 
ENDBRANCH   6  24
TORSDOF 4
ENDMDL
MODEL 5
REMARK VINA RESULT:      -7.5      3.521      8.237
REMARK  4 active torsions:
REMARK  status: ('A' for Active; 'I' for Inactive)
REMARK    1  A    between atoms: O_4  and  C_19 
REMARK    2  A    between atoms: C_10  and  N_7 
REMARK    3  A    between atoms: C_11  and  C_19 
REMARK    4  A    between atoms: C_16  and  C_22 
ROOT
HETATM    1  O   UNK N   1      31.720  13.952   6.593  0.00  0.00    -0.271 OA
HETATM    2  N   UNK N   1      32.883  15.263   5.171  0.00  0.00    -0.309 N 
HETATM    3  N   UNK N   1      31.194  15.760   3.631  0.00  0.00    -0.381 N 
HETATM    4  C   UNK N   1      32.614  16.005   3.965  0.00  0.00     0.099 A 
HETATM    5  C   UNK N   1      31.781  14.629   5.579  0.00  0.00     0.249 A 
HETATM    6  C   UNK N   1      30.631  14.885   4.679  0.00  0.00     0.205 A 
HETATM    7  C   UNK N   1      32.827  17.493   4.189  0.00  0.00     0.062 C 
HETATM    8  C   UNK N   1      33.481  15.536   2.810  0.00  0.00     0.062 C 
HETATM    9  H   UNK N   1      30.694  16.129   2.822  0.00  0.00     0.157 HD
ENDROOT
BRANCH   2  10
HETATM   10  C   UNK N   1      34.145  15.378   5.907  0.00  0.00     0.204 A 
HETATM   11  C   UNK N   1      34.278  14.352   7.136  0.00  0.00     0.161 A 
HETATM   12  S   UNK N   1      35.912  13.543   7.275  0.00  0.00    -0.135 SA
HETATM   13  N   UNK N   1      34.332  15.483   8.006  0.00  0.00    -0.219 NA
HETATM   14  C   UNK N   1      36.076  14.197   8.973  0.00  0.00     0.029 C 
HETATM   15  C   UNK N   1      35.419  15.588   8.940  0.00  0.00     0.182 C 
HETATM   16  C   UNK N   1      37.536  14.315   9.364  0.00  0.00     0.029 C 
HETATM   17  C   UNK N   1      35.367  13.222   9.904  0.00  0.00     0.029 C 
HETATM   18  C   UNK N   1      34.179  16.353   7.036  0.00  0.00     0.227 A 
HETATM   19  O   UNK N   1      34.649  17.481   7.033  0.00  0.00    -0.277 OA
BRANCH  15  20
HETATM   20  C   UNK N   1      35.053  16.246  10.248  0.00  0.00     0.160 C 
HETATM   21  O   UNK N   1      35.651  17.234  10.645  0.00  0.00    -0.649 OA
BRANCH  20  22
HETATM   22  O   UNK N   1      34.012  15.771  10.958  0.00  0.00    -0.775 OA
HETATM   23  H   UNK N   1      33.133  15.966  10.700  0.00  0.00     0.167 HD
ENDBRANCH  20  22
ENDBRANCH  15  20
ENDBRANCH   2  10
BRANCH   6  24
HETATM   24  C   UNK N   1      29.463  15.578   5.351  0.00  0.00    -0.027 A 
HETATM   25  C   UNK N   1      29.605  16.825   5.988  0.00  0.00     0.010 A 
HETATM   26  C   UNK N   1      28.511  17.437   6.605  0.00  0.00     0.001 A 
HETATM   27  C   UNK N   1      27.262  16.815   6.585  0.00  0.00     0.000 A 
HETATM   28  C   UNK N   1      27.106  15.578   5.953  0.00  0.00     0.001 A 
HETATM   29  C   UNK N   1      28.203  14.960   5.343  0.00  0.00     0.010 A 
ENDBRANCH   6  24
TORSDOF 4
ENDMDL
MODEL 6
REMARK VINA RESULT:      -7.5     17.195     19.586
REMARK  4 active torsions:
REMARK  status: ('A' for Active; 'I' for Inactive)
REMARK    1  A    between atoms: O_4  and  C_19 
REMARK    2  A    between atoms: C_10  and  N_7 
REMARK    3  A    between atoms: C_11  and  C_19 
REMARK    4  A    between atoms: C_16  and  C_22 
ROOT
HETATM    1  O   UNK N   1      30.591  20.452  -6.047  0.00  0.00    -0.271 OA
HETATM    2  N   UNK N   1      30.136  22.332  -4.883  0.00  0.00    -0.309 N 
HETATM    3  N   UNK N   1      31.296  21.856  -2.908  0.00  0.00    -0.381 N 
HETATM    4  C   UNK N   1      30.468  22.875  -3.590  0.00  0.00     0.099 A 
HETATM    5  C   UNK N   1      30.687  21.124  -5.032  0.00  0.00     0.249 A 
HETATM    6  C   UNK N   1      31.467  20.721  -3.838  0.00  0.00     0.205 A 
HETATM    7  C   UNK N   1      31.269  24.159  -3.734  0.00  0.00     0.062 C 
HETATM    8  C   UNK N   1      29.228  23.140  -2.755  0.00  0.00     0.062 C 
HETATM    9  H   UNK N   1      31.681  21.925  -1.966  0.00  0.00     0.157 HD
ENDROOT
BRANCH   2  10
HETATM   10  C   UNK N   1      29.453  23.112  -5.919  0.00  0.00     0.204 A 
HETATM   11  C   UNK N   1      28.158  23.901  -5.391  0.00  0.00     0.161 A 
HETATM   12  S   UNK N   1      28.015  25.618  -6.004  0.00  0.00    -0.135 SA
HETATM   13  N   UNK N   1      27.375  23.107  -6.282  0.00  0.00    -0.219 NA
HETATM   14  C   UNK N   1      26.375  25.217  -6.704  0.00  0.00     0.029 C 
HETATM   15  C   UNK N   1      26.487  23.766  -7.201  0.00  0.00     0.182 C 
HETATM   16  C   UNK N   1      26.043  26.143  -7.857  0.00  0.00     0.029 C 
HETATM   17  C   UNK N   1      25.353  25.391  -5.588  0.00  0.00     0.029 C 
HETATM   18  C   UNK N   1      28.400  22.407  -6.706  0.00  0.00     0.227 A 
HETATM   19  O   UNK N   1      28.501  21.930  -7.827  0.00  0.00    -0.277 OA
BRANCH  15  20
HETATM   20  C   UNK N   1      25.219  23.002  -7.496  0.00  0.00     0.160 C 
HETATM   21  O   UNK N   1      24.788  22.171  -6.712  0.00  0.00    -0.649 OA
BRANCH  20  22
HETATM   22  O   UNK N   1      24.523  23.284  -8.613  0.00  0.00    -0.775 OA
HETATM   23  H   UNK N   1      24.968  23.473  -9.415  0.00  0.00     0.167 HD
ENDBRANCH  20  22
ENDBRANCH  15  20
ENDBRANCH   2  10
BRANCH   6  24
HETATM   24  C   UNK N   1      32.942  20.498  -4.109  0.00  0.00    -0.027 A 
HETATM   25  C   UNK N   1      33.862  21.563  -4.131  0.00  0.00     0.010 A 
HETATM   26  C   UNK N   1      35.215  21.327  -4.390  0.00  0.00     0.001 A 
HETATM   27  C   UNK N   1      35.664  20.026  -4.621  0.00  0.00     0.000 A 
HETATM   28  C   UNK N   1      34.761  18.960  -4.598  0.00  0.00     0.001 A 
HETATM   29  C   UNK N   1      33.404  19.196  -4.347  0.00  0.00     0.010 A 
ENDBRANCH   6  24
TORSDOF 4
ENDMDL
MODEL 7
REMARK VINA RESULT:      -7.4      5.271     10.558
REMARK  4 active torsions:
REMARK  status: ('A' for Active; 'I' for Inactive)
REMARK    1  A    between atoms: O_4  and  C_19 
REMARK    2  A    between atoms: C_10  and  N_7 
REMARK    3  A    between atoms: C_11  and  C_19 
REMARK    4  A    between atoms: C_16  and  C_22 
ROOT
HETATM    1  O   UNK N   1      28.702  17.509   6.383  0.00  0.00    -0.271 OA
HETATM    2  N   UNK N   1      29.035  15.859   4.879  0.00  0.00    -0.309 N 
HETATM    3  N   UNK N   1      26.843  15.592   4.105  0.00  0.00    -0.381 N 
HETATM    4  C   UNK N   1      28.232  15.110   3.944  0.00  0.00     0.099 A 
HETATM    5  C   UNK N   1      28.273  16.726   5.551  0.00  0.00     0.249 A 
HETATM    6  C   UNK N   1      26.853  16.657   5.129  0.00  0.00     0.205 A 
HETATM    7  C   UNK N   1      28.690  15.364   2.517  0.00  0.00     0.062 C 
HETATM    8  C   UNK N   1      28.274  13.621   4.234  0.00  0.00     0.062 C 
HETATM    9  H   UNK N   1      26.026  15.252   3.599  0.00  0.00     0.157 HD
ENDROOT
BRANCH   2  10
HETATM   10  C   UNK N   1      30.498  15.778   4.911  0.00  0.00     0.204 A 
HETATM   11  C   UNK N   1      31.094  15.335   6.334  0.00  0.00     0.161 A 
HETATM   12  S   UNK N   1      32.444  14.106   6.240  0.00  0.00    -0.135 SA
HETATM   13  N   UNK N   1      31.736  16.609   6.402  0.00  0.00    -0.219 NA
HETATM   14  C   UNK N   1      33.536  15.255   7.150  0.00  0.00     0.029 C 
HETATM   15  C   UNK N   1      33.150  16.660   6.658  0.00  0.00     0.182 C 
HETATM   16  C   UNK N   1      34.992  14.972   6.839  0.00  0.00     0.029 C 
HETATM   17  C   UNK N   1      33.273  15.047   8.636  0.00  0.00     0.029 C 
HETATM   18  C   UNK N   1      31.232  17.027   5.266  0.00  0.00     0.227 A 
HETATM   19  O   UNK N   1      31.784  17.810   4.507  0.00  0.00    -0.277 OA
BRANCH  15  20
HETATM   20  C   UNK N   1      33.592  17.856   7.466  0.00  0.00     0.160 C 
HETATM   21  O   UNK N   1      34.695  18.354   7.302  0.00  0.00    -0.649 OA
BRANCH  20  22
HETATM   22  O   UNK N   1      32.733  18.419   8.337  0.00  0.00    -0.775 OA
HETATM   23  H   UNK N   1      32.172  19.118   8.066  0.00  0.00     0.167 HD
ENDBRANCH  20  22
ENDBRANCH  15  20
ENDBRANCH   2  10
BRANCH   6  24
HETATM   24  C   UNK N   1      26.322  17.946   4.533  0.00  0.00    -0.027 A 
HETATM   25  C   UNK N   1      24.944  18.225   4.477  0.00  0.00     0.010 A 
HETATM   26  C   UNK N   1      24.483  19.419   3.916  0.00  0.00     0.001 A 
HETATM   27  C   UNK N   1      25.394  20.350   3.412  0.00  0.00     0.000 A 
HETATM   28  C   UNK N   1      26.765  20.085   3.464  0.00  0.00     0.001 A 
HETATM   29  C   UNK N   1      27.227  18.885   4.018  0.00  0.00     0.010 A 
ENDBRANCH   6  24
TORSDOF 4
ENDMDL
MODEL 8
REMARK VINA RESULT:      -7.4      2.150      2.706
REMARK  4 active torsions:
REMARK  status: ('A' for Active; 'I' for Inactive)
REMARK    1  A    between atoms: O_4  and  C_19 
REMARK    2  A    between atoms: C_10  and  N_7 
REMARK    3  A    between atoms: C_11  and  C_19 
REMARK    4  A    between atoms: C_16  and  C_22 
ROOT
HETATM    1  O   UNK N   1      34.495  15.268  11.998  0.00  0.00    -0.271 OA
HETATM    2  N   UNK N   1      35.625  13.860  10.643  0.00  0.00    -0.309 N 
HETATM    3  N   UNK N   1      37.364  13.248  12.082  0.00  0.00    -0.381 N 
HETATM    4  C   UNK N   1      36.801  13.031  10.732  0.00  0.00     0.099 A 
HETATM    5  C   UNK N   1      35.436  14.519  11.789  0.00  0.00     0.249 A 
HETATM    6  C   UNK N   1      36.480  14.195  12.791  0.00  0.00     0.205 A 
HETATM    7  C   UNK N   1      36.440  11.564  10.568  0.00  0.00     0.062 C 
HETATM    8  C   UNK N   1      37.841  13.417   9.696  0.00  0.00     0.062 C 
HETATM    9  H   UNK N   1      38.210  12.820  12.457  0.00  0.00     0.157 HD
ENDROOT
BRANCH   2  10
HETATM   10  C   UNK N   1      34.699  13.803   9.508  0.00  0.00     0.204 A 
HETATM   11  C   UNK N   1      35.415  13.935   8.077  0.00  0.00     0.161 A 
HETATM   12  S   UNK N   1      34.800  12.767   6.811  0.00  0.00    -0.135 SA
HETATM   13  N   UNK N   1      34.678  15.142   7.878  0.00  0.00    -0.219 NA
HETATM   14  C   UNK N   1      34.384  14.180   5.729  0.00  0.00     0.029 C 
HETATM   15  C   UNK N   1      33.903  15.292   6.677  0.00  0.00     0.182 C 
HETATM   16  C   UNK N   1      33.282  13.806   4.758  0.00  0.00     0.029 C 
HETATM   17  C   UNK N   1      35.647  14.550   4.963  0.00  0.00     0.029 C 
HETATM   18  C   UNK N   1      34.107  15.096   9.058  0.00  0.00     0.227 A 
HETATM   19  O   UNK N   1      32.994  15.534   9.309  0.00  0.00    -0.277 OA
BRANCH  15  20
HETATM   20  C   UNK N   1      33.833  16.707   6.156  0.00  0.00     0.160 C 
HETATM   21  O   UNK N   1      34.635  17.553   6.521  0.00  0.00    -0.649 OA
BRANCH  20  22
HETATM   22  O   UNK N   1      32.909  17.025   5.230  0.00  0.00    -0.775 OA
HETATM   23  H   UNK N   1      32.010  16.791   5.356  0.00  0.00     0.167 HD
ENDBRANCH  20  22
ENDBRANCH  15  20
ENDBRANCH   2  10
BRANCH   6  24
HETATM   24  C   UNK N   1      35.945  13.549  14.054  0.00  0.00    -0.027 A 
HETATM   25  C   UNK N   1      36.374  13.950  15.332  0.00  0.00     0.010 A 
HETATM   26  C   UNK N   1      35.867  13.331  16.478  0.00  0.00     0.001 A 
HETATM   27  C   UNK N   1      34.921  12.312  16.360  0.00  0.00     0.000 A 
HETATM   28  C   UNK N   1      34.484  11.908  15.095  0.00  0.00     0.001 A 
HETATM   29  C   UNK N   1      34.997  12.521  13.947  0.00  0.00     0.010 A 
ENDBRANCH   6  24
TORSDOF 4
ENDMDL
MODEL 9
REMARK VINA RESULT:      -7.4      4.739      7.596
REMARK  4 active torsions:
REMARK  status: ('A' for Active; 'I' for Inactive)
REMARK    1  A    between atoms: O_4  and  C_19 
REMARK    2  A    between atoms: C_10  and  N_7 
REMARK    3  A    between atoms: C_11  and  C_19 
REMARK    4  A    between atoms: C_16  and  C_22 
ROOT
HETATM    1  O   UNK N   1      31.339  17.983   8.439  0.00  0.00    -0.271 OA
HETATM    2  N   UNK N   1      30.910  16.964   6.471  0.00  0.00    -0.309 N 
HETATM    3  N   UNK N   1      33.041  16.123   5.996  0.00  0.00    -0.381 N 
HETATM    4  C   UNK N   1      31.647  16.189   5.504  0.00  0.00     0.099 A 
HETATM    5  C   UNK N   1      31.712  17.342   7.469  0.00  0.00     0.249 A 
HETATM    6  C   UNK N   1      33.098  16.848   7.282  0.00  0.00     0.205 A 
HETATM    7  C   UNK N   1      31.084  14.781   5.400  0.00  0.00     0.062 C 
HETATM    8  C   UNK N   1      31.638  16.843   4.134  0.00  0.00     0.062 C 
HETATM    9  H   UNK N   1      33.821  15.660   5.532  0.00  0.00     0.157 HD
ENDROOT
BRANCH   2  10
HETATM   10  C   UNK N   1      29.454  17.122   6.416  0.00  0.00     0.204 A 
HETATM   11  C   UNK N   1      28.952  18.145   5.285  0.00  0.00     0.161 A 
HETATM   12  S   UNK N   1      27.503  17.568   4.331  0.00  0.00    -0.135 SA
HETATM   13  N   UNK N   1      28.425  18.961   6.331  0.00  0.00    -0.219 NA
HETATM   14  C   UNK N   1      26.594  19.075   4.826  0.00  0.00     0.029 C 
HETATM   15  C   UNK N   1      27.049  19.371   6.265  0.00  0.00     0.182 C 
HETATM   16  C   UNK N   1      25.098  18.837   4.787  0.00  0.00     0.029 C 
HETATM   17  C   UNK N   1      26.971  20.174   3.841  0.00  0.00     0.029 C 
HETATM   18  C   UNK N   1      28.859  18.176   7.288  0.00  0.00     0.227 A 
HETATM   19  O   UNK N   1      28.307  18.026   8.369  0.00  0.00    -0.277 OA
BRANCH  15  20
HETATM   20  C   UNK N   1      26.780  20.739   6.842  0.00  0.00     0.160 C 
HETATM   21  O   UNK N   1      27.289  21.738   6.358  0.00  0.00    -0.649 OA
BRANCH  20  22
HETATM   22  O   UNK N   1      25.919  20.866   7.870  0.00  0.00    -0.775 OA
HETATM   23  H   UNK N   1      25.159  21.408   7.789  0.00  0.00     0.167 HD
ENDBRANCH  20  22
ENDBRANCH  15  20
ENDBRANCH   2  10
BRANCH   6  24
HETATM   24  C   UNK N   1      33.574  15.913   8.376  0.00  0.00    -0.027 A 
HETATM   25  C   UNK N   1      34.419  16.352   9.412  0.00  0.00     0.010 A 
HETATM   26  C   UNK N   1      34.847  15.465  10.403  0.00  0.00     0.001 A 
HETATM   27  C   UNK N   1      34.429  14.133  10.376  0.00  0.00     0.000 A 
HETATM   28  C   UNK N   1      33.587  13.687   9.354  0.00  0.00     0.001 A 
HETATM   29  C   UNK N   1      33.165  14.572   8.356  0.00  0.00     0.010 A 
ENDBRANCH   6  24
TORSDOF 4
ENDMDL
