MODEL 1
REMARK VINA RESULT:      -5.3      0.000      0.000
REMARK  3 active torsions:
REMARK  status: ('A' for Active; 'I' for Inactive)
REMARK    1  A    between atoms: O_5  and  C_12 
REMARK    2  A    between atoms: O_5  and  C_16 
REMARK    3  A    between atoms: N_8  and  C_15 
ROOT
HETATM    1  S   UNK N   1      31.283  16.102   6.869  0.00  0.00    -0.052 SA
HETATM    2  N   UNK N   1      31.101  16.662   9.285  0.00  0.00    -0.336 N 
ATOM      3  HN  UNK N   1      31.259  16.707  10.292  1.00  0.00     0.168 HD
HETATM    4  C   UNK N   1      30.069  17.156   7.239  0.00  0.00     0.037 A 
HETATM    5  C   UNK N   1      30.112  17.352   8.620  0.00  0.00     0.051 A 
HETATM    6  C   UNK N   1      29.144  17.789   6.421  0.00  0.00     0.058 A 
HETATM    7  C   UNK N   1      28.205  18.648   7.018  0.00  0.00     0.079 A 
HETATM    8  C   UNK N   1      29.196  18.207   9.230  0.00  0.00     0.034 A 
HETATM    9  C   UNK N   1      28.239  18.853   8.424  0.00  0.00     0.039 A 
HETATM   10  C   UNK N   1      31.840  15.913   8.420  0.00  0.00     0.143 A 
ENDROOT
BRANCH   7  11
HETATM   11  O   UNK N   1      27.302  19.269   6.215  0.00  0.00    -0.255 OA
BRANCH  11  12
HETATM   12  C   UNK N   1      27.446  20.471   5.538  0.00  0.00     0.530 C 
HETATM   13  F   UNK N   1      28.010  21.466   6.318  0.00  0.00    -0.144 F 
HETATM   14  F   UNK N   1      28.224  20.280   4.412  0.00  0.00    -0.144 F 
HETATM   15  F   UNK N   1      26.192  20.893   5.142  0.00  0.00    -0.144 F 
ENDBRANCH  11  12
ENDBRANCH   7  11
BRANCH  10  16
HETATM   16  N   UNK N   1      32.937  15.118   8.805  0.00  0.00    -0.380 N 
HETATM   17  H   UNK N   1      33.066  14.229   8.401  0.00  0.00     0.158 HD
HETATM   18  H   UNK N   1      33.574  15.451   9.477  0.00  0.00     0.158 HD
ENDBRANCH  10  16
TORSDOF 3
ENDMDL
MODEL 2
REMARK VINA RESULT:      -5.2      5.155      5.683
REMARK  3 active torsions:
REMARK  status: ('A' for Active; 'I' for Inactive)
REMARK    1  A    between atoms: O_5  and  C_12 
REMARK    2  A    between atoms: O_5  and  C_16 
REMARK    3  A    between atoms: N_8  and  C_15 
ROOT
HETATM    1  S   UNK N   1      35.689  14.814   9.495  0.00  0.00    -0.052 SA
HETATM    2  N   UNK N   1      34.954  17.000  10.425  0.00  0.00    -0.336 N 
ATOM      3  HN  UNK N   1      34.768  17.780  11.055  1.00  0.00     0.168 HD
HETATM    4  C   UNK N   1      34.971  15.818   8.400  0.00  0.00     0.037 A 
HETATM    5  C   UNK N   1      34.624  16.983   9.088  0.00  0.00     0.051 A 
HETATM    6  C   UNK N   1      34.723  15.647   7.047  0.00  0.00     0.058 A 
HETATM    7  C   UNK N   1      34.081  16.686   6.350  0.00  0.00     0.079 A 
HETATM    8  C   UNK N   1      33.995  18.027   8.414  0.00  0.00     0.034 A 
HETATM    9  C   UNK N   1      33.722  17.874   7.041  0.00  0.00     0.039 A 
HETATM   10  C   UNK N   1      35.562  15.838  10.793  0.00  0.00     0.143 A 
ENDROOT
BRANCH   7  11
HETATM   11  O   UNK N   1      33.842  16.516   5.023  0.00  0.00    -0.255 OA
BRANCH  11  12
HETATM   12  C   UNK N   1      32.659  16.738   4.334  0.00  0.00     0.530 C 
HETATM   13  F   UNK N   1      32.414  18.080   4.098  0.00  0.00    -0.144 F 
HETATM   14  F   UNK N   1      32.690  16.063   3.128  0.00  0.00    -0.144 F 
HETATM   15  F   UNK N   1      31.620  16.237   5.093  0.00  0.00    -0.144 F 
ENDBRANCH  11  12
ENDBRANCH   7  11
BRANCH  10  16
HETATM   16  N   UNK N   1      36.034  15.574  12.094  0.00  0.00    -0.380 N 
HETATM   17  H   UNK N   1      36.996  15.437  12.250  0.00  0.00     0.158 HD
HETATM   18  H   UNK N   1      35.402  15.525  12.847  0.00  0.00     0.158 HD
ENDBRANCH  10  16
TORSDOF 3
ENDMDL
MODEL 3
REMARK VINA RESULT:      -5.2     14.332     15.183
REMARK  3 active torsions:
REMARK  status: ('A' for Active; 'I' for Inactive)
REMARK    1  A    between atoms: O_5  and  C_12 
REMARK    2  A    between atoms: O_5  and  C_16 
REMARK    3  A    between atoms: N_8  and  C_15 
ROOT
HETATM    1  S   UNK N   1      27.131  23.917  -5.076  0.00  0.00    -0.052 SA
HETATM    2  N   UNK N   1      25.402  24.750  -6.657  0.00  0.00    -0.336 N 
ATOM      3  HN  UNK N   1      24.743  24.826  -7.432  1.00  0.00     0.168 HD
HETATM    4  C   UNK N   1      26.546  25.419  -4.724  0.00  0.00     0.037 A 
HETATM    5  C   UNK N   1      25.600  25.724  -5.705  0.00  0.00     0.051 A 
HETATM    6  C   UNK N   1      26.852  26.285  -3.685  0.00  0.00     0.058 A 
HETATM    7  C   UNK N   1      26.190  27.525  -3.633  0.00  0.00     0.079 A 
HETATM    8  C   UNK N   1      24.928  26.944  -5.667  0.00  0.00     0.034 A 
HETATM    9  C   UNK N   1      25.228  27.846  -4.628  0.00  0.00     0.039 A 
HETATM   10  C   UNK N   1      26.202  23.671  -6.427  0.00  0.00     0.143 A 
ENDROOT
BRANCH   7  11
HETATM   11  O   UNK N   1      26.490  28.370  -2.612  0.00  0.00    -0.255 OA
BRANCH  11  12
HETATM   12  C   UNK N   1      27.420  29.400  -2.602  0.00  0.00     0.530 C 
HETATM   13  F   UNK N   1      28.527  29.136  -3.389  0.00  0.00    -0.144 F 
HETATM   14  F   UNK N   1      26.822  30.569  -3.034  0.00  0.00    -0.144 F 
HETATM   15  F   UNK N   1      27.849  29.578  -1.301  0.00  0.00    -0.144 F 
ENDBRANCH  11  12
ENDBRANCH   7  11
BRANCH  10  16
HETATM   16  N   UNK N   1      26.204  22.508  -7.222  0.00  0.00    -0.380 N 
HETATM   17  H   UNK N   1      26.738  21.728  -6.950  0.00  0.00     0.158 HD
HETATM   18  H   UNK N   1      25.671  22.476  -8.049  0.00  0.00     0.158 HD
ENDBRANCH  10  16
TORSDOF 3
ENDMDL
MODEL 4
REMARK VINA RESULT:      -5.2      3.584      4.444
REMARK  3 active torsions:
REMARK  status: ('A' for Active; 'I' for Inactive)
REMARK    1  A    between atoms: O_5  and  C_12 
REMARK    2  A    between atoms: O_5  and  C_16 
REMARK    3  A    between atoms: N_8  and  C_15 
ROOT
HETATM    1  S   UNK N   1      31.429  15.778   4.311  0.00  0.00    -0.052 SA
HETATM    2  N   UNK N   1      33.619  16.862   4.776  0.00  0.00    -0.336 N 
ATOM      3  HN  UNK N   1      34.573  17.212   4.690  1.00  0.00     0.168 HD
HETATM    4  C   UNK N   1      31.549  16.468   5.804  0.00  0.00     0.037 A 
HETATM    5  C   UNK N   1      32.829  17.019   5.893  0.00  0.00     0.051 A 
HETATM    6  C   UNK N   1      30.625  16.553   6.835  0.00  0.00     0.058 A 
HETATM    7  C   UNK N   1      31.005  17.208   8.019  0.00  0.00     0.079 A 
HETATM    8  C   UNK N   1      33.223  17.679   7.055  0.00  0.00     0.034 A 
HETATM    9  C   UNK N   1      32.307  17.770   8.121  0.00  0.00     0.039 A 
HETATM   10  C   UNK N   1      32.957  16.177   3.802  0.00  0.00     0.143 A 
ENDROOT
BRANCH   7  11
HETATM   11  O   UNK N   1      30.097  17.292   9.026  0.00  0.00    -0.255 OA
BRANCH  11  12
HETATM   12  C   UNK N   1      29.264  18.356   9.338  0.00  0.00     0.530 C 
HETATM   13  F   UNK N   1      27.979  17.960   9.665  0.00  0.00    -0.144 F 
HETATM   14  F   UNK N   1      29.800  19.074  10.390  0.00  0.00    -0.144 F 
HETATM   15  F   UNK N   1      29.191  19.181   8.233  0.00  0.00    -0.144 F 
ENDBRANCH  11  12
ENDBRANCH   7  11
BRANCH  10  16
HETATM   16  N   UNK N   1      33.501  15.884   2.536  0.00  0.00    -0.380 N 
HETATM   17  H   UNK N   1      32.907  15.771   1.760  0.00  0.00     0.158 HD
HETATM   18  H   UNK N   1      34.475  15.793   2.429  0.00  0.00     0.158 HD
ENDBRANCH  10  16
TORSDOF 3
ENDMDL
MODEL 5
REMARK VINA RESULT:      -5.2      5.466      7.016
REMARK  3 active torsions:
REMARK  status: ('A' for Active; 'I' for Inactive)
REMARK    1  A    between atoms: O_5  and  C_12 
REMARK    2  A    between atoms: O_5  and  C_16 
REMARK    3  A    between atoms: N_8  and  C_15 
ROOT
HETATM    1  S   UNK N   1      26.945  20.162   4.196  0.00  0.00    -0.052 SA
HETATM    2  N   UNK N   1      25.919  18.319   5.513  0.00  0.00    -0.336 N 
ATOM      3  HN  UNK N   1      25.775  17.545   6.161  1.00  0.00     0.168 HD
HETATM    4  C   UNK N   1      25.342  19.914   3.894  0.00  0.00     0.037 A 
HETATM    5  C   UNK N   1      24.938  18.854   4.708  0.00  0.00     0.051 A 
HETATM    6  C   UNK N   1      24.473  20.574   3.038  0.00  0.00     0.058 A 
HETATM    7  C   UNK N   1      23.137  20.140   2.980  0.00  0.00     0.079 A 
HETATM    8  C   UNK N   1      23.616  18.415   4.672  0.00  0.00     0.034 A 
HETATM    9  C   UNK N   1      22.716  19.060   3.802  0.00  0.00     0.039 A 
HETATM   10  C   UNK N   1      27.106  18.961   5.328  0.00  0.00     0.143 A 
ENDROOT
BRANCH   7  11
HETATM   11  O   UNK N   1      22.287  20.790   2.142  0.00  0.00    -0.255 OA
BRANCH  11  12
HETATM   12  C   UNK N   1      20.907  20.677   2.071  0.00  0.00     0.530 C 
HETATM   13  F   UNK N   1      20.485  19.412   1.701  0.00  0.00    -0.144 F 
HETATM   14  F   UNK N   1      20.351  21.002   3.294  0.00  0.00    -0.144 F 
HETATM   15  F   UNK N   1      20.451  21.576   1.126  0.00  0.00    -0.144 F 
ENDBRANCH  11  12
ENDBRANCH   7  11
BRANCH  10  16
HETATM   16  N   UNK N   1      28.287  18.650   6.029  0.00  0.00    -0.380 N 
HETATM   17  H   UNK N   1      29.164  18.833   5.622  0.00  0.00     0.158 HD
HETATM   18  H   UNK N   1      28.235  18.248   6.927  0.00  0.00     0.158 HD
ENDBRANCH  10  16
TORSDOF 3
ENDMDL
MODEL 6
REMARK VINA RESULT:      -5.1     11.955     13.319
REMARK  3 active torsions:
REMARK  status: ('A' for Active; 'I' for Inactive)
REMARK    1  A    between atoms: O_5  and  C_12 
REMARK    2  A    between atoms: O_5  and  C_16 
REMARK    3  A    between atoms: N_8  and  C_15 
ROOT
HETATM    1  S   UNK N   1      35.370  10.055  18.887  0.00  0.00    -0.052 SA
HETATM    2  N   UNK N   1      35.417  12.103  20.297  0.00  0.00    -0.336 N 
ATOM      3  HN  UNK N   1      35.464  12.740  21.092  1.00  0.00     0.168 HD
HETATM    4  C   UNK N   1      35.247  11.469  18.046  0.00  0.00     0.037 A 
HETATM    5  C   UNK N   1      35.287  12.501  18.985  0.00  0.00     0.051 A 
HETATM    6  C   UNK N   1      35.136  11.700  16.683  0.00  0.00     0.058 A 
HETATM    7  C   UNK N   1      35.043  13.031  16.239  0.00  0.00     0.079 A 
HETATM    8  C   UNK N   1      35.206  13.827  18.564  0.00  0.00     0.034 A 
HETATM    9  C   UNK N   1      35.080  14.090  17.187  0.00  0.00     0.039 A 
HETATM   10  C   UNK N   1      35.475  10.745  20.391  0.00  0.00     0.143 A 
ENDROOT
BRANCH   7  11
HETATM   11  O   UNK N   1      34.937  13.255  14.903  0.00  0.00    -0.255 OA
BRANCH  11  12
HETATM   12  C   UNK N   1      35.934  13.644  14.020  0.00  0.00     0.530 C 
HETATM   13  F   UNK N   1      36.589  14.796  14.418  0.00  0.00    -0.144 F 
HETATM   14  F   UNK N   1      36.854  12.622  13.881  0.00  0.00    -0.144 F 
HETATM   15  F   UNK N   1      35.350  13.882  12.791  0.00  0.00    -0.144 F 
ENDBRANCH  11  12
ENDBRANCH   7  11
BRANCH  10  16
HETATM   16  N   UNK N   1      35.630  10.046  21.604  0.00  0.00    -0.380 N 
HETATM   17  H   UNK N   1      35.512   9.069  21.628  0.00  0.00     0.158 HD
HETATM   18  H   UNK N   1      35.857  10.534  22.428  0.00  0.00     0.158 HD
ENDBRANCH  10  16
TORSDOF 3
ENDMDL
MODEL 7
REMARK VINA RESULT:      -5.1      4.407      5.533
REMARK  3 active torsions:
REMARK  status: ('A' for Active; 'I' for Inactive)
REMARK    1  A    between atoms: O_5  and  C_12 
REMARK    2  A    between atoms: O_5  and  C_16 
REMARK    3  A    between atoms: N_8  and  C_15 
ROOT
HETATM    1  S   UNK N   1      28.424  17.496   5.271  0.00  0.00    -0.052 SA
HETATM    2  N   UNK N   1      27.474  18.695   7.232  0.00  0.00    -0.336 N 
ATOM      3  HN  UNK N   1      26.847  19.200   7.858  1.00  0.00     0.168 HD
HETATM    4  C   UNK N   1      29.455  17.643   6.550  0.00  0.00     0.037 A 
HETATM    5  C   UNK N   1      28.766  18.337   7.547  0.00  0.00     0.051 A 
HETATM    6  C   UNK N   1      30.758  17.197   6.713  0.00  0.00     0.058 A 
HETATM    7  C   UNK N   1      31.410  17.472   7.929  0.00  0.00     0.079 A 
HETATM    8  C   UNK N   1      29.391  18.612   8.762  0.00  0.00     0.034 A 
HETATM    9  C   UNK N   1      30.717  18.180   8.949  0.00  0.00     0.039 A 
HETATM   10  C   UNK N   1      27.146  18.285   5.975  0.00  0.00     0.143 A 
ENDROOT
BRANCH   7  11
HETATM   11  O   UNK N   1      32.685  17.032   8.087  0.00  0.00    -0.255 OA
BRANCH  11  12
HETATM   12  C   UNK N   1      33.858  17.651   7.681  0.00  0.00     0.530 C 
HETATM   13  F   UNK N   1      33.985  17.719   6.305  0.00  0.00    -0.144 F 
HETATM   14  F   UNK N   1      33.916  18.928   8.207  0.00  0.00    -0.144 F 
HETATM   15  F   UNK N   1      34.922  16.921   8.176  0.00  0.00    -0.144 F 
ENDBRANCH  11  12
ENDBRANCH   7  11
BRANCH  10  16
HETATM   16  N   UNK N   1      25.883  18.488   5.385  0.00  0.00    -0.380 N 
HETATM   17  H   UNK N   1      25.583  17.903   4.652  0.00  0.00     0.158 HD
HETATM   18  H   UNK N   1      25.301  19.215   5.705  0.00  0.00     0.158 HD
ENDBRANCH  10  16
TORSDOF 3
ENDMDL
MODEL 8
REMARK VINA RESULT:      -5.0     14.888     15.707
REMARK  3 active torsions:
REMARK  status: ('A' for Active; 'I' for Inactive)
REMARK    1  A    between atoms: O_5  and  C_12 
REMARK    2  A    between atoms: O_5  and  C_16 
REMARK    3  A    between atoms: N_8  and  C_15 
ROOT
HETATM    1  S   UNK N   1      44.695  24.800   0.768  0.00  0.00    -0.052 SA
HETATM    2  N   UNK N   1      45.839  23.900   2.784  0.00  0.00    -0.336 N 
ATOM      3  HN  UNK N   1      46.526  23.708   3.513  1.00  0.00     0.168 HD
HETATM    4  C   UNK N   1      43.792  23.738   1.652  0.00  0.00     0.037 A 
HETATM    5  C   UNK N   1      44.583  23.338   2.730  0.00  0.00     0.051 A 
HETATM    6  C   UNK N   1      42.499  23.278   1.460  0.00  0.00     0.058 A 
HETATM    7  C   UNK N   1      41.975  22.358   2.385  0.00  0.00     0.079 A 
HETATM    8  C   UNK N   1      44.080  22.433   3.663  0.00  0.00     0.034 A 
HETATM    9  C   UNK N   1      42.772  21.941   3.486  0.00  0.00     0.039 A 
HETATM   10  C   UNK N   1      46.040  24.747   1.737  0.00  0.00     0.143 A 
ENDROOT
BRANCH   7  11
HETATM   11  O   UNK N   1      40.706  21.910   2.197  0.00  0.00    -0.255 OA
BRANCH  11  12
HETATM   12  C   UNK N   1      40.230  20.613   2.326  0.00  0.00     0.530 C 
HETATM   13  F   UNK N   1      40.157  20.193   3.642  0.00  0.00    -0.144 F 
HETATM   14  F   UNK N   1      38.978  20.518   1.748  0.00  0.00    -0.144 F 
HETATM   15  F   UNK N   1      41.092  19.771   1.652  0.00  0.00    -0.144 F 
ENDBRANCH  11  12
ENDBRANCH   7  11
BRANCH  10  16
HETATM   16  N   UNK N   1      47.222  25.487   1.538  0.00  0.00    -0.380 N 
HETATM   17  H   UNK N   1      47.972  25.091   1.039  0.00  0.00     0.158 HD
HETATM   18  H   UNK N   1      47.298  26.400   1.898  0.00  0.00     0.158 HD
ENDBRANCH  10  16
TORSDOF 3
ENDMDL
MODEL 9
REMARK VINA RESULT:      -4.9     13.185     14.399
REMARK  3 active torsions:
REMARK  status: ('A' for Active; 'I' for Inactive)
REMARK    1  A    between atoms: O_5  and  C_12 
REMARK    2  A    between atoms: O_5  and  C_16 
REMARK    3  A    between atoms: N_8  and  C_15 
ROOT
HETATM    1  S   UNK N   1      29.226  23.725  -3.620  0.00  0.00    -0.052 SA
HETATM    2  N   UNK N   1      29.291  22.379  -5.710  0.00  0.00    -0.336 N 
ATOM      3  HN  UNK N   1      29.566  21.722  -6.441  1.00  0.00     0.168 HD
HETATM    4  C   UNK N   1      27.968  23.999  -4.652  0.00  0.00     0.037 A 
HETATM    5  C   UNK N   1      28.167  23.172  -5.759  0.00  0.00     0.051 A 
HETATM    6  C   UNK N   1      26.877  24.847  -4.537  0.00  0.00     0.058 A 
HETATM    7  C   UNK N   1      25.945  24.880  -5.590  0.00  0.00     0.079 A 
HETATM    8  C   UNK N   1      27.250  23.184  -6.809  0.00  0.00     0.034 A 
HETATM    9  C   UNK N   1      26.139  24.044  -6.722  0.00  0.00     0.039 A 
HETATM   10  C   UNK N   1      29.987  22.587  -4.557  0.00  0.00     0.143 A 
ENDROOT
BRANCH   7  11
HETATM   11  O   UNK N   1      24.875  25.710  -5.473  0.00  0.00    -0.255 OA
BRANCH  11  12
HETATM   12  C   UNK N   1      24.860  27.096  -5.523  0.00  0.00     0.530 C 
HETATM   13  F   UNK N   1      23.663  27.607  -5.992  0.00  0.00    -0.144 F 
HETATM   14  F   UNK N   1      25.111  27.608  -4.264  0.00  0.00    -0.144 F 
HETATM   15  F   UNK N   1      25.867  27.505  -6.375  0.00  0.00    -0.144 F 
ENDBRANCH  11  12
ENDBRANCH   7  11
BRANCH  10  16
HETATM   16  N   UNK N   1      31.169  21.903  -4.216  0.00  0.00    -0.380 N 
HETATM   17  H   UNK N   1      31.260  20.944  -4.422  0.00  0.00     0.158 HD
HETATM   18  H   UNK N   1      31.905  22.382  -3.771  0.00  0.00     0.158 HD
ENDBRANCH  10  16
TORSDOF 3
ENDMDL
