MODEL 1
REMARK VINA RESULT:      -7.5      0.000      0.000
REMARK  5 active torsions:
REMARK  status: ('A' for Active; 'I' for Inactive)
REMARK    1  A    between atoms: C_10  and  O_1 
REMARK    2  A    between atoms: C_13  and  O_2 
REMARK    3  A    between atoms: O_4  and  C_26 
REMARK    4  A    between atoms: C_10  and  C_22 
REMARK    5  A    between atoms: C_22  and  C_26 
ROOT
HETATM    1  O   UNK N   1      35.282   9.671  20.239  0.00  0.00    -0.293 OA
HETATM    2  C   UNK N   1      35.655  12.985  12.410  0.00  0.00     0.001 C 
HETATM    3  C   UNK N   1      35.602  13.785  13.714  0.00  0.00     0.002 C 
HETATM    4  C   UNK N   1      36.098  12.962  14.910  0.00  0.00    -0.002 C 
HETATM    5  C   UNK N   1      35.125  11.743  15.069  0.00  0.00     0.031 C 
HETATM    6  C   UNK N   1      35.190  14.066  11.409  0.00  0.00     0.128 C 
HETATM    7  C   UNK N   1      34.764  11.740  12.532  0.00  0.00     0.045 C 
HETATM    8  C   UNK N   1      35.440  10.973  16.387  0.00  0.00    -0.014 C 
HETATM    9  C   UNK N   1      35.150  10.891  13.764  0.00  0.00     0.124 C 
HETATM   10  C   UNK N   1      36.341  15.063  13.360  0.00  0.00     0.009 C 
HETATM   11  C   UNK N   1      35.938  15.326  11.899  0.00  0.00     0.047 C 
HETATM   12  C   UNK N   1      36.199  13.842  16.174  0.00  0.00     0.010 C 
HETATM   13  C   UNK N   1      37.091  12.531  12.081  0.00  0.00     0.019 C 
HETATM   14  C   UNK N   1      35.359  11.959  17.553  0.00  0.00    -0.068 C 
HETATM   15  C   UNK N   1      35.248  13.432  17.290  0.00  0.00     0.035 C 
HETATM   16  C   UNK N   1      34.435   9.844  16.672  0.00  0.00     0.022 C 
HETATM   17  C   UNK N   1      36.845  10.368  16.320  0.00  0.00     0.020 C 
HETATM   18  C   UNK N   1      34.755   9.121  17.997  0.00  0.00     0.084 C 
HETATM   19  C   UNK N   1      35.280  11.522  18.817  0.00  0.00     0.053 C 
HETATM   20  C   UNK N   1      35.143  10.081  19.099  0.00  0.00     0.149 C 
ENDROOT
BRANCH   6  21
HETATM   21  O   UNK N   1      33.817  14.294  11.566  0.00  0.00    -0.381 OA
HETATM   22  H   UNK N   1      32.867  14.211  11.746  0.00  0.00     0.211 HD
ENDBRANCH   6  21
BRANCH   6  23
HETATM   23  C   UNK N   1      35.448  13.740   9.949  0.00  0.00     0.184 C 
HETATM   24  O   UNK N   1      36.286  14.375   9.330  0.00  0.00    -0.292 OA
BRANCH  23  25
HETATM   25  C   UNK N   1      34.732  12.619   9.251  0.00  0.00     0.245 C 
BRANCH  25  26
HETATM   26  O   UNK N   1      33.350  12.751   9.396  0.00  0.00    -0.393 OA
HETATM   27  H   UNK N   1      32.610  13.359   9.242  0.00  0.00     0.209 HD
ENDBRANCH  25  26
ENDBRANCH  23  25
ENDBRANCH   6  23
BRANCH   9  28
HETATM   28  O   UNK N   1      34.270   9.811  13.849  0.00  0.00    -0.395 OA
HETATM   29  H   UNK N   1      34.078   9.364  14.689  0.00  0.00     0.210 HD
ENDBRANCH   9  28
TORSDOF 5
ENDMDL
MODEL 2
REMARK VINA RESULT:      -7.1     19.939     23.719
REMARK  5 active torsions:
REMARK  status: ('A' for Active; 'I' for Inactive)
REMARK    1  A    between atoms: C_10  and  O_1 
REMARK    2  A    between atoms: C_13  and  O_2 
REMARK    3  A    between atoms: O_4  and  C_26 
REMARK    4  A    between atoms: C_10  and  C_22 
REMARK    5  A    between atoms: C_22  and  C_26 
ROOT
HETATM    1  O   UNK N   1      24.604  27.665  -5.333  0.00  0.00    -0.293 OA
HETATM    2  C   UNK N   1      31.105  22.184  -5.002  0.00  0.00     0.001 C 
HETATM    3  C   UNK N   1      29.708  21.876  -5.543  0.00  0.00     0.002 C 
HETATM    4  C   UNK N   1      28.970  23.147  -5.982  0.00  0.00    -0.002 C 
HETATM    5  C   UNK N   1      28.792  24.042  -4.708  0.00  0.00     0.031 C 
HETATM    6  C   UNK N   1      31.613  20.751  -4.728  0.00  0.00     0.128 C 
HETATM    7  C   UNK N   1      30.994  23.113  -3.784  0.00  0.00     0.045 C 
HETATM    8  C   UNK N   1      27.872  25.259  -5.030  0.00  0.00    -0.014 C 
HETATM    9  C   UNK N   1      30.194  24.392  -4.123  0.00  0.00     0.124 C 
HETATM   10  C   UNK N   1      29.973  20.799  -6.580  0.00  0.00     0.009 C 
HETATM   11  C   UNK N   1      31.114  19.972  -5.965  0.00  0.00     0.047 C 
HETATM   12  C   UNK N   1      27.641  22.794  -6.681  0.00  0.00     0.010 C 
HETATM   13  C   UNK N   1      31.986  22.871  -6.066  0.00  0.00     0.019 C 
HETATM   14  C   UNK N   1      26.547  24.729  -5.579  0.00  0.00    -0.068 C 
HETATM   15  C   UNK N   1      26.403  23.278  -5.937  0.00  0.00     0.035 C 
HETATM   16  C   UNK N   1      27.547  26.106  -3.789  0.00  0.00     0.022 C 
HETATM   17  C   UNK N   1      28.538  26.160  -6.074  0.00  0.00     0.020 C 
HETATM   18  C   UNK N   1      26.610  27.283  -4.135  0.00  0.00     0.084 C 
HETATM   19  C   UNK N   1      25.468  25.519  -5.651  0.00  0.00     0.053 C 
HETATM   20  C   UNK N   1      25.504  26.881  -5.083  0.00  0.00     0.149 C 
ENDROOT
BRANCH   6  21
HETATM   21  O   UNK N   1      30.965  20.229  -3.602  0.00  0.00    -0.381 OA
HETATM   22  H   UNK N   1      30.709  19.710  -2.823  0.00  0.00     0.211 HD
ENDBRANCH   6  21
BRANCH   6  23
HETATM   23  C   UNK N   1      33.110  20.634  -4.504  0.00  0.00     0.184 C 
HETATM   24  O   UNK N   1      33.800  20.061  -5.332  0.00  0.00    -0.292 OA
BRANCH  23  25
HETATM   25  C   UNK N   1      33.781  21.249  -3.308  0.00  0.00     0.245 C 
BRANCH  25  26
HETATM   26  O   UNK N   1      33.107  20.906  -2.135  0.00  0.00    -0.393 OA
HETATM   27  H   UNK N   1      32.245  20.956  -1.694  0.00  0.00     0.209 HD
ENDBRANCH  25  26
ENDBRANCH  23  25
ENDBRANCH   6  23
BRANCH   9  28
HETATM   28  O   UNK N   1      30.081  25.162  -2.965  0.00  0.00    -0.395 OA
HETATM   29  H   UNK N   1      29.430  25.875  -2.879  0.00  0.00     0.210 HD
ENDBRANCH   9  28
TORSDOF 5
ENDMDL
MODEL 3
REMARK VINA RESULT:      -7.0     20.234     23.825
REMARK  5 active torsions:
REMARK  status: ('A' for Active; 'I' for Inactive)
REMARK    1  A    between atoms: C_10  and  O_1 
REMARK    2  A    between atoms: C_13  and  O_2 
REMARK    3  A    between atoms: O_4  and  C_26 
REMARK    4  A    between atoms: C_10  and  C_22 
REMARK    5  A    between atoms: C_22  and  C_26 
ROOT
HETATM    1  O   UNK N   1      33.632  19.394  -4.178  0.00  0.00    -0.293 OA
HETATM    2  C   UNK N   1      27.346  25.053  -5.112  0.00  0.00     0.001 C 
HETATM    3  C   UNK N   1      27.863  24.110  -6.200  0.00  0.00     0.002 C 
HETATM    4  C   UNK N   1      28.562  22.880  -5.606  0.00  0.00    -0.002 C 
HETATM    5  C   UNK N   1      29.806  23.397  -4.805  0.00  0.00     0.031 C 
HETATM    6  C   UNK N   1      26.644  26.117  -5.986  0.00  0.00     0.128 C 
HETATM    7  C   UNK N   1      28.521  25.544  -4.254  0.00  0.00     0.045 C 
HETATM    8  C   UNK N   1      30.685  22.195  -4.342  0.00  0.00    -0.014 C 
HETATM    9  C   UNK N   1      29.328  24.359  -3.676  0.00  0.00     0.124 C 
HETATM   10  C   UNK N   1      26.641  23.894  -7.074  0.00  0.00     0.009 C 
HETATM   11  C   UNK N   1      25.934  25.260  -7.058  0.00  0.00     0.047 C 
HETATM   12  C   UNK N   1      28.917  21.865  -6.713  0.00  0.00     0.010 C 
HETATM   13  C   UNK N   1      26.324  24.354  -4.194  0.00  0.00     0.019 C 
HETATM   14  C   UNK N   1      31.065  21.374  -5.574  0.00  0.00    -0.068 C 
HETATM   15  C   UNK N   1      30.413  21.650  -6.898  0.00  0.00     0.035 C 
HETATM   16  C   UNK N   1      31.992  22.638  -3.665  0.00  0.00     0.022 C 
HETATM   17  C   UNK N   1      29.901  21.318  -3.361  0.00  0.00     0.020 C 
HETATM   18  C   UNK N   1      32.853  21.427  -3.247  0.00  0.00     0.084 C 
HETATM   19  C   UNK N   1      32.055  20.472  -5.520  0.00  0.00     0.053 C 
HETATM   20  C   UNK N   1      32.880  20.346  -4.303  0.00  0.00     0.149 C 
ENDROOT
BRANCH   6  21
HETATM   21  O   UNK N   1      27.605  26.903  -6.633  0.00  0.00    -0.381 OA
HETATM   22  H   UNK N   1      28.093  27.465  -7.256  0.00  0.00     0.211 HD
ENDBRANCH   6  21
BRANCH   6  23
HETATM   23  C   UNK N   1      25.706  27.045  -5.235  0.00  0.00     0.184 C 
HETATM   24  O   UNK N   1      24.512  27.023  -5.484  0.00  0.00    -0.292 OA
BRANCH  23  25
HETATM   25  C   UNK N   1      26.201  27.963  -4.154  0.00  0.00     0.245 C 
BRANCH  25  26
HETATM   26  O   UNK N   1      25.483  27.764  -2.973  0.00  0.00    -0.393 OA
HETATM   27  H   UNK N   1      24.595  27.587  -2.628  0.00  0.00     0.209 HD
ENDBRANCH  25  26
ENDBRANCH  23  25
ENDBRANCH   6  23
BRANCH   9  28
HETATM   28  O   UNK N   1      30.409  24.871  -2.957  0.00  0.00    -0.395 OA
HETATM   29  H   UNK N   1      31.210  25.202  -3.392  0.00  0.00     0.210 HD
ENDBRANCH   9  28
TORSDOF 5
ENDMDL
MODEL 4
REMARK VINA RESULT:      -6.9      4.151      9.667
REMARK  5 active torsions:
REMARK  status: ('A' for Active; 'I' for Inactive)
REMARK    1  A    between atoms: C_10  and  O_1 
REMARK    2  A    between atoms: C_13  and  O_2 
REMARK    3  A    between atoms: O_4  and  C_26 
REMARK    4  A    between atoms: C_10  and  C_22 
REMARK    5  A    between atoms: C_22  and  C_26 
ROOT
HETATM    1  O   UNK N   1      31.952  17.126   2.586  0.00  0.00    -0.293 OA
HETATM    2  C   UNK N   1      35.740  14.208   9.625  0.00  0.00     0.001 C 
HETATM    3  C   UNK N   1      35.284  15.650   9.392  0.00  0.00     0.002 C 
HETATM    4  C   UNK N   1      34.180  15.736   8.331  0.00  0.00    -0.002 C 
HETATM    5  C   UNK N   1      34.791  15.215   6.984  0.00  0.00     0.031 C 
HETATM    6  C   UNK N   1      36.761  14.426  10.765  0.00  0.00     0.128 C 
HETATM    7  C   UNK N   1      36.294  13.624   8.317  0.00  0.00     0.045 C 
HETATM    8  C   UNK N   1      33.795  15.463   5.811  0.00  0.00    -0.014 C 
HETATM    9  C   UNK N   1      35.265  13.742   7.169  0.00  0.00     0.124 C 
HETATM   10  C   UNK N   1      34.977  16.141  10.796  0.00  0.00     0.009 C 
HETATM   11  C   UNK N   1      36.049  15.461  11.664  0.00  0.00     0.047 C 
HETATM   12  C   UNK N   1      33.619  17.171   8.242  0.00  0.00     0.010 C 
HETATM   13  C   UNK N   1      34.579  13.317  10.109  0.00  0.00     0.019 C 
HETATM   14  C   UNK N   1      33.453  16.953   5.776  0.00  0.00    -0.068 C 
HETATM   15  C   UNK N   1      33.871  17.851   6.903  0.00  0.00     0.035 C 
HETATM   16  C   UNK N   1      34.386  15.097   4.440  0.00  0.00     0.022 C 
HETATM   17  C   UNK N   1      32.517  14.646   6.024  0.00  0.00     0.020 C 
HETATM   18  C   UNK N   1      33.388  15.383   3.297  0.00  0.00     0.084 C 
HETATM   19  C   UNK N   1      32.870  17.499   4.700  0.00  0.00     0.053 C 
HETATM   20  C   UNK N   1      32.664  16.697   3.479  0.00  0.00     0.149 C 
ENDROOT
BRANCH   6  21
HETATM   21  O   UNK N   1      37.917  15.027  10.252  0.00  0.00    -0.381 OA
HETATM   22  H   UNK N   1      38.602  15.407   9.677  0.00  0.00     0.211 HD
ENDBRANCH   6  21
BRANCH   6  23
HETATM   23  C   UNK N   1      37.176  13.166  11.503  0.00  0.00     0.184 C 
HETATM   24  O   UNK N   1      37.917  12.366  10.957  0.00  0.00    -0.292 OA
BRANCH  23  25
HETATM   25  C   UNK N   1      36.736  12.897  12.914  0.00  0.00     0.245 C 
BRANCH  25  26
HETATM   26  O   UNK N   1      37.732  12.220  13.619  0.00  0.00    -0.393 OA
HETATM   27  H   UNK N   1      37.932  11.382  14.066  0.00  0.00     0.209 HD
ENDBRANCH  25  26
ENDBRANCH  23  25
ENDBRANCH   6  23
BRANCH   9  28
HETATM   28  O   UNK N   1      35.848  13.248   6.002  0.00  0.00    -0.395 OA
HETATM   29  H   UNK N   1      36.732  13.519   5.710  0.00  0.00     0.210 HD
ENDBRANCH   9  28
TORSDOF 5
ENDMDL
MODEL 5
REMARK VINA RESULT:      -6.8      1.791      3.126
REMARK  5 active torsions:
REMARK  status: ('A' for Active; 'I' for Inactive)
REMARK    1  A    between atoms: C_10  and  O_1 
REMARK    2  A    between atoms: C_13  and  O_2 
REMARK    3  A    between atoms: O_4  and  C_26 
REMARK    4  A    between atoms: C_10  and  C_22 
REMARK    5  A    between atoms: C_22  and  C_26 
ROOT
HETATM    1  O   UNK N   1      35.797   9.129  19.457  0.00  0.00    -0.293 OA
HETATM    2  C   UNK N   1      36.348  12.570  11.693  0.00  0.00     0.001 C 
HETATM    3  C   UNK N   1      37.247  11.459  12.240  0.00  0.00     0.002 C 
HETATM    4  C   UNK N   1      36.575  10.692  13.387  0.00  0.00    -0.002 C 
HETATM    5  C   UNK N   1      36.334  11.715  14.550  0.00  0.00     0.031 C 
HETATM    6  C   UNK N   1      37.232  13.090  10.538  0.00  0.00     0.128 C 
HETATM    7  C   UNK N   1      36.028  13.572  12.811  0.00  0.00     0.045 C 
HETATM    8  C   UNK N   1      35.843  10.969  15.828  0.00  0.00    -0.014 C 
HETATM    9  C   UNK N   1      35.414  12.865  14.042  0.00  0.00     0.124 C 
HETATM   10  C   UNK N   1      37.641  10.692  10.991  0.00  0.00     0.009 C 
HETATM   11  C   UNK N   1      37.785  11.787   9.920  0.00  0.00     0.047 C 
HETATM   12  C   UNK N   1      37.426   9.473  13.800  0.00  0.00     0.010 C 
HETATM   13  C   UNK N   1      35.022  12.007  11.143  0.00  0.00     0.019 C 
HETATM   14  C   UNK N   1      36.867   9.891  16.181  0.00  0.00    -0.068 C 
HETATM   15  C   UNK N   1      37.970   9.552  15.221  0.00  0.00     0.035 C 
HETATM   16  C   UNK N   1      35.715  11.897  17.047  0.00  0.00     0.022 C 
HETATM   17  C   UNK N   1      34.481  10.319  15.566  0.00  0.00     0.020 C 
HETATM   18  C   UNK N   1      35.256  11.124  18.302  0.00  0.00     0.084 C 
HETATM   19  C   UNK N   1      36.863   9.309  17.388  0.00  0.00     0.053 C 
HETATM   20  C   UNK N   1      35.948   9.788  18.441  0.00  0.00     0.149 C 
ENDROOT
BRANCH   6  21
HETATM   21  O   UNK N   1      38.314  13.810  11.060  0.00  0.00    -0.381 OA
HETATM   22  H   UNK N   1      39.089  14.104  11.565  0.00  0.00     0.211 HD
ENDBRANCH   6  21
BRANCH   6  23
HETATM   23  C   UNK N   1      36.518  13.979   9.535  0.00  0.00     0.184 C 
HETATM   24  O   UNK N   1      36.360  13.588   8.390  0.00  0.00    -0.292 OA
BRANCH  23  25
HETATM   25  C   UNK N   1      35.953  15.315   9.926  0.00  0.00     0.245 C 
BRANCH  25  26
HETATM   26  O   UNK N   1      36.905  16.072  10.608  0.00  0.00    -0.393 OA
HETATM   27  H   UNK N   1      37.823  16.062  10.923  0.00  0.00     0.209 HD
ENDBRANCH  25  26
ENDBRANCH  23  25
ENDBRANCH   6  23
BRANCH   9  28
HETATM   28  O   UNK N   1      35.201  13.819  15.038  0.00  0.00    -0.395 OA
HETATM   29  H   UNK N   1      35.679  14.662  15.058  0.00  0.00     0.210 HD
ENDBRANCH   9  28
TORSDOF 5
ENDMDL
MODEL 6
REMARK VINA RESULT:      -6.7      7.225     12.071
REMARK  5 active torsions:
REMARK  status: ('A' for Active; 'I' for Inactive)
REMARK    1  A    between atoms: C_10  and  O_1 
REMARK    2  A    between atoms: C_13  and  O_2 
REMARK    3  A    between atoms: O_4  and  C_26 
REMARK    4  A    between atoms: C_10  and  C_22 
REMARK    5  A    between atoms: C_22  and  C_26 
ROOT
HETATM    1  O   UNK N   1      25.887  15.321   1.651  0.00  0.00    -0.293 OA
HETATM    2  C   UNK N   1      32.420  16.176   7.037  0.00  0.00     0.001 C 
HETATM    3  C   UNK N   1      31.306  17.202   6.819  0.00  0.00     0.002 C 
HETATM    4  C   UNK N   1      30.036  16.556   6.251  0.00  0.00    -0.002 C 
HETATM    5  C   UNK N   1      30.406  15.961   4.849  0.00  0.00     0.031 C 
HETATM    6  C   UNK N   1      33.502  17.080   7.670  0.00  0.00     0.128 C 
HETATM    7  C   UNK N   1      32.782  15.514   5.700  0.00  0.00     0.045 C 
HETATM    8  C   UNK N   1      29.120  15.468   4.119  0.00  0.00    -0.014 C 
HETATM    9  C   UNK N   1      31.535  14.901   5.021  0.00  0.00     0.124 C 
HETATM   10  C   UNK N   1      31.221  17.905   8.162  0.00  0.00     0.009 C 
HETATM   11  C   UNK N   1      32.683  17.963   8.638  0.00  0.00     0.047 C 
HETATM   12  C   UNK N   1      28.878  17.575   6.206  0.00  0.00     0.010 C 
HETATM   13  C   UNK N   1      31.991  15.077   8.030  0.00  0.00     0.019 C 
HETATM   14  C   UNK N   1      28.137  16.635   4.033  0.00  0.00    -0.068 C 
HETATM   15  C   UNK N   1      28.396  17.900   4.798  0.00  0.00     0.035 C 
HETATM   16  C   UNK N   1      29.395  14.994   2.682  0.00  0.00     0.022 C 
HETATM   17  C   UNK N   1      28.483  14.314   4.898  0.00  0.00     0.020 C 
HETATM   18  C   UNK N   1      28.100  14.542   1.976  0.00  0.00     0.084 C 
HETATM   19  C   UNK N   1      27.089  16.591   3.198  0.00  0.00     0.053 C 
HETATM   20  C   UNK N   1      26.937  15.467   2.255  0.00  0.00     0.149 C 
ENDROOT
BRANCH   6  21
HETATM   21  O   UNK N   1      34.051  17.914   6.689  0.00  0.00    -0.381 OA
HETATM   22  H   UNK N   1      34.581  18.295   5.970  0.00  0.00     0.211 HD
ENDBRANCH   6  21
BRANCH   6  23
HETATM   23  C   UNK N   1      34.640  16.338   8.346  0.00  0.00     0.184 C 
HETATM   24  O   UNK N   1      35.396  15.654   7.674  0.00  0.00    -0.292 OA
BRANCH  23  25
HETATM   25  C   UNK N   1      34.897  16.458   9.822  0.00  0.00     0.245 C 
BRANCH  25  26
HETATM   26  O   UNK N   1      35.744  17.534  10.088  0.00  0.00    -0.393 OA
HETATM   27  H   UNK N   1      35.751  18.484  10.284  0.00  0.00     0.209 HD
ENDBRANCH  25  26
ENDBRANCH  23  25
ENDBRANCH   6  23
BRANCH   9  28
HETATM   28  O   UNK N   1      31.920  14.368   3.790  0.00  0.00    -0.395 OA
HETATM   29  H   UNK N   1      32.250  13.461   3.699  0.00  0.00     0.210 HD
ENDBRANCH   9  28
TORSDOF 5
ENDMDL
MODEL 7
REMARK VINA RESULT:      -6.6      9.435     12.904
REMARK  5 active torsions:
REMARK  status: ('A' for Active; 'I' for Inactive)
REMARK    1  A    between atoms: C_10  and  O_1 
REMARK    2  A    between atoms: C_13  and  O_2 
REMARK    3  A    between atoms: O_4  and  C_26 
REMARK    4  A    between atoms: C_10  and  C_22 
REMARK    5  A    between atoms: C_22  and  C_26 
ROOT
HETATM    1  O   UNK N   1      34.923  17.623   7.180  0.00  0.00    -0.293 OA
HETATM    2  C   UNK N   1      26.906  16.014   4.826  0.00  0.00     0.001 C 
HETATM    3  C   UNK N   1      28.057  16.367   3.882  0.00  0.00     0.002 C 
HETATM    4  C   UNK N   1      29.424  16.050   4.502  0.00  0.00    -0.002 C 
HETATM    5  C   UNK N   1      29.572  16.948   5.778  0.00  0.00     0.031 C 
HETATM    6  C   UNK N   1      25.699  16.356   3.923  0.00  0.00     0.128 C 
HETATM    7  C   UNK N   1      27.036  16.823   6.124  0.00  0.00     0.045 C 
HETATM    8  C   UNK N   1      31.019  16.834   6.349  0.00  0.00    -0.014 C 
HETATM    9  C   UNK N   1      28.423  16.617   6.777  0.00  0.00     0.124 C 
HETATM   10  C   UNK N   1      27.668  15.666   2.592  0.00  0.00     0.009 C 
HETATM   11  C   UNK N   1      26.137  15.804   2.548  0.00  0.00     0.047 C 
HETATM   12  C   UNK N   1      30.552  16.250   3.469  0.00  0.00     0.010 C 
HETATM   13  C   UNK N   1      26.903  14.513   5.179  0.00  0.00     0.019 C 
HETATM   14  C   UNK N   1      32.005  17.202   5.240  0.00  0.00    -0.068 C 
HETATM   15  C   UNK N   1      31.527  17.364   3.827  0.00  0.00     0.035 C 
HETATM   16  C   UNK N   1      31.272  17.792   7.524  0.00  0.00     0.022 C 
HETATM   17  C   UNK N   1      31.286  15.402   6.822  0.00  0.00     0.020 C 
HETATM   18  C   UNK N   1      32.720  17.678   8.047  0.00  0.00     0.084 C 
HETATM   19  C   UNK N   1      33.283  17.487   5.525  0.00  0.00     0.053 C 
HETATM   20  C   UNK N   1      33.731  17.574   6.928  0.00  0.00     0.149 C 
ENDROOT
BRANCH   6  21
HETATM   21  O   UNK N   1      25.577  17.746   3.808  0.00  0.00    -0.381 OA
HETATM   22  H   UNK N   1      25.273  18.668   3.842  0.00  0.00     0.211 HD
ENDBRANCH   6  21
BRANCH   6  23
HETATM   23  C   UNK N   1      24.367  15.805   4.399  0.00  0.00     0.184 C 
HETATM   24  O   UNK N   1      23.796  14.956   3.736  0.00  0.00    -0.292 OA
BRANCH  23  25
HETATM   25  C   UNK N   1      23.749  16.243   5.697  0.00  0.00     0.245 C 
BRANCH  25  26
HETATM   26  O   UNK N   1      23.475  17.611   5.675  0.00  0.00    -0.393 OA
HETATM   27  H   UNK N   1      23.297  18.356   5.080  0.00  0.00     0.209 HD
ENDBRANCH  25  26
ENDBRANCH  23  25
ENDBRANCH   6  23
BRANCH   9  28
HETATM   28  O   UNK N   1      28.497  17.420   7.916  0.00  0.00    -0.395 OA
HETATM   29  H   UNK N   1      28.058  18.283   7.971  0.00  0.00     0.210 HD
ENDBRANCH   9  28
TORSDOF 5
ENDMDL
MODEL 8
REMARK VINA RESULT:      -6.4     13.597     17.579
REMARK  5 active torsions:
REMARK  status: ('A' for Active; 'I' for Inactive)
REMARK    1  A    between atoms: C_10  and  O_1 
REMARK    2  A    between atoms: C_13  and  O_2 
REMARK    3  A    between atoms: O_4  and  C_26 
REMARK    4  A    between atoms: C_10  and  C_22 
REMARK    5  A    between atoms: C_22  and  C_26 
ROOT
HETATM    1  O   UNK N   1      20.312  17.546   0.025  0.00  0.00    -0.293 OA
HETATM    2  C   UNK N   1      22.707  13.706   7.231  0.00  0.00     0.001 C 
HETATM    3  C   UNK N   1      22.325  12.998   5.930  0.00  0.00     0.002 C 
HETATM    4  C   UNK N   1      22.491  13.914   4.711  0.00  0.00    -0.002 C 
HETATM    5  C   UNK N   1      21.503  15.116   4.897  0.00  0.00     0.031 C 
HETATM    6  C   UNK N   1      22.522  12.546   8.236  0.00  0.00     0.128 C 
HETATM    7  C   UNK N   1      21.807  14.934   7.435  0.00  0.00     0.045 C 
HETATM    8  C   UNK N   1      21.463  15.984   3.602  0.00  0.00    -0.014 C 
HETATM    9  C   UNK N   1      21.858  15.876   6.210  0.00  0.00     0.124 C 
HETATM   10  C   UNK N   1      23.138  11.717   5.987  0.00  0.00     0.009 C 
HETATM   11  C   UNK N   1      23.126  11.343   7.479  0.00  0.00     0.047 C 
HETATM   12  C   UNK N   1      22.269  13.127   3.402  0.00  0.00     0.010 C 
HETATM   13  C   UNK N   1      24.177  14.171   7.214  0.00  0.00     0.019 C 
HETATM   14  C   UNK N   1      21.091  15.080   2.427  0.00  0.00    -0.068 C 
HETATM   15  C   UNK N   1      21.060  13.590   2.600  0.00  0.00     0.035 C 
HETATM   16  C   UNK N   1      20.413  17.105   3.668  0.00  0.00     0.022 C 
HETATM   17  C   UNK N   1      22.835  16.617   3.351  0.00  0.00     0.020 C 
HETATM   18  C   UNK N   1      20.377  17.926   2.362  0.00  0.00     0.084 C 
HETATM   19  C   UNK N   1      20.687  15.601   1.260  0.00  0.00     0.053 C 
HETATM   20  C   UNK N   1      20.473  17.055   1.130  0.00  0.00     0.149 C 
ENDROOT
BRANCH   6  21
HETATM   21  O   UNK N   1      21.157  12.297   8.420  0.00  0.00    -0.381 OA
HETATM   22  H   UNK N   1      20.201  12.372   8.576  0.00  0.00     0.211 HD
ENDBRANCH   6  21
BRANCH   6  23
HETATM   23  C   UNK N   1      23.145  12.777   9.601  0.00  0.00     0.184 C 
HETATM   24  O   UNK N   1      22.544  13.436  10.433  0.00  0.00    -0.292 OA
BRANCH  23  25
HETATM   25  C   UNK N   1      24.468  12.173   9.978  0.00  0.00     0.245 C 
BRANCH  25  26
HETATM   26  O   UNK N   1      25.264  13.106  10.643  0.00  0.00    -0.393 OA
HETATM   27  H   UNK N   1      25.326  14.046  10.874  0.00  0.00     0.209 HD
ENDBRANCH  25  26
ENDBRANCH  23  25
ENDBRANCH   6  23
BRANCH   9  28
HETATM   28  O   UNK N   1      20.979  16.937   6.433  0.00  0.00    -0.395 OA
HETATM   29  H   UNK N   1      20.974  17.439   7.263  0.00  0.00     0.210 HD
ENDBRANCH   9  28
TORSDOF 5
ENDMDL
MODEL 9
REMARK VINA RESULT:      -6.3     20.674     22.118
REMARK  5 active torsions:
REMARK  status: ('A' for Active; 'I' for Inactive)
REMARK    1  A    between atoms: C_10  and  O_1 
REMARK    2  A    between atoms: C_13  and  O_2 
REMARK    3  A    between atoms: O_4  and  C_26 
REMARK    4  A    between atoms: C_10  and  C_22 
REMARK    5  A    between atoms: C_22  and  C_26 
ROOT
HETATM    1  O   UNK N   1      37.292  18.602  -7.514  0.00  0.00    -0.293 OA
HETATM    2  C   UNK N   1      30.646  22.595  -4.005  0.00  0.00     0.001 C 
HETATM    3  C   UNK N   1      32.036  23.199  -4.218  0.00  0.00     0.002 C 
HETATM    4  C   UNK N   1      32.807  22.479  -5.332  0.00  0.00    -0.002 C 
HETATM    5  C   UNK N   1      33.007  20.994  -4.872  0.00  0.00     0.031 C 
HETATM    6  C   UNK N   1      30.100  23.548  -2.918  0.00  0.00     0.128 C 
HETATM    7  C   UNK N   1      30.780  21.117  -3.610  0.00  0.00     0.045 C 
HETATM    8  C   UNK N   1      33.960  20.250  -5.857  0.00  0.00    -0.014 C 
HETATM    9  C   UNK N   1      31.614  20.332  -4.649  0.00  0.00     0.124 C 
HETATM   10  C   UNK N   1      31.743  24.680  -4.382  0.00  0.00     0.009 C 
HETATM   11  C   UNK N   1      30.580  24.932  -3.409  0.00  0.00     0.047 C 
HETATM   12  C   UNK N   1      34.128  23.213  -5.645  0.00  0.00     0.010 C 
HETATM   13  C   UNK N   1      29.786  22.687  -5.281  0.00  0.00     0.019 C 
HETATM   14  C   UNK N   1      35.271  21.032  -5.942  0.00  0.00    -0.068 C 
HETATM   15  C   UNK N   1      35.377  22.400  -5.333  0.00  0.00     0.035 C 
HETATM   16  C   UNK N   1      34.306  18.826  -5.390  0.00  0.00     0.022 C 
HETATM   17  C   UNK N   1      33.320  20.166  -7.245  0.00  0.00     0.020 C 
HETATM   18  C   UNK N   1      35.274  18.128  -6.368  0.00  0.00     0.084 C 
HETATM   19  C   UNK N   1      36.371  20.474  -6.464  0.00  0.00     0.053 C 
HETATM   20  C   UNK N   1      36.370  19.050  -6.852  0.00  0.00     0.149 C 
ENDROOT
BRANCH   6  21
HETATM   21  O   UNK N   1      30.733  23.282  -1.698  0.00  0.00    -0.381 OA
HETATM   22  H   UNK N   1      31.010  23.270  -0.768  0.00  0.00     0.211 HD
ENDBRANCH   6  21
BRANCH   6  23
HETATM   23  C   UNK N   1      28.600  23.473  -2.696  0.00  0.00     0.184 C 
HETATM   24  O   UNK N   1      28.161  22.785  -1.789  0.00  0.00    -0.292 OA
BRANCH  23  25
HETATM   25  C   UNK N   1      27.635  24.262  -3.534  0.00  0.00     0.245 C 
BRANCH  25  26
HETATM   26  O   UNK N   1      26.395  24.356  -2.901  0.00  0.00    -0.393 OA
HETATM   27  H   UNK N   1      25.807  23.901  -2.279  0.00  0.00     0.209 HD
ENDBRANCH  25  26
ENDBRANCH  23  25
ENDBRANCH   6  23
BRANCH   9  28
HETATM   28  O   UNK N   1      31.746  19.016  -4.204  0.00  0.00    -0.395 OA
HETATM   29  H   UNK N   1      32.602  18.640  -3.946  0.00  0.00     0.210 HD
ENDBRANCH   9  28
TORSDOF 5
ENDMDL
