MODEL 1
REMARK VINA RESULT:      -6.4      0.000      0.000
REMARK  3 active torsions:
REMARK  status: ('A' for Active; 'I' for Inactive)
REMARK    1  A    between atoms: O_2  and  N_4 
REMARK    2  A    between atoms: N_4  and  C_6 
REMARK       I    between atoms: N_4  and  C_16 
REMARK       I    between atoms: N_5  and  C_16 
REMARK    3  A    between atoms: C_6  and  C_7 
ROOT
HETATM    1  C   UNK N   1      19.758  16.190   7.663  0.00  0.00     0.155 C 
HETATM    2  C   UNK N   1      19.335  16.091   6.200  0.00  0.00     0.041 C 
ENDROOT
BRANCH   1   3
HETATM    3  N   UNK N   1      19.284  17.283   8.526  0.00  0.00    -0.201 N 
HETATM    4  C   UNK N   1      18.092  17.253   9.192  0.00  0.00     0.340 C 
HETATM    5  O   UNK N   1      17.339  16.297   9.104  0.00  0.00    -0.245 OA
HETATM    6  N   UNK N   1      17.732  18.300   9.965  0.00  0.00    -0.350 N 
HETATM    7  H   UNK N   1      18.327  19.078  10.047  0.00  0.00     0.160 HD
HETATM    8  H   UNK N   1      16.873  18.283  10.447  0.00  0.00     0.160 HD
BRANCH   3   9
HETATM    9  O   UNK N   1      20.054  18.372   8.677  0.00  0.00    -0.283 OA
HETATM   10  H   UNK N   1      20.642  18.652   7.959  0.00  0.00     0.245 HD
ENDBRANCH   3   9
ENDBRANCH   1   3
BRANCH   1  11
HETATM   11  C   UNK N   1      20.684  15.144   8.236  0.00  0.00     0.009 A 
HETATM   12  S   UNK N   1      22.140  14.638   7.587  0.00  0.00    -0.092 SA
HETATM   13  C   UNK N   1      22.546  13.518   8.736  0.00  0.00     0.015 A 
HETATM   14  C   UNK N   1      21.530  13.505   9.684  0.00  0.00    -0.018 A 
HETATM   15  C   UNK N   1      23.661  12.693   8.834  0.00  0.00     0.019 A 
HETATM   16  C   UNK N   1      20.477  14.413   9.418  0.00  0.00     0.029 A 
HETATM   17  C   UNK N   1      21.597  12.652  10.782  0.00  0.00     0.013 A 
HETATM   18  C   UNK N   1      22.712  11.806  10.908  0.00  0.00     0.001 A 
HETATM   19  C   UNK N   1      23.738  11.827   9.940  0.00  0.00     0.001 A 
ENDBRANCH   1  11
TORSDOF 3
ENDMDL
MODEL 2
REMARK VINA RESULT:      -6.3     14.871     15.643
REMARK  3 active torsions:
REMARK  status: ('A' for Active; 'I' for Inactive)
REMARK    1  A    between atoms: O_2  and  N_4 
REMARK    2  A    between atoms: N_4  and  C_6 
REMARK       I    between atoms: N_4  and  C_16 
REMARK       I    between atoms: N_5  and  C_16 
REMARK    3  A    between atoms: C_6  and  C_7 
ROOT
HETATM    1  C   UNK N   1      35.483  13.602  11.453  0.00  0.00     0.155 C 
HETATM    2  C   UNK N   1      36.292  12.870  10.386  0.00  0.00     0.041 C 
ENDROOT
BRANCH   1   3
HETATM    3  N   UNK N   1      34.827  14.888  11.170  0.00  0.00    -0.201 N 
HETATM    4  C   UNK N   1      35.510  16.026  10.844  0.00  0.00     0.340 C 
HETATM    5  O   UNK N   1      36.727  16.037  10.767  0.00  0.00    -0.245 OA
HETATM    6  N   UNK N   1      34.830  17.166  10.599  0.00  0.00    -0.350 N 
HETATM    7  H   UNK N   1      33.848  17.176  10.656  0.00  0.00     0.160 HD
HETATM    8  H   UNK N   1      35.317  17.989  10.363  0.00  0.00     0.160 HD
BRANCH   3   9
HETATM    9  O   UNK N   1      33.489  14.962  11.233  0.00  0.00    -0.283 OA
HETATM   10  H   UNK N   1      32.986  14.263  11.679  0.00  0.00     0.245 HD
ENDBRANCH   3   9
ENDBRANCH   1   3
BRANCH   1  11
HETATM   11  C   UNK N   1      35.354  12.994  12.829  0.00  0.00     0.009 A 
HETATM   12  S   UNK N   1      34.887  11.428  13.186  0.00  0.00    -0.092 SA
HETATM   13  C   UNK N   1      34.984  11.513  14.836  0.00  0.00     0.015 A 
HETATM   14  C   UNK N   1      35.394  12.799  15.165  0.00  0.00    -0.018 A 
HETATM   15  C   UNK N   1      34.728  10.547  15.803  0.00  0.00     0.019 A 
HETATM   16  C   UNK N   1      35.606  13.643  14.049  0.00  0.00     0.029 A 
HETATM   17  C   UNK N   1      35.565  13.169  16.496  0.00  0.00     0.013 A 
HETATM   18  C   UNK N   1      35.313  12.214  17.496  0.00  0.00     0.001 A 
HETATM   19  C   UNK N   1      34.897  10.911  17.151  0.00  0.00     0.001 A 
ENDBRANCH   1  11
TORSDOF 3
ENDMDL
MODEL 3
REMARK VINA RESULT:      -6.1     15.104     16.866
REMARK  3 active torsions:
REMARK  status: ('A' for Active; 'I' for Inactive)
REMARK    1  A    between atoms: O_2  and  N_4 
REMARK    2  A    between atoms: N_4  and  C_6 
REMARK       I    between atoms: N_4  and  C_16 
REMARK       I    between atoms: N_5  and  C_16 
REMARK    3  A    between atoms: C_6  and  C_7 
ROOT
HETATM    1  C   UNK N   1      34.793  11.651  13.591  0.00  0.00     0.155 C 
HETATM    2  C   UNK N   1      34.051  10.506  12.907  0.00  0.00     0.041 C 
ENDROOT
BRANCH   1   3
HETATM    3  N   UNK N   1      35.357  12.769  12.819  0.00  0.00    -0.201 N 
HETATM    4  C   UNK N   1      36.681  12.868  12.494  0.00  0.00     0.340 C 
HETATM    5  O   UNK N   1      37.484  12.015  12.836  0.00  0.00    -0.245 OA
HETATM    6  N   UNK N   1      37.117  13.928  11.782  0.00  0.00    -0.350 N 
HETATM    7  H   UNK N   1      36.483  14.625  11.499  0.00  0.00     0.160 HD
HETATM    8  H   UNK N   1      38.070  14.003  11.546  0.00  0.00     0.160 HD
BRANCH   3   9
HETATM    9  O   UNK N   1      34.541  13.750  12.405  0.00  0.00    -0.283 OA
HETATM   10  H   UNK N   1      34.729  14.221  11.578  0.00  0.00     0.245 HD
ENDBRANCH   3   9
ENDBRANCH   1   3
BRANCH   1  11
HETATM   11  C   UNK N   1      34.950  11.637  15.093  0.00  0.00     0.009 A 
HETATM   12  S   UNK N   1      35.183  10.290  16.058  0.00  0.00    -0.092 SA
HETATM   13  C   UNK N   1      35.260  11.050  17.526  0.00  0.00     0.015 A 
HETATM   14  C   UNK N   1      35.102  12.413  17.300  0.00  0.00    -0.018 A 
HETATM   15  C   UNK N   1      35.444  10.527  18.801  0.00  0.00     0.019 A 
HETATM   16  C   UNK N   1      34.927  12.758  15.939  0.00  0.00     0.029 A 
HETATM   17  C   UNK N   1      35.123  13.313  18.362  0.00  0.00     0.013 A 
HETATM   18  C   UNK N   1      35.307  12.813  19.662  0.00  0.00     0.001 A 
HETATM   19  C   UNK N   1      35.467  11.428  19.880  0.00  0.00     0.001 A 
ENDBRANCH   1  11
TORSDOF 3
ENDMDL
MODEL 4
REMARK VINA RESULT:      -5.9     15.085     16.780
REMARK  3 active torsions:
REMARK  status: ('A' for Active; 'I' for Inactive)
REMARK    1  A    between atoms: O_2  and  N_4 
REMARK    2  A    between atoms: N_4  and  C_6 
REMARK       I    between atoms: N_4  and  C_16 
REMARK       I    between atoms: N_5  and  C_16 
REMARK    3  A    between atoms: C_6  and  C_7 
ROOT
HETATM    1  C   UNK N   1      34.780  11.651  13.531  0.00  0.00     0.155 C 
HETATM    2  C   UNK N   1      34.165  10.410  12.891  0.00  0.00     0.041 C 
ENDROOT
BRANCH   1   3
HETATM    3  N   UNK N   1      35.234  12.790  12.717  0.00  0.00    -0.201 N 
HETATM    4  C   UNK N   1      36.538  12.990  12.362  0.00  0.00     0.340 C 
HETATM    5  O   UNK N   1      37.416  12.218  12.710  0.00  0.00    -0.245 OA
HETATM    6  N   UNK N   1      36.869  14.062  11.612  0.00  0.00    -0.350 N 
HETATM    7  H   UNK N   1      36.174  14.695  11.323  0.00  0.00     0.160 HD
HETATM    8  H   UNK N   1      37.808  14.210  11.354  0.00  0.00     0.160 HD
BRANCH   3   9
HETATM    9  O   UNK N   1      34.329  13.686  12.293  0.00  0.00    -0.283 OA
HETATM   10  H   UNK N   1      34.439  14.114  11.430  0.00  0.00     0.245 HD
ENDBRANCH   3   9
ENDBRANCH   1   3
BRANCH   1  11
HETATM   11  C   UNK N   1      34.927  11.712  15.032  0.00  0.00     0.009 A 
HETATM   12  S   UNK N   1      34.965  13.093  15.976  0.00  0.00    -0.092 SA
HETATM   13  C   UNK N   1      35.141  12.375  17.457  0.00  0.00     0.015 A 
HETATM   14  C   UNK N   1      35.175  11.000  17.253  0.00  0.00    -0.018 A 
HETATM   15  C   UNK N   1      35.244  12.939  18.723  0.00  0.00     0.019 A 
HETATM   16  C   UNK N   1      35.056  10.612  15.897  0.00  0.00     0.029 A 
HETATM   17  C   UNK N   1      35.316  10.129  18.329  0.00  0.00     0.013 A 
HETATM   18  C   UNK N   1      35.423  10.670  19.622  0.00  0.00     0.001 A 
HETATM   19  C   UNK N   1      35.387  12.067  19.818  0.00  0.00     0.001 A 
ENDBRANCH   1  11
TORSDOF 3
ENDMDL
MODEL 5
REMARK VINA RESULT:      -5.9      7.397      8.382
REMARK  3 active torsions:
REMARK  status: ('A' for Active; 'I' for Inactive)
REMARK    1  A    between atoms: O_2  and  N_4 
REMARK    2  A    between atoms: N_4  and  C_6 
REMARK       I    between atoms: N_4  and  C_16 
REMARK       I    between atoms: N_5  and  C_16 
REMARK    3  A    between atoms: C_6  and  C_7 
ROOT
HETATM    1  C   UNK N   1      21.073  19.809   2.683  0.00  0.00     0.155 C 
HETATM    2  C   UNK N   1      20.215  20.833   3.422  0.00  0.00     0.041 C 
ENDROOT
BRANCH   1   3
HETATM    3  N   UNK N   1      20.534  19.021   1.565  0.00  0.00    -0.201 N 
HETATM    4  C   UNK N   1      19.940  17.800   1.720  0.00  0.00     0.340 C 
HETATM    5  O   UNK N   1      19.822  17.287   2.821  0.00  0.00    -0.245 OA
HETATM    6  N   UNK N   1      19.471  17.142   0.639  0.00  0.00    -0.350 N 
HETATM    7  H   UNK N   1      19.557  17.542  -0.256  0.00  0.00     0.160 HD
HETATM    8  H   UNK N   1      19.042  16.262   0.747  0.00  0.00     0.160 HD
BRANCH   3   9
HETATM    9  O   UNK N   1      20.623  19.515   0.320  0.00  0.00    -0.283 OA
HETATM   10  H   UNK N   1      20.562  20.472   0.173  0.00  0.00     0.245 HD
ENDBRANCH   3   9
ENDBRANCH   1   3
BRANCH   1  11
HETATM   11  C   UNK N   1      22.506  19.602   3.110  0.00  0.00     0.009 A 
HETATM   12  S   UNK N   1      23.093  18.356   4.061  0.00  0.00    -0.092 SA
HETATM   13  C   UNK N   1      24.688  18.797   4.087  0.00  0.00     0.015 A 
HETATM   14  C   UNK N   1      24.813  19.960   3.335  0.00  0.00    -0.018 A 
HETATM   15  C   UNK N   1      25.777  18.196   4.708  0.00  0.00     0.019 A 
HETATM   16  C   UNK N   1      23.597  20.424   2.780  0.00  0.00     0.029 A 
HETATM   17  C   UNK N   1      26.054  20.570   3.177  0.00  0.00     0.013 A 
HETATM   18  C   UNK N   1      27.173  19.985   3.793  0.00  0.00     0.001 A 
HETATM   19  C   UNK N   1      27.036  18.805   4.554  0.00  0.00     0.001 A 
ENDBRANCH   1  11
TORSDOF 3
ENDMDL
MODEL 6
REMARK VINA RESULT:      -5.9     14.664     15.978
REMARK  3 active torsions:
REMARK  status: ('A' for Active; 'I' for Inactive)
REMARK    1  A    between atoms: O_2  and  N_4 
REMARK    2  A    between atoms: N_4  and  C_6 
REMARK       I    between atoms: N_4  and  C_16 
REMARK       I    between atoms: N_5  and  C_16 
REMARK    3  A    between atoms: C_6  and  C_7 
ROOT
HETATM    1  C   UNK N   1      36.263  13.727  10.945  0.00  0.00     0.155 C 
HETATM    2  C   UNK N   1      36.512  12.813   9.749  0.00  0.00     0.041 C 
ENDROOT
BRANCH   1   3
HETATM    3  N   UNK N   1      36.071  15.176  10.776  0.00  0.00    -0.201 N 
HETATM    4  C   UNK N   1      34.857  15.751  10.528  0.00  0.00     0.340 C 
HETATM    5  O   UNK N   1      33.843  15.079  10.432  0.00  0.00    -0.245 OA
HETATM    6  N   UNK N   1      34.768  17.091  10.386  0.00  0.00    -0.350 N 
HETATM    7  H   UNK N   1      35.576  17.648  10.461  0.00  0.00     0.160 HD
HETATM    8  H   UNK N   1      33.895  17.510  10.207  0.00  0.00     0.160 HD
BRANCH   3   9
HETATM    9  O   UNK N   1      37.137  15.987  10.867  0.00  0.00    -0.283 OA
HETATM   10  H   UNK N   1      37.231  16.579  11.629  0.00  0.00     0.245 HD
ENDBRANCH   3   9
ENDBRANCH   1   3
BRANCH   1  11
HETATM   11  C   UNK N   1      36.213  13.132  12.331  0.00  0.00     0.009 A 
HETATM   12  S   UNK N   1      37.084  11.815  12.883  0.00  0.00    -0.092 SA
HETATM   13  C   UNK N   1      36.511  11.774  14.436  0.00  0.00     0.015 A 
HETATM   14  C   UNK N   1      35.599  12.814  14.572  0.00  0.00    -0.018 A 
HETATM   15  C   UNK N   1      36.813  10.911  15.483  0.00  0.00     0.019 A 
HETATM   16  C   UNK N   1      35.421  13.586  13.400  0.00  0.00     0.029 A 
HETATM   17  C   UNK N   1      34.948  13.030  15.784  0.00  0.00     0.013 A 
HETATM   18  C   UNK N   1      35.234  12.174  16.861  0.00  0.00     0.001 A 
HETATM   19  C   UNK N   1      36.161  11.121  16.712  0.00  0.00     0.001 A 
ENDBRANCH   1  11
TORSDOF 3
ENDMDL
MODEL 7
REMARK VINA RESULT:      -5.8     10.821     12.365
REMARK  3 active torsions:
REMARK  status: ('A' for Active; 'I' for Inactive)
REMARK    1  A    between atoms: O_2  and  N_4 
REMARK    2  A    between atoms: N_4  and  C_6 
REMARK       I    between atoms: N_4  and  C_16 
REMARK       I    between atoms: N_5  and  C_16 
REMARK    3  A    between atoms: C_6  and  C_7 
ROOT
HETATM    1  C   UNK N   1      32.711  15.182   8.549  0.00  0.00     0.155 C 
HETATM    2  C   UNK N   1      33.048  13.879   7.830  0.00  0.00     0.041 C 
ENDROOT
BRANCH   1   3
HETATM    3  N   UNK N   1      33.454  15.613   9.743  0.00  0.00    -0.201 N 
HETATM    4  C   UNK N   1      34.454  16.544   9.712  0.00  0.00     0.340 C 
HETATM    5  O   UNK N   1      34.792  17.080   8.669  0.00  0.00    -0.245 OA
HETATM    6  N   UNK N   1      35.086  16.884  10.856  0.00  0.00    -0.350 N 
HETATM    7  H   UNK N   1      34.827  16.462  11.705  0.00  0.00     0.160 HD
HETATM    8  H   UNK N   1      35.807  17.555  10.838  0.00  0.00     0.160 HD
BRANCH   3   9
HETATM    9  O   UNK N   1      33.144  15.072  10.931  0.00  0.00    -0.283 OA
HETATM   10  H   UNK N   1      32.708  15.611  11.609  0.00  0.00     0.245 HD
ENDBRANCH   3   9
ENDBRANCH   1   3
BRANCH   1  11
HETATM   11  C   UNK N   1      31.591  16.047   8.023  0.00  0.00     0.009 A 
HETATM   12  S   UNK N   1      30.982  16.051   6.465  0.00  0.00    -0.092 SA
HETATM   13  C   UNK N   1      29.822  17.216   6.657  0.00  0.00     0.015 A 
HETATM   14  C   UNK N   1      29.878  17.647   7.977  0.00  0.00    -0.018 A 
HETATM   15  C   UNK N   1      28.914  17.740   5.744  0.00  0.00     0.019 A 
HETATM   16  C   UNK N   1      30.866  17.000   8.757  0.00  0.00     0.029 A 
HETATM   17  C   UNK N   1      29.010  18.634   8.436  0.00  0.00     0.013 A 
HETATM   18  C   UNK N   1      28.081  19.182   7.536  0.00  0.00     0.001 A 
HETATM   19  C   UNK N   1      28.033  18.738   6.198  0.00  0.00     0.001 A 
ENDBRANCH   1  11
TORSDOF 3
ENDMDL
MODEL 8
REMARK VINA RESULT:      -5.6     23.274     24.504
REMARK  3 active torsions:
REMARK  status: ('A' for Active; 'I' for Inactive)
REMARK    1  A    between atoms: O_2  and  N_4 
REMARK    2  A    between atoms: N_4  and  C_6 
REMARK       I    between atoms: N_4  and  C_16 
REMARK       I    between atoms: N_5  and  C_16 
REMARK    3  A    between atoms: C_6  and  C_7 
ROOT
HETATM    1  C   UNK N   1      42.582  21.248   2.691  0.00  0.00     0.155 C 
HETATM    2  C   UNK N   1      41.921  20.085   3.425  0.00  0.00     0.041 C 
ENDROOT
BRANCH   1   3
HETATM    3  N   UNK N   1      44.001  21.578   2.897  0.00  0.00    -0.201 N 
HETATM    4  C   UNK N   1      44.482  22.152   4.040  0.00  0.00     0.340 C 
HETATM    5  O   UNK N   1      43.745  22.428   4.972  0.00  0.00    -0.245 OA
HETATM    6  N   UNK N   1      45.800  22.423   4.148  0.00  0.00    -0.350 N 
HETATM    7  H   UNK N   1      46.409  22.207   3.406  0.00  0.00     0.160 HD
HETATM    8  H   UNK N   1      46.152  22.836   4.970  0.00  0.00     0.160 HD
BRANCH   3   9
HETATM    9  O   UNK N   1      44.880  21.306   1.920  0.00  0.00    -0.283 OA
HETATM   10  H   UNK N   1      45.354  22.029   1.480  0.00  0.00     0.245 HD
ENDBRANCH   3   9
ENDBRANCH   1   3
BRANCH   1  11
HETATM   11  C   UNK N   1      41.762  22.077   1.732  0.00  0.00     0.009 A 
HETATM   12  S   UNK N   1      40.823  21.506   0.472  0.00  0.00    -0.092 SA
HETATM   13  C   UNK N   1      40.260  22.957  -0.093  0.00  0.00     0.015 A 
HETATM   14  C   UNK N   1      40.803  23.955   0.707  0.00  0.00    -0.018 A 
HETATM   15  C   UNK N   1      39.406  23.239  -1.153  0.00  0.00     0.019 A 
HETATM   16  C   UNK N   1      41.649  23.478   1.736  0.00  0.00     0.029 A 
HETATM   17  C   UNK N   1      40.504  25.294   0.468  0.00  0.00     0.013 A 
HETATM   18  C   UNK N   1      39.644  25.610  -0.597  0.00  0.00     0.001 A 
HETATM   19  C   UNK N   1      39.098  24.589  -1.403  0.00  0.00     0.001 A 
ENDBRANCH   1  11
TORSDOF 3
ENDMDL
MODEL 9
REMARK VINA RESULT:      -5.6     13.567     15.252
REMARK  3 active torsions:
REMARK  status: ('A' for Active; 'I' for Inactive)
REMARK    1  A    between atoms: O_2  and  N_4 
REMARK    2  A    between atoms: N_4  and  C_6 
REMARK       I    between atoms: N_4  and  C_16 
REMARK       I    between atoms: N_5  and  C_16 
REMARK    3  A    between atoms: C_6  and  C_7 
ROOT
HETATM    1  C   UNK N   1      35.356  13.151  11.168  0.00  0.00     0.155 C 
HETATM    2  C   UNK N   1      34.834  11.759  10.824  0.00  0.00     0.041 C 
ENDROOT
BRANCH   1   3
HETATM    3  N   UNK N   1      36.353  13.355  12.230  0.00  0.00    -0.201 N 
HETATM    4  C   UNK N   1      36.025  13.553  13.542  0.00  0.00     0.340 C 
HETATM    5  O   UNK N   1      34.862  13.572  13.910  0.00  0.00    -0.245 OA
HETATM    6  N   UNK N   1      37.003  13.733  14.456  0.00  0.00    -0.350 N 
HETATM    7  H   UNK N   1      37.945  13.720  14.176  0.00  0.00     0.160 HD
HETATM    8  H   UNK N   1      36.771  13.876  15.402  0.00  0.00     0.160 HD
BRANCH   3   9
HETATM    9  O   UNK N   1      37.655  13.348  11.909  0.00  0.00    -0.283 OA
HETATM   10  H   UNK N   1      38.198  12.568  12.103  0.00  0.00     0.245 HD
ENDBRANCH   3   9
ENDBRANCH   1   3
BRANCH   1  11
HETATM   11  C   UNK N   1      34.840  14.344  10.400  0.00  0.00     0.009 A 
HETATM   12  S   UNK N   1      35.665  15.766  10.093  0.00  0.00    -0.092 SA
HETATM   13  C   UNK N   1      34.489  16.553   9.234  0.00  0.00     0.015 A 
HETATM   14  C   UNK N   1      33.389  15.707   9.161  0.00  0.00    -0.018 A 
HETATM   15  C   UNK N   1      34.493  17.816   8.654  0.00  0.00     0.019 A 
HETATM   16  C   UNK N   1      33.570  14.462   9.810  0.00  0.00     0.029 A 
HETATM   17  C   UNK N   1      32.234  16.104   8.491  0.00  0.00     0.013 A 
HETATM   18  C   UNK N   1      32.209  17.376   7.894  0.00  0.00     0.001 A 
HETATM   19  C   UNK N   1      33.331  18.227   7.975  0.00  0.00     0.001 A 
ENDBRANCH   1  11
TORSDOF 3
ENDMDL
