REMARK  3 active torsions:
REMARK  status: ('A' for Active; 'I' for Inactive)
REMARK    1  A    between atoms: O_2  and  N_4 
REMARK    2  A    between atoms: N_4  and  C_6 
REMARK       I    between atoms: N_4  and  C_16 
REMARK       I    between atoms: N_5  and  C_16 
REMARK    3  A    between atoms: C_6  and  C_7 
ROOT
HETATM    1  C   UNK N   1       5.916   0.871  -0.000  0.00  0.00     0.155 C 
HETATM    2  C   UNK N   1       6.704   2.178   0.000  0.00  0.00     0.041 C 
ENDROOT
BRANCH   1   3
HETATM    3  N   UNK N   1       6.595  -0.434  -0.000  0.00  0.00    -0.201 N 
HETATM    4  C   UNK N   1       7.954  -0.576   0.000  0.00  0.00     0.340 C 
HETATM    5  O   UNK N   1       8.694   0.394   0.000  0.00  0.00    -0.245 OA
HETATM    6  N   UNK N   1       8.497  -1.812   0.000  0.00  0.00    -0.350 N 
HETATM    7  H   UNK N   1       7.915  -2.605   0.000  0.00  0.00     0.160 HD
HETATM    8  H   UNK N   1       9.476  -1.919   0.000  0.00  0.00     0.160 HD
BRANCH   3   9
HETATM    9  O   UNK N   1       5.853  -1.552  -0.000  0.00  0.00    -0.283 OA
HETATM   10  H   UNK N   1       4.885  -1.491  -0.000  0.00  0.00     0.245 HD
ENDBRANCH   3   9
ENDBRANCH   1   3
BRANCH   1  11
HETATM   11  C   UNK N   1       4.407   0.919  -0.000  0.00  0.00     0.009 A 
HETATM   12  S   UNK N   1       3.453   2.293  -0.000  0.00  0.00    -0.092 SA
HETATM   13  C   UNK N   1       1.968   1.562  -0.000  0.00  0.00     0.015 A 
HETATM   14  C   UNK N   1       2.179   0.188   0.000  0.00  0.00    -0.018 A 
HETATM   15  C   UNK N   1       0.693   2.116  -0.000  0.00  0.00     0.019 A 
HETATM   16  C   UNK N   1       3.543  -0.189  -0.000  0.00  0.00     0.029 A 
HETATM   17  C   UNK N   1       1.101  -0.693   0.000  0.00  0.00     0.013 A 
HETATM   18  C   UNK N   1      -0.200  -0.162   0.000  0.00  0.00     0.001 A 
HETATM   19  C   UNK N   1      -0.403   1.234  -0.000  0.00  0.00     0.001 A 
ENDBRANCH   1  11
TORSDOF 3
