MODEL 1
REMARK VINA RESULT:      -6.9      0.000      0.000
REMARK  5 active torsions:
REMARK  status: ('A' for Active; 'I' for Inactive)
REMARK    1  A    between atoms: S_1  and  C_5 
REMARK    2  A    between atoms: S_1  and  C_8 
REMARK       I    between atoms: N_4  and  C_19 
REMARK    3  A    between atoms: C_5  and  C_6 
REMARK    4  A    between atoms: C_5  and  C_7 
REMARK    5  A    between atoms: C_8  and  C_19 
ROOT
HETATM    1  C   UNK N   1      32.380  16.810   7.222  0.00  0.00     0.145 C 
ENDROOT
BRANCH   1   2
HETATM    2  S   UNK N   1      33.723  17.890   7.890  0.00  0.00     0.037 S 
HETATM    3  O   UNK N   1      34.526  17.873   6.580  0.00  0.00    -0.257 OA
BRANCH   2   4
HETATM    4  C   UNK N   1      34.719  16.500   8.517  0.00  0.00     0.212 C 
BRANCH   4   5
HETATM    5  C   UNK N   1      34.895  16.614   9.996  0.00  0.00     0.227 C 
HETATM    6  O   UNK N   1      35.661  17.442  10.462  0.00  0.00    -0.273 OA
HETATM    7  N   UNK N   1      34.220  15.787  10.817  0.00  0.00    -0.369 N 
HETATM    8  H   UNK N   1      33.390  15.325  10.560  0.00  0.00     0.159 HD
HETATM    9  H   UNK N   1      34.576  15.638  11.724  0.00  0.00     0.159 HD
ENDBRANCH   4   5
ENDBRANCH   2   4
ENDBRANCH   1   2
BRANCH   1  10
HETATM   10  C   UNK N   1      32.545  16.625   5.719  0.00  0.00    -0.038 A 
HETATM   11  C   UNK N   1      32.134  17.606   4.799  0.00  0.00     0.009 A 
HETATM   12  C   UNK N   1      32.277  17.395   3.423  0.00  0.00     0.001 A 
HETATM   13  C   UNK N   1      32.836  16.204   2.953  0.00  0.00     0.000 A 
HETATM   14  C   UNK N   1      33.248  15.223   3.856  0.00  0.00     0.001 A 
HETATM   15  C   UNK N   1      33.098  15.431   5.229  0.00  0.00     0.009 A 
ENDBRANCH   1  10
BRANCH   1  16
HETATM   16  C   UNK N   1      30.987  17.264   7.646  0.00  0.00    -0.038 A 
HETATM   17  C   UNK N   1      29.831  16.823   6.976  0.00  0.00     0.009 A 
HETATM   18  C   UNK N   1      28.567  17.274   7.367  0.00  0.00     0.001 A 
HETATM   19  C   UNK N   1      28.443  18.165   8.434  0.00  0.00     0.000 A 
HETATM   20  C   UNK N   1      29.582  18.611   9.108  0.00  0.00     0.001 A 
HETATM   21  C   UNK N   1      30.848  18.169   8.709  0.00  0.00     0.009 A 
ENDBRANCH   1  16
TORSDOF 5
ENDMDL
MODEL 2
REMARK VINA RESULT:      -6.5      6.640     10.161
REMARK  5 active torsions:
REMARK  status: ('A' for Active; 'I' for Inactive)
REMARK    1  A    between atoms: S_1  and  C_5 
REMARK    2  A    between atoms: S_1  and  C_8 
REMARK       I    between atoms: N_4  and  C_19 
REMARK    3  A    between atoms: C_5  and  C_6 
REMARK    4  A    between atoms: C_5  and  C_7 
REMARK    5  A    between atoms: C_8  and  C_19 
ROOT
HETATM    1  C   UNK N   1      36.670  13.073  14.115  0.00  0.00     0.145 C 
ENDROOT
BRANCH   1   2
HETATM    2  S   UNK N   1      35.405  13.527  12.846  0.00  0.00     0.037 S 
HETATM    3  O   UNK N   1      36.283  13.084  11.666  0.00  0.00    -0.257 OA
BRANCH   2   4
HETATM    4  C   UNK N   1      36.009  15.235  12.654  0.00  0.00     0.212 C 
BRANCH   4   5
HETATM    5  C   UNK N   1      35.556  15.801  11.348  0.00  0.00     0.227 C 
HETATM    6  O   UNK N   1      36.297  16.524  10.701  0.00  0.00    -0.273 OA
HETATM    7  N   UNK N   1      34.319  15.526  10.890  0.00  0.00    -0.369 N 
HETATM    8  H   UNK N   1      33.797  14.743  11.176  0.00  0.00     0.159 HD
HETATM    9  H   UNK N   1      33.917  16.143  10.236  0.00  0.00     0.159 HD
ENDBRANCH   4   5
ENDBRANCH   2   4
ENDBRANCH   1   2
BRANCH   1  10
HETATM   10  C   UNK N   1      36.814  11.559  14.202  0.00  0.00    -0.038 A 
HETATM   11  C   UNK N   1      35.713  10.696  14.052  0.00  0.00     0.009 A 
HETATM   12  C   UNK N   1      35.875   9.311  14.163  0.00  0.00     0.001 A 
HETATM   13  C   UNK N   1      37.138   8.773  14.421  0.00  0.00     0.000 A 
HETATM   14  C   UNK N   1      38.238   9.619  14.573  0.00  0.00     0.001 A 
HETATM   15  C   UNK N   1      38.075  11.002  14.469  0.00  0.00     0.009 A 
ENDBRANCH   1  10
BRANCH   1  16
HETATM   16  C   UNK N   1      36.435  13.756  15.458  0.00  0.00    -0.038 A 
HETATM   17  C   UNK N   1      37.165  14.895  15.845  0.00  0.00     0.009 A 
HETATM   18  C   UNK N   1      36.951  15.488  17.092  0.00  0.00     0.001 A 
HETATM   19  C   UNK N   1      36.000  14.955  17.964  0.00  0.00     0.000 A 
HETATM   20  C   UNK N   1      35.268  13.824  17.593  0.00  0.00     0.001 A 
HETATM   21  C   UNK N   1      35.492  13.223  16.349  0.00  0.00     0.009 A 
ENDBRANCH   1  16
TORSDOF 5
ENDMDL
MODEL 3
REMARK VINA RESULT:      -6.4     14.106     16.324
REMARK  5 active torsions:
REMARK  status: ('A' for Active; 'I' for Inactive)
REMARK    1  A    between atoms: S_1  and  C_5 
REMARK    2  A    between atoms: S_1  and  C_8 
REMARK       I    between atoms: N_4  and  C_19 
REMARK    3  A    between atoms: C_5  and  C_6 
REMARK    4  A    between atoms: C_5  and  C_7 
REMARK    5  A    between atoms: C_8  and  C_19 
ROOT
HETATM    1  C   UNK N   1      27.594  25.010  -5.231  0.00  0.00     0.145 C 
ENDROOT
BRANCH   1   2
HETATM    2  S   UNK N   1      26.208  23.879  -5.696  0.00  0.00     0.037 S 
HETATM    3  O   UNK N   1      27.127  22.891  -6.431  0.00  0.00    -0.257 OA
BRANCH   2   4
HETATM    4  C   UNK N   1      25.861  24.726  -7.271  0.00  0.00     0.212 C 
BRANCH   4   5
HETATM    5  C   UNK N   1      25.565  23.728  -8.342  0.00  0.00     0.227 C 
HETATM    6  O   UNK N   1      24.479  23.175  -8.383  0.00  0.00    -0.273 OA
HETATM    7  N   UNK N   1      26.508  23.425  -9.255  0.00  0.00    -0.369 N 
HETATM    8  H   UNK N   1      27.260  24.020  -9.476  0.00  0.00     0.159 HD
HETATM    9  H   UNK N   1      26.440  22.563  -9.727  0.00  0.00     0.159 HD
ENDBRANCH   4   5
ENDBRANCH   2   4
ENDBRANCH   1   2
BRANCH   1  10
HETATM   10  C   UNK N   1      28.451  24.379  -4.141  0.00  0.00    -0.038 A 
HETATM   11  C   UNK N   1      29.857  24.417  -4.183  0.00  0.00     0.009 A 
HETATM   12  C   UNK N   1      30.615  23.806  -3.179  0.00  0.00     0.001 A 
HETATM   13  C   UNK N   1      29.978  23.153  -2.121  0.00  0.00     0.000 A 
HETATM   14  C   UNK N   1      28.584  23.107  -2.069  0.00  0.00     0.001 A 
HETATM   15  C   UNK N   1      27.827  23.712  -3.075  0.00  0.00     0.009 A 
ENDBRANCH   1  10
BRANCH   1  16
HETATM   16  C   UNK N   1      27.125  26.426  -4.914  0.00  0.00    -0.038 A 
HETATM   17  C   UNK N   1      27.664  27.548  -5.571  0.00  0.00     0.009 A 
HETATM   18  C   UNK N   1      27.236  28.837  -5.245  0.00  0.00     0.001 A 
HETATM   19  C   UNK N   1      26.260  29.021  -4.264  0.00  0.00     0.000 A 
HETATM   20  C   UNK N   1      25.716  27.917  -3.604  0.00  0.00     0.001 A 
HETATM   21  C   UNK N   1      26.153  26.627  -3.922  0.00  0.00     0.009 A 
ENDBRANCH   1  16
TORSDOF 5
ENDMDL
MODEL 4
REMARK VINA RESULT:      -6.4     13.450     15.413
REMARK  5 active torsions:
REMARK  status: ('A' for Active; 'I' for Inactive)
REMARK    1  A    between atoms: S_1  and  C_5 
REMARK    2  A    between atoms: S_1  and  C_8 
REMARK       I    between atoms: N_4  and  C_19 
REMARK    3  A    between atoms: C_5  and  C_6 
REMARK    4  A    between atoms: C_5  and  C_7 
REMARK    5  A    between atoms: C_8  and  C_19 
ROOT
HETATM    1  C   UNK N   1      27.003  24.038  -5.122  0.00  0.00     0.145 C 
ENDROOT
BRANCH   1   2
HETATM    2  S   UNK N   1      28.840  24.017  -4.924  0.00  0.00     0.037 S 
HETATM    3  O   UNK N   1      28.972  22.549  -5.357  0.00  0.00    -0.257 OA
BRANCH   2   4
HETATM    4  C   UNK N   1      28.785  23.496  -3.179  0.00  0.00     0.212 C 
BRANCH   4   5
HETATM    5  C   UNK N   1      30.168  23.287  -2.657  0.00  0.00     0.227 C 
HETATM    6  O   UNK N   1      30.348  23.027  -1.478  0.00  0.00    -0.273 OA
HETATM    7  N   UNK N   1      31.223  23.403  -3.486  0.00  0.00    -0.369 N 
HETATM    8  H   UNK N   1      31.159  23.305  -4.463  0.00  0.00     0.159 HD
HETATM    9  H   UNK N   1      32.106  23.596  -3.094  0.00  0.00     0.159 HD
ENDBRANCH   4   5
ENDBRANCH   2   4
ENDBRANCH   1   2
BRANCH   1  10
HETATM   10  C   UNK N   1      26.607  23.430  -6.462  0.00  0.00    -0.038 A 
HETATM   11  C   UNK N   1      27.229  23.810  -7.665  0.00  0.00     0.009 A 
HETATM   12  C   UNK N   1      26.826  23.252  -8.882  0.00  0.00     0.001 A 
HETATM   13  C   UNK N   1      25.798  22.306  -8.910  0.00  0.00     0.000 A 
HETATM   14  C   UNK N   1      25.172  21.920  -7.724  0.00  0.00     0.001 A 
HETATM   15  C   UNK N   1      25.571  22.484  -6.510  0.00  0.00     0.009 A 
ENDBRANCH   1  10
BRANCH   1  16
HETATM   16  C   UNK N   1      26.392  25.409  -4.854  0.00  0.00    -0.038 A 
HETATM   17  C   UNK N   1      26.685  26.132  -3.682  0.00  0.00     0.009 A 
HETATM   18  C   UNK N   1      26.091  27.375  -3.447  0.00  0.00     0.001 A 
HETATM   19  C   UNK N   1      25.205  27.914  -4.381  0.00  0.00     0.000 A 
HETATM   20  C   UNK N   1      24.905  27.207  -5.548  0.00  0.00     0.001 A 
HETATM   21  C   UNK N   1      25.489  25.957  -5.778  0.00  0.00     0.009 A 
ENDBRANCH   1  16
TORSDOF 5
ENDMDL
MODEL 5
REMARK VINA RESULT:      -6.4     14.216     16.516
REMARK  5 active torsions:
REMARK  status: ('A' for Active; 'I' for Inactive)
REMARK    1  A    between atoms: S_1  and  C_5 
REMARK    2  A    between atoms: S_1  and  C_8 
REMARK       I    between atoms: N_4  and  C_19 
REMARK    3  A    between atoms: C_5  and  C_6 
REMARK    4  A    between atoms: C_5  and  C_7 
REMARK    5  A    between atoms: C_8  and  C_19 
ROOT
HETATM    1  C   UNK N   1      26.739  25.180  -4.939  0.00  0.00     0.145 C 
ENDROOT
BRANCH   1   2
HETATM    2  S   UNK N   1      26.781  24.650  -6.709  0.00  0.00     0.037 S 
HETATM    3  O   UNK N   1      25.316  25.038  -6.965  0.00  0.00    -0.257 OA
BRANCH   2   4
HETATM    4  C   UNK N   1      26.264  22.939  -6.353  0.00  0.00     0.212 C 
BRANCH   4   5
HETATM    5  C   UNK N   1      25.396  22.420  -7.452  0.00  0.00     0.227 C 
HETATM    6  O   UNK N   1      24.373  21.808  -7.192  0.00  0.00    -0.273 OA
HETATM    7  N   UNK N   1      25.753  22.614  -8.737  0.00  0.00    -0.369 N 
HETATM    8  H   UNK N   1      26.363  23.329  -9.028  0.00  0.00     0.159 HD
HETATM    9  H   UNK N   1      25.384  22.008  -9.420  0.00  0.00     0.159 HD
ENDBRANCH   4   5
ENDBRANCH   2   4
ENDBRANCH   1   2
BRANCH   1  10
HETATM   10  C   UNK N   1      26.725  26.700  -4.841  0.00  0.00    -0.038 A 
HETATM   11  C   UNK N   1      27.381  27.513  -5.782  0.00  0.00     0.009 A 
HETATM   12  C   UNK N   1      27.371  28.906  -5.650  0.00  0.00     0.001 A 
HETATM   13  C   UNK N   1      26.701  29.501  -4.579  0.00  0.00     0.000 A 
HETATM   14  C   UNK N   1      26.046  28.705  -3.637  0.00  0.00     0.001 A 
HETATM   15  C   UNK N   1      26.063  27.315  -3.766  0.00  0.00     0.009 A 
ENDBRANCH   1  10
BRANCH   1  16
HETATM   16  C   UNK N   1      27.816  24.510  -4.093  0.00  0.00    -0.038 A 
HETATM   17  C   UNK N   1      29.165  24.494  -4.492  0.00  0.00     0.009 A 
HETATM   18  C   UNK N   1      30.130  23.851  -3.712  0.00  0.00     0.001 A 
HETATM   19  C   UNK N   1      29.760  23.222  -2.521  0.00  0.00     0.000 A 
HETATM   20  C   UNK N   1      28.424  23.231  -2.113  0.00  0.00     0.001 A 
HETATM   21  C   UNK N   1      27.457  23.864  -2.900  0.00  0.00     0.009 A 
ENDBRANCH   1  16
TORSDOF 5
ENDMDL
MODEL 6
REMARK VINA RESULT:      -6.4      3.025      4.493
REMARK  5 active torsions:
REMARK  status: ('A' for Active; 'I' for Inactive)
REMARK    1  A    between atoms: S_1  and  C_5 
REMARK    2  A    between atoms: S_1  and  C_8 
REMARK       I    between atoms: N_4  and  C_19 
REMARK    3  A    between atoms: C_5  and  C_6 
REMARK    4  A    between atoms: C_5  and  C_7 
REMARK    5  A    between atoms: C_8  and  C_19 
ROOT
HETATM    1  C   UNK N   1      31.739  17.162   6.941  0.00  0.00     0.145 C 
ENDROOT
BRANCH   1   2
HETATM    2  S   UNK N   1      29.982  16.689   7.265  0.00  0.00     0.037 S 
HETATM    3  O   UNK N   1      29.417  17.711   6.267  0.00  0.00    -0.257 OA
BRANCH   2   4
HETATM    4  C   UNK N   1      29.763  17.891   8.617  0.00  0.00     0.212 C 
BRANCH   4   5
HETATM    5  C   UNK N   1      28.317  18.017   8.969  0.00  0.00     0.227 C 
HETATM    6  O   UNK N   1      27.781  17.179   9.676  0.00  0.00    -0.273 OA
HETATM    7  N   UNK N   1      27.597  19.049   8.490  0.00  0.00    -0.369 N 
HETATM    8  H   UNK N   1      27.998  19.896   8.187  0.00  0.00     0.159 HD
HETATM    9  H   UNK N   1      26.618  18.953   8.440  0.00  0.00     0.159 HD
ENDBRANCH   4   5
ENDBRANCH   2   4
ENDBRANCH   1   2
BRANCH   1  10
HETATM   10  C   UNK N   1      32.160  16.713   5.547  0.00  0.00    -0.038 A 
HETATM   11  C   UNK N   1      32.348  17.628   4.495  0.00  0.00     0.009 A 
HETATM   12  C   UNK N   1      32.711  17.181   3.221  0.00  0.00     0.001 A 
HETATM   13  C   UNK N   1      32.892  15.816   2.984  0.00  0.00     0.000 A 
HETATM   14  C   UNK N   1      32.708  14.898   4.019  0.00  0.00     0.001 A 
HETATM   15  C   UNK N   1      32.339  15.345   5.290  0.00  0.00     0.009 A 
ENDBRANCH   1  10
BRANCH   1  16
HETATM   16  C   UNK N   1      32.687  16.723   8.051  0.00  0.00    -0.038 A 
HETATM   17  C   UNK N   1      33.824  17.479   8.394  0.00  0.00     0.009 A 
HETATM   18  C   UNK N   1      34.692  17.042   9.397  0.00  0.00     0.001 A 
HETATM   19  C   UNK N   1      34.432  15.849  10.076  0.00  0.00     0.000 A 
HETATM   20  C   UNK N   1      33.307  15.090   9.746  0.00  0.00     0.001 A 
HETATM   21  C   UNK N   1      32.445  15.521   8.733  0.00  0.00     0.009 A 
ENDBRANCH   1  16
TORSDOF 5
ENDMDL
MODEL 7
REMARK VINA RESULT:      -6.2      4.509      5.799
REMARK  5 active torsions:
REMARK  status: ('A' for Active; 'I' for Inactive)
REMARK    1  A    between atoms: S_1  and  C_5 
REMARK    2  A    between atoms: S_1  and  C_8 
REMARK       I    between atoms: N_4  and  C_19 
REMARK    3  A    between atoms: C_5  and  C_6 
REMARK    4  A    between atoms: C_5  and  C_7 
REMARK    5  A    between atoms: C_8  and  C_19 
ROOT
HETATM    1  C   UNK N   1      29.116  17.212   4.948  0.00  0.00     0.145 C 
ENDROOT
BRANCH   1   2
HETATM    2  S   UNK N   1      28.423  15.731   5.811  0.00  0.00     0.037 S 
HETATM    3  O   UNK N   1      29.009  14.740   4.794  0.00  0.00    -0.257 OA
BRANCH   2   4
HETATM    4  C   UNK N   1      26.855  15.753   4.884  0.00  0.00     0.212 C 
BRANCH   4   5
HETATM    5  C   UNK N   1      25.721  16.101   5.792  0.00  0.00     0.227 C 
HETATM    6  O   UNK N   1      25.467  15.398   6.756  0.00  0.00    -0.273 OA
HETATM    7  N   UNK N   1      24.965  17.186   5.535  0.00  0.00    -0.369 N 
HETATM    8  H   UNK N   1      25.274  17.945   4.990  0.00  0.00     0.159 HD
HETATM    9  H   UNK N   1      24.056  17.221   5.913  0.00  0.00     0.159 HD
ENDBRANCH   4   5
ENDBRANCH   2   4
ENDBRANCH   1   2
BRANCH   1  10
HETATM   10  C   UNK N   1      30.619  17.305   5.179  0.00  0.00    -0.038 A 
HETATM   11  C   UNK N   1      31.518  17.579   4.132  0.00  0.00     0.009 A 
HETATM   12  C   UNK N   1      32.894  17.632   4.373  0.00  0.00     0.001 A 
HETATM   13  C   UNK N   1      33.388  17.417   5.661  0.00  0.00     0.000 A 
HETATM   14  C   UNK N   1      32.507  17.144   6.709  0.00  0.00     0.001 A 
HETATM   15  C   UNK N   1      31.133  17.083   6.467  0.00  0.00     0.009 A 
ENDBRANCH   1  10
BRANCH   1  16
HETATM   16  C   UNK N   1      28.355  18.495   5.266  0.00  0.00    -0.038 A 
HETATM   17  C   UNK N   1      27.853  19.327   4.249  0.00  0.00     0.009 A 
HETATM   18  C   UNK N   1      27.182  20.511   4.566  0.00  0.00     0.001 A 
HETATM   19  C   UNK N   1      26.998  20.874   5.902  0.00  0.00     0.000 A 
HETATM   20  C   UNK N   1      27.491  20.057   6.921  0.00  0.00     0.001 A 
HETATM   21  C   UNK N   1      28.174  18.878   6.604  0.00  0.00     0.009 A 
ENDBRANCH   1  16
TORSDOF 5
ENDMDL
MODEL 8
REMARK VINA RESULT:      -6.1      7.617     11.275
REMARK  5 active torsions:
REMARK  status: ('A' for Active; 'I' for Inactive)
REMARK    1  A    between atoms: S_1  and  C_5 
REMARK    2  A    between atoms: S_1  and  C_8 
REMARK       I    between atoms: N_4  and  C_19 
REMARK    3  A    between atoms: C_5  and  C_6 
REMARK    4  A    between atoms: C_5  and  C_7 
REMARK    5  A    between atoms: C_8  and  C_19 
ROOT
HETATM    1  C   UNK N   1      35.520  12.346  14.853  0.00  0.00     0.145 C 
ENDROOT
BRANCH   1   2
HETATM    2  S   UNK N   1      35.999  12.868  13.146  0.00  0.00     0.037 S 
HETATM    3  O   UNK N   1      34.763  13.763  12.965  0.00  0.00    -0.257 OA
BRANCH   2   4
HETATM    4  C   UNK N   1      35.122  11.495  12.331  0.00  0.00     0.212 C 
BRANCH   4   5
HETATM    5  C   UNK N   1      34.899  11.807  10.888  0.00  0.00     0.227 C 
HETATM    6  O   UNK N   1      34.036  11.217  10.257  0.00  0.00    -0.273 OA
HETATM    7  N   UNK N   1      35.664  12.730  10.274  0.00  0.00    -0.369 N 
HETATM    8  H   UNK N   1      36.147  13.440  10.755  0.00  0.00     0.159 HD
HETATM    9  H   UNK N   1      35.745  12.691   9.293  0.00  0.00     0.159 HD
ENDBRANCH   4   5
ENDBRANCH   2   4
ENDBRANCH   1   2
BRANCH   1  10
HETATM   10  C   UNK N   1      35.886  13.428  15.861  0.00  0.00    -0.038 A 
HETATM   11  C   UNK N   1      35.235  13.540  17.103  0.00  0.00     0.009 A 
HETATM   12  C   UNK N   1      35.577  14.561  17.996  0.00  0.00     0.001 A 
HETATM   13  C   UNK N   1      36.576  15.478  17.659  0.00  0.00     0.000 A 
HETATM   14  C   UNK N   1      37.229  15.378  16.430  0.00  0.00     0.001 A 
HETATM   15  C   UNK N   1      36.881  14.363  15.536  0.00  0.00     0.009 A 
ENDBRANCH   1  10
BRANCH   1  16
HETATM   16  C   UNK N   1      36.033  10.956  15.216  0.00  0.00    -0.038 A 
HETATM   17  C   UNK N   1      37.384  10.601  15.047  0.00  0.00     0.009 A 
HETATM   18  C   UNK N   1      37.825   9.313  15.362  0.00  0.00     0.001 A 
HETATM   19  C   UNK N   1      36.924   8.367  15.855  0.00  0.00     0.000 A 
HETATM   20  C   UNK N   1      35.580   8.707  16.027  0.00  0.00     0.001 A 
HETATM   21  C   UNK N   1      35.136   9.992  15.700  0.00  0.00     0.009 A 
ENDBRANCH   1  16
TORSDOF 5
ENDMDL
MODEL 9
REMARK VINA RESULT:      -6.1      1.332      4.486
REMARK  5 active torsions:
REMARK  status: ('A' for Active; 'I' for Inactive)
REMARK    1  A    between atoms: S_1  and  C_5 
REMARK    2  A    between atoms: S_1  and  C_8 
REMARK       I    between atoms: N_4  and  C_19 
REMARK    3  A    between atoms: C_5  and  C_6 
REMARK    4  A    between atoms: C_5  and  C_7 
REMARK    5  A    between atoms: C_8  and  C_19 
ROOT
HETATM    1  C   UNK N   1      32.530  16.444   7.278  0.00  0.00     0.145 C 
ENDROOT
BRANCH   1   2
HETATM    2  S   UNK N   1      32.764  14.813   8.117  0.00  0.00     0.037 S 
HETATM    3  O   UNK N   1      32.246  15.322   9.471  0.00  0.00    -0.257 OA
BRANCH   2   4
HETATM    4  C   UNK N   1      34.473  15.169   8.638  0.00  0.00     0.212 C 
BRANCH   4   5
HETATM    5  C   UNK N   1      34.475  16.080   9.821  0.00  0.00     0.227 C 
HETATM    6  O   UNK N   1      34.568  17.287   9.668  0.00  0.00    -0.273 OA
HETATM    7  N   UNK N   1      34.392  15.566  11.064  0.00  0.00    -0.369 N 
HETATM    8  H   UNK N   1      34.018  14.677  11.259  0.00  0.00     0.159 HD
HETATM    9  H   UNK N   1      34.723  16.108  11.816  0.00  0.00     0.159 HD
ENDBRANCH   4   5
ENDBRANCH   2   4
ENDBRANCH   1   2
BRANCH   1  10
HETATM   10  C   UNK N   1      31.224  17.088   7.726  0.00  0.00    -0.038 A 
HETATM   11  C   UNK N   1      29.981  16.696   7.197  0.00  0.00     0.009 A 
HETATM   12  C   UNK N   1      28.802  17.325   7.610  0.00  0.00     0.001 A 
HETATM   13  C   UNK N   1      28.852  18.350   8.559  0.00  0.00     0.000 A 
HETATM   14  C   UNK N   1      30.080  18.748   9.091  0.00  0.00     0.001 A 
HETATM   15  C   UNK N   1      31.257  18.125   8.672  0.00  0.00     0.009 A 
ENDBRANCH   1  10
BRANCH   1  16
HETATM   16  C   UNK N   1      32.700  16.363   5.765  0.00  0.00    -0.038 A 
HETATM   17  C   UNK N   1      33.050  15.160   5.124  0.00  0.00     0.009 A 
HETATM   18  C   UNK N   1      33.226  15.118   3.739  0.00  0.00     0.001 A 
HETATM   19  C   UNK N   1      33.047  16.274   2.976  0.00  0.00     0.000 A 
HETATM   20  C   UNK N   1      32.700  17.474   3.599  0.00  0.00     0.001 A 
HETATM   21  C   UNK N   1      32.536  17.520   4.988  0.00  0.00     0.009 A 
ENDBRANCH   1  16
TORSDOF 5
ENDMDL
