MODEL 1
REMARK VINA RESULT:      -6.1      0.000      0.000
REMARK  27 active torsions:
REMARK  status: ('A' for Active; 'I' for Inactive)
REMARK    1  A    between atoms: O_1  and  N_9 
REMARK    2  A    between atoms: O_2  and  N_12 
REMARK    3  A    between atoms: O_6  and  N_13 
REMARK    4  A    between atoms: N_9  and  C_19 
REMARK       I    between atoms: N_9  and  C_33 
REMARK    5  A    between atoms: N_10  and  C_21 
REMARK       I    between atoms: N_10  and  C_34 
REMARK    6  A    between atoms: N_11  and  C_25 
REMARK       I    between atoms: N_11  and  C_35 
REMARK    7  A    between atoms: N_12  and  C_26 
REMARK       I    between atoms: N_12  and  C_37 
REMARK    8  A    between atoms: N_13  and  C_28 
REMARK       I    between atoms: N_13  and  C_38 
REMARK    9  A    between atoms: N_14  and  C_36 
REMARK   10  A    between atoms: C_15  and  C_16 
REMARK   11  A    between atoms: C_15  and  C_17 
REMARK   12  A    between atoms: C_16  and  C_19 
REMARK   13  A    between atoms: C_17  and  C_21 
REMARK   14  A    between atoms: C_18  and  C_20 
REMARK   15  A    between atoms: C_18  and  C_22 
REMARK   16  A    between atoms: C_20  and  C_25 
REMARK   17  A    between atoms: C_22  and  C_28 
REMARK   18  A    between atoms: C_23  and  C_24 
REMARK   19  A    between atoms: C_23  and  C_26 
REMARK   20  A    between atoms: C_24  and  C_27 
REMARK   21  A    between atoms: C_27  and  C_36 
REMARK   22  A    between atoms: C_29  and  C_30 
REMARK   23  A    between atoms: C_29  and  C_33 
REMARK   24  A    between atoms: C_30  and  C_35 
REMARK   25  A    between atoms: C_31  and  C_32 
REMARK   26  A    between atoms: C_31  and  C_34 
REMARK   27  A    between atoms: C_32  and  C_37 
ROOT
HETATM    1  C   UNK N   1      19.516  16.639   3.086  0.00  0.00     0.022 C 
ENDROOT
BRANCH   1   2
HETATM    2  C   UNK N   1      20.841  17.240   2.592  0.00  0.00     0.003 C 
BRANCH   2   3
HETATM    3  C   UNK N   1      20.901  18.773   2.565  0.00  0.00     0.020 C 
BRANCH   3   4
HETATM    4  C   UNK N   1      21.595  19.370   3.781  0.00  0.00     0.122 C 
BRANCH   4   5
HETATM    5  N   UNK N   1      23.024  19.308   3.617  0.00  0.00    -0.361 N 
HETATM    6  C   UNK N   1      23.727  20.352   3.113  0.00  0.00     0.217 C 
HETATM    7  O   UNK N   1      23.160  21.384   2.788  0.00  0.00    -0.274 OA
HETATM    8  H   UNK N   1      23.502  18.488   3.878  0.00  0.00     0.162 HD
BRANCH   6   9
HETATM    9  C   UNK N   1      25.209  20.264   2.952  0.00  0.00     0.112 C 
BRANCH   9  10
HETATM   10  C   UNK N   1      25.961  20.417   4.264  0.00  0.00     0.114 C 
BRANCH  10  11
HETATM   11  C   UNK N   1      26.482  19.089   4.715  0.00  0.00     0.243 C 
HETATM   12  O   UNK N   1      25.685  18.239   5.086  0.00  0.00    -0.271 OA
HETATM   13  N   UNK N   1      27.819  18.834   4.735  0.00  0.00    -0.229 N 
BRANCH  13  14
HETATM   14  O   UNK N   1      28.688  19.778   4.335  0.00  0.00    -0.285 OA
HETATM   15  H   UNK N   1      28.449  20.714   4.248  0.00  0.00     0.245 HD
ENDBRANCH  13  14
BRANCH  13  16
HETATM   16  C   UNK N   1      28.301  17.556   5.212  0.00  0.00     0.159 C 
BRANCH  16  17
HETATM   17  C   UNK N   1      28.932  17.652   6.587  0.00  0.00     0.022 C 
BRANCH  17  18
HETATM   18  C   UNK N   1      27.952  17.060   7.572  0.00  0.00     0.003 C 
BRANCH  18  19
HETATM   19  C   UNK N   1      27.968  17.832   8.869  0.00  0.00     0.019 C 
BRANCH  19  20
HETATM   20  C   UNK N   1      29.243  17.486   9.609  0.00  0.00     0.111 C 
BRANCH  20  21
HETATM   21  N   UNK N   1      29.904  18.702  10.037  0.00  0.00    -0.430 N 
HETATM   22  H   UNK N   1      30.676  19.085   9.490  0.00  0.00     0.149 HD
HETATM   23  H   UNK N   1      29.598  19.177  10.886  0.00  0.00     0.149 HD
ENDBRANCH  20  21
ENDBRANCH  19  20
ENDBRANCH  18  19
ENDBRANCH  17  18
ENDBRANCH  16  17
ENDBRANCH  13  16
ENDBRANCH  10  11
ENDBRANCH   9  10
ENDBRANCH   6   9
ENDBRANCH   4   5
ENDBRANCH   3   4
ENDBRANCH   2   3
ENDBRANCH   1   2
BRANCH   1  24
HETATM   24  C   UNK N   1      19.681  15.466   4.055  0.00  0.00     0.159 C 
BRANCH  24  25
HETATM   25  N   UNK N   1      19.160  15.800   5.357  0.00  0.00    -0.229 N 
HETATM   26  C   UNK N   1      20.002  16.176   6.368  0.00  0.00     0.243 C 
HETATM   27  O   UNK N   1      21.198  16.289   6.144  0.00  0.00    -0.271 OA
BRANCH  25  28
HETATM   28  O   UNK N   1      17.835  15.725   5.539  0.00  0.00    -0.285 OA
HETATM   29  H   UNK N   1      17.367  14.876   5.575  0.00  0.00     0.245 HD
ENDBRANCH  25  28
BRANCH  26  30
HETATM   30  C   UNK N   1      19.536  16.468   7.775  0.00  0.00     0.114 C 
BRANCH  30  31
HETATM   31  C   UNK N   1      20.516  16.198   8.912  0.00  0.00     0.112 C 
BRANCH  31  32
HETATM   32  C   UNK N   1      20.359  14.818   9.465  0.00  0.00     0.217 C 
HETATM   33  O   UNK N   1      19.238  14.354   9.612  0.00  0.00    -0.274 OA
HETATM   34  N   UNK N   1      21.453  14.086   9.784  0.00  0.00    -0.361 N 
HETATM   35  H   UNK N   1      22.342  14.498   9.685  0.00  0.00     0.162 HD
BRANCH  34  36
HETATM   36  C   UNK N   1      21.367  12.735  10.260  0.00  0.00     0.122 C 
BRANCH  36  37
HETATM   37  C   UNK N   1      22.637  12.432  11.018  0.00  0.00     0.020 C 
BRANCH  37  38
HETATM   38  C   UNK N   1      23.681  11.871  10.072  0.00  0.00     0.003 C 
BRANCH  38  39
HETATM   39  C   UNK N   1      24.636  12.966   9.638  0.00  0.00     0.022 C 
BRANCH  39  40
HETATM   40  C   UNK N   1      24.790  12.939   8.119  0.00  0.00     0.159 C 
BRANCH  40  41
HETATM   41  N   UNK N   1      23.619  13.270   7.316  0.00  0.00    -0.229 N 
HETATM   42  C   UNK N   1      22.907  12.373   6.565  0.00  0.00     0.239 C 
HETATM   43  O   UNK N   1      23.222  11.196   6.503  0.00  0.00    -0.272 OA
HETATM   44  C   UNK N   1      21.705  12.826   5.802  0.00  0.00     0.119 C 
BRANCH  41  45
HETATM   45  O   UNK N   1      23.206  14.545   7.349  0.00  0.00    -0.285 OA
HETATM   46  H   UNK N   1      23.165  15.020   8.193  0.00  0.00     0.245 HD
ENDBRANCH  41  45
ENDBRANCH  40  41
ENDBRANCH  39  40
ENDBRANCH  38  39
ENDBRANCH  37  38
ENDBRANCH  36  37
ENDBRANCH  34  36
ENDBRANCH  31  32
ENDBRANCH  30  31
ENDBRANCH  26  30
ENDBRANCH  24  25
ENDBRANCH   1  24
TORSDOF 27
ENDMDL
MODEL 2
REMARK VINA RESULT:      -5.8      4.217      8.452
REMARK  27 active torsions:
REMARK  status: ('A' for Active; 'I' for Inactive)
REMARK    1  A    between atoms: O_1  and  N_9 
REMARK    2  A    between atoms: O_2  and  N_12 
REMARK    3  A    between atoms: O_6  and  N_13 
REMARK    4  A    between atoms: N_9  and  C_19 
REMARK       I    between atoms: N_9  and  C_33 
REMARK    5  A    between atoms: N_10  and  C_21 
REMARK       I    between atoms: N_10  and  C_34 
REMARK    6  A    between atoms: N_11  and  C_25 
REMARK       I    between atoms: N_11  and  C_35 
REMARK    7  A    between atoms: N_12  and  C_26 
REMARK       I    between atoms: N_12  and  C_37 
REMARK    8  A    between atoms: N_13  and  C_28 
REMARK       I    between atoms: N_13  and  C_38 
REMARK    9  A    between atoms: N_14  and  C_36 
REMARK   10  A    between atoms: C_15  and  C_16 
REMARK   11  A    between atoms: C_15  and  C_17 
REMARK   12  A    between atoms: C_16  and  C_19 
REMARK   13  A    between atoms: C_17  and  C_21 
REMARK   14  A    between atoms: C_18  and  C_20 
REMARK   15  A    between atoms: C_18  and  C_22 
REMARK   16  A    between atoms: C_20  and  C_25 
REMARK   17  A    between atoms: C_22  and  C_28 
REMARK   18  A    between atoms: C_23  and  C_24 
REMARK   19  A    between atoms: C_23  and  C_26 
REMARK   20  A    between atoms: C_24  and  C_27 
REMARK   21  A    between atoms: C_27  and  C_36 
REMARK   22  A    between atoms: C_29  and  C_30 
REMARK   23  A    between atoms: C_29  and  C_33 
REMARK   24  A    between atoms: C_30  and  C_35 
REMARK   25  A    between atoms: C_31  and  C_32 
REMARK   26  A    between atoms: C_31  and  C_34 
REMARK   27  A    between atoms: C_32  and  C_37 
ROOT
HETATM    1  C   UNK N   1      27.759  19.501   6.740  0.00  0.00     0.022 C 
ENDROOT
BRANCH   1   2
HETATM    2  C   UNK N   1      28.169  18.188   7.426  0.00  0.00     0.003 C 
BRANCH   2   3
HETATM    3  C   UNK N   1      28.006  18.162   8.952  0.00  0.00     0.020 C 
BRANCH   3   4
HETATM    4  C   UNK N   1      29.117  17.404   9.664  0.00  0.00     0.122 C 
BRANCH   4   5
HETATM    5  N   UNK N   1      30.385  18.038   9.421  0.00  0.00    -0.361 N 
HETATM    6  C   UNK N   1      31.336  17.452   8.651  0.00  0.00     0.217 C 
HETATM    7  O   UNK N   1      31.134  16.364   8.136  0.00  0.00    -0.274 OA
HETATM    8  H   UNK N   1      30.567  18.918   9.822  0.00  0.00     0.162 HD
BRANCH   6   9
HETATM    9  C   UNK N   1      32.645  18.129   8.413  0.00  0.00     0.112 C 
BRANCH   9  10
HETATM   10  C   UNK N   1      33.822  17.166   8.408  0.00  0.00     0.114 C 
BRANCH  10  11
HETATM   11  C   UNK N   1      34.218  16.845   7.002  0.00  0.00     0.243 C 
HETATM   12  O   UNK N   1      34.585  17.754   6.272  0.00  0.00    -0.271 OA
HETATM   13  N   UNK N   1      34.152  15.569   6.533  0.00  0.00    -0.229 N 
BRANCH  13  14
HETATM   14  O   UNK N   1      33.738  14.578   7.340  0.00  0.00    -0.285 OA
HETATM   15  H   UNK N   1      34.014  14.499   8.267  0.00  0.00     0.245 HD
ENDBRANCH  13  14
BRANCH  13  16
HETATM   16  C   UNK N   1      34.504  15.288   5.158  0.00  0.00     0.159 C 
BRANCH  16  17
HETATM   17  C   UNK N   1      33.289  14.997   4.297  0.00  0.00     0.022 C 
BRANCH  17  18
HETATM   18  C   UNK N   1      33.294  15.996   3.164  0.00  0.00     0.003 C 
BRANCH  18  19
HETATM   19  C   UNK N   1      31.956  16.688   3.059  0.00  0.00     0.019 C 
BRANCH  19  20
HETATM   20  C   UNK N   1      31.862  17.704   4.179  0.00  0.00     0.111 C 
BRANCH  20  21
HETATM   21  N   UNK N   1      30.878  17.269   5.150  0.00  0.00    -0.430 N 
HETATM   22  H   UNK N   1      29.889  17.246   4.900  0.00  0.00     0.149 HD
HETATM   23  H   UNK N   1      31.175  16.985   6.083  0.00  0.00     0.149 HD
ENDBRANCH  20  21
ENDBRANCH  19  20
ENDBRANCH  18  19
ENDBRANCH  17  18
ENDBRANCH  16  17
ENDBRANCH  13  16
ENDBRANCH  10  11
ENDBRANCH   9  10
ENDBRANCH   6   9
ENDBRANCH   4   5
ENDBRANCH   3   4
ENDBRANCH   2   3
ENDBRANCH   1   2
BRANCH   1  24
HETATM   24  C   UNK N   1      27.947  19.500   5.221  0.00  0.00     0.159 C 
BRANCH  24  25
HETATM   25  N   UNK N   1      26.873  18.788   4.573  0.00  0.00    -0.229 N 
HETATM   26  C   UNK N   1      27.126  17.652   3.853  0.00  0.00     0.243 C 
HETATM   27  O   UNK N   1      28.264  17.206   3.814  0.00  0.00    -0.271 OA
BRANCH  25  28
HETATM   28  O   UNK N   1      25.632  19.277   4.697  0.00  0.00    -0.285 OA
HETATM   29  H   UNK N   1      24.978  19.208   3.985  0.00  0.00     0.245 HD
ENDBRANCH  25  28
BRANCH  26  30
HETATM   30  C   UNK N   1      26.066  16.897   3.087  0.00  0.00     0.114 C 
BRANCH  30  31
HETATM   31  C   UNK N   1      25.144  15.977   3.881  0.00  0.00     0.112 C 
BRANCH  31  32
HETATM   32  C   UNK N   1      23.711  16.390   3.766  0.00  0.00     0.217 C 
HETATM   33  O   UNK N   1      23.417  17.571   3.879  0.00  0.00    -0.274 OA
HETATM   34  N   UNK N   1      22.756  15.463   3.521  0.00  0.00    -0.361 N 
HETATM   35  H   UNK N   1      23.019  14.516   3.467  0.00  0.00     0.162 HD
BRANCH  34  36
HETATM   36  C   UNK N   1      21.375  15.807   3.339  0.00  0.00     0.122 C 
BRANCH  36  37
HETATM   37  C   UNK N   1      21.099  15.833   1.855  0.00  0.00     0.020 C 
BRANCH  37  38
HETATM   38  C   UNK N   1      20.088  16.918   1.537  0.00  0.00     0.003 C 
BRANCH  38  39
HETATM   39  C   UNK N   1      19.634  17.599   2.814  0.00  0.00     0.022 C 
BRANCH  39  40
HETATM   40  C   UNK N   1      19.767  19.113   2.662  0.00  0.00     0.159 C 
BRANCH  40  41
HETATM   41  N   UNK N   1      21.027  19.724   3.068  0.00  0.00    -0.229 N 
HETATM   42  C   UNK N   1      21.882  20.386   2.227  0.00  0.00     0.239 C 
HETATM   43  O   UNK N   1      21.645  20.506   1.036  0.00  0.00    -0.272 OA
HETATM   44  C   UNK N   1      23.136  20.994   2.765  0.00  0.00     0.119 C 
BRANCH  41  45
HETATM   45  O   UNK N   1      21.344  19.644   4.368  0.00  0.00    -0.285 OA
HETATM   46  H   UNK N   1      21.605  18.793   4.753  0.00  0.00     0.245 HD
ENDBRANCH  41  45
ENDBRANCH  40  41
ENDBRANCH  39  40
ENDBRANCH  38  39
ENDBRANCH  37  38
ENDBRANCH  36  37
ENDBRANCH  34  36
ENDBRANCH  31  32
ENDBRANCH  30  31
ENDBRANCH  26  30
ENDBRANCH  24  25
ENDBRANCH   1  24
TORSDOF 27
ENDMDL
MODEL 3
REMARK VINA RESULT:      -5.8      2.911      9.193
REMARK  27 active torsions:
REMARK  status: ('A' for Active; 'I' for Inactive)
REMARK    1  A    between atoms: O_1  and  N_9 
REMARK    2  A    between atoms: O_2  and  N_12 
REMARK    3  A    between atoms: O_6  and  N_13 
REMARK    4  A    between atoms: N_9  and  C_19 
REMARK       I    between atoms: N_9  and  C_33 
REMARK    5  A    between atoms: N_10  and  C_21 
REMARK       I    between atoms: N_10  and  C_34 
REMARK    6  A    between atoms: N_11  and  C_25 
REMARK       I    between atoms: N_11  and  C_35 
REMARK    7  A    between atoms: N_12  and  C_26 
REMARK       I    between atoms: N_12  and  C_37 
REMARK    8  A    between atoms: N_13  and  C_28 
REMARK       I    between atoms: N_13  and  C_38 
REMARK    9  A    between atoms: N_14  and  C_36 
REMARK   10  A    between atoms: C_15  and  C_16 
REMARK   11  A    between atoms: C_15  and  C_17 
REMARK   12  A    between atoms: C_16  and  C_19 
REMARK   13  A    between atoms: C_17  and  C_21 
REMARK   14  A    between atoms: C_18  and  C_20 
REMARK   15  A    between atoms: C_18  and  C_22 
REMARK   16  A    between atoms: C_20  and  C_25 
REMARK   17  A    between atoms: C_22  and  C_28 
REMARK   18  A    between atoms: C_23  and  C_24 
REMARK   19  A    between atoms: C_23  and  C_26 
REMARK   20  A    between atoms: C_24  and  C_27 
REMARK   21  A    between atoms: C_27  and  C_36 
REMARK   22  A    between atoms: C_29  and  C_30 
REMARK   23  A    between atoms: C_29  and  C_33 
REMARK   24  A    between atoms: C_30  and  C_35 
REMARK   25  A    between atoms: C_31  and  C_32 
REMARK   26  A    between atoms: C_31  and  C_34 
REMARK   27  A    between atoms: C_32  and  C_37 
ROOT
HETATM    1  C   UNK N   1      30.818  16.861   8.358  0.00  0.00     0.022 C 
ENDROOT
BRANCH   1   2
HETATM    2  C   UNK N   1      30.559  18.292   8.855  0.00  0.00     0.003 C 
BRANCH   2   3
HETATM    3  C   UNK N   1      29.086  18.723   8.887  0.00  0.00     0.020 C 
BRANCH   3   4
HETATM    4  C   UNK N   1      28.248  18.087   7.787  0.00  0.00     0.122 C 
BRANCH   4   5
HETATM    5  N   UNK N   1      27.607  19.106   7.000  0.00  0.00    -0.361 N 
HETATM    6  C   UNK N   1      27.949  19.325   5.706  0.00  0.00     0.217 C 
HETATM    7  O   UNK N   1      28.815  18.650   5.171  0.00  0.00    -0.274 OA
HETATM    8  H   UNK N   1      26.902  19.658   7.410  0.00  0.00     0.162 HD
BRANCH   6   9
HETATM    9  C   UNK N   1      27.270  20.389   4.908  0.00  0.00     0.112 C 
BRANCH   9  10
HETATM   10  C   UNK N   1      26.567  19.850   3.672  0.00  0.00     0.114 C 
BRANCH  10  11
HETATM   11  C   UNK N   1      25.131  19.569   3.980  0.00  0.00     0.243 C 
HETATM   12  O   UNK N   1      24.862  18.850   4.932  0.00  0.00    -0.271 OA
HETATM   13  N   UNK N   1      24.138  20.085   3.205  0.00  0.00    -0.229 N 
BRANCH  13  14
HETATM   14  O   UNK N   1      24.443  20.866   2.155  0.00  0.00    -0.285 OA
HETATM   15  H   UNK N   1      24.252  21.817   2.130  0.00  0.00     0.245 HD
ENDBRANCH  13  14
BRANCH  13  16
HETATM   16  C   UNK N   1      22.757  19.768   3.499  0.00  0.00     0.159 C 
BRANCH  16  17
HETATM   17  C   UNK N   1      21.807  20.267   2.427  0.00  0.00     0.022 C 
BRANCH  17  18
HETATM   18  C   UNK N   1      20.464  19.625   2.683  0.00  0.00     0.003 C 
BRANCH  18  19
HETATM   19  C   UNK N   1      20.248  18.454   1.755  0.00  0.00     0.019 C 
BRANCH  19  20
HETATM   20  C   UNK N   1      20.400  17.180   2.560  0.00  0.00     0.111 C 
BRANCH  20  21
HETATM   21  N   UNK N   1      19.335  17.092   3.539  0.00  0.00    -0.430 N 
HETATM   22  H   UNK N   1      19.178  17.860   4.193  0.00  0.00     0.149 HD
HETATM   23  H   UNK N   1      18.742  16.264   3.574  0.00  0.00     0.149 HD
ENDBRANCH  20  21
ENDBRANCH  19  20
ENDBRANCH  18  19
ENDBRANCH  17  18
ENDBRANCH  16  17
ENDBRANCH  13  16
ENDBRANCH  10  11
ENDBRANCH   9  10
ENDBRANCH   6   9
ENDBRANCH   4   5
ENDBRANCH   3   4
ENDBRANCH   2   3
ENDBRANCH   1   2
BRANCH   1  24
HETATM   24  C   UNK N   1      32.283  16.566   8.031  0.00  0.00     0.159 C 
BRANCH  24  25
HETATM   25  N   UNK N   1      32.439  16.231   6.637  0.00  0.00    -0.229 N 
HETATM   26  C   UNK N   1      33.166  17.040   5.804  0.00  0.00     0.243 C 
HETATM   27  O   UNK N   1      33.736  18.019   6.264  0.00  0.00    -0.271 OA
BRANCH  25  28
HETATM   28  O   UNK N   1      31.851  15.114   6.191  0.00  0.00    -0.285 OA
HETATM   29  H   UNK N   1      31.390  14.502   6.786  0.00  0.00     0.245 HD
ENDBRANCH  25  28
BRANCH  26  30
HETATM   30  C   UNK N   1      33.310  16.793   4.322  0.00  0.00     0.114 C 
BRANCH  30  31
HETATM   31  C   UNK N   1      32.216  17.335   3.407  0.00  0.00     0.112 C 
BRANCH  31  32
HETATM   32  C   UNK N   1      31.177  16.300   3.111  0.00  0.00     0.217 C 
HETATM   33  O   UNK N   1      31.499  15.122   3.069  0.00  0.00    -0.274 OA
HETATM   34  N   UNK N   1      29.891  16.671   2.908  0.00  0.00    -0.361 N 
HETATM   35  H   UNK N   1      29.668  17.629   2.916  0.00  0.00     0.162 HD
BRANCH  34  36
HETATM   36  C   UNK N   1      28.840  15.719   2.681  0.00  0.00     0.122 C 
BRANCH  36  37
HETATM   37  C   UNK N   1      27.545  16.347   3.136  0.00  0.00     0.020 C 
BRANCH  37  38
HETATM   38  C   UNK N   1      26.747  15.349   3.952  0.00  0.00     0.003 C 
BRANCH  38  39
HETATM   39  C   UNK N   1      26.569  15.858   5.371  0.00  0.00     0.022 C 
BRANCH  39  40
HETATM   40  C   UNK N   1      25.742  14.856   6.174  0.00  0.00     0.159 C 
BRANCH  40  41
HETATM   41  N   UNK N   1      24.360  15.209   6.474  0.00  0.00    -0.229 N 
HETATM   42  C   UNK N   1      23.478  14.410   7.152  0.00  0.00     0.239 C 
HETATM   43  O   UNK N   1      23.796  13.302   7.555  0.00  0.00    -0.272 OA
HETATM   44  C   UNK N   1      22.091  14.892   7.424  0.00  0.00     0.119 C 
BRANCH  41  45
HETATM   45  O   UNK N   1      23.947  16.420   6.074  0.00  0.00    -0.285 OA
HETATM   46  H   UNK N   1      24.353  17.219   6.445  0.00  0.00     0.245 HD
ENDBRANCH  41  45
ENDBRANCH  40  41
ENDBRANCH  39  40
ENDBRANCH  38  39
ENDBRANCH  37  38
ENDBRANCH  36  37
ENDBRANCH  34  36
ENDBRANCH  31  32
ENDBRANCH  30  31
ENDBRANCH  26  30
ENDBRANCH  24  25
ENDBRANCH   1  24
TORSDOF 27
ENDMDL
MODEL 4
REMARK VINA RESULT:      -5.8      1.677      2.146
REMARK  27 active torsions:
REMARK  status: ('A' for Active; 'I' for Inactive)
REMARK    1  A    between atoms: O_1  and  N_9 
REMARK    2  A    between atoms: O_2  and  N_12 
REMARK    3  A    between atoms: O_6  and  N_13 
REMARK    4  A    between atoms: N_9  and  C_19 
REMARK       I    between atoms: N_9  and  C_33 
REMARK    5  A    between atoms: N_10  and  C_21 
REMARK       I    between atoms: N_10  and  C_34 
REMARK    6  A    between atoms: N_11  and  C_25 
REMARK       I    between atoms: N_11  and  C_35 
REMARK    7  A    between atoms: N_12  and  C_26 
REMARK       I    between atoms: N_12  and  C_37 
REMARK    8  A    between atoms: N_13  and  C_28 
REMARK       I    between atoms: N_13  and  C_38 
REMARK    9  A    between atoms: N_14  and  C_36 
REMARK   10  A    between atoms: C_15  and  C_16 
REMARK   11  A    between atoms: C_15  and  C_17 
REMARK   12  A    between atoms: C_16  and  C_19 
REMARK   13  A    between atoms: C_17  and  C_21 
REMARK   14  A    between atoms: C_18  and  C_20 
REMARK   15  A    between atoms: C_18  and  C_22 
REMARK   16  A    between atoms: C_20  and  C_25 
REMARK   17  A    between atoms: C_22  and  C_28 
REMARK   18  A    between atoms: C_23  and  C_24 
REMARK   19  A    between atoms: C_23  and  C_26 
REMARK   20  A    between atoms: C_24  and  C_27 
REMARK   21  A    between atoms: C_27  and  C_36 
REMARK   22  A    between atoms: C_29  and  C_30 
REMARK   23  A    between atoms: C_29  and  C_33 
REMARK   24  A    between atoms: C_30  and  C_35 
REMARK   25  A    between atoms: C_31  and  C_32 
REMARK   26  A    between atoms: C_31  and  C_34 
REMARK   27  A    between atoms: C_32  and  C_37 
ROOT
HETATM    1  C   UNK N   1      19.806  17.089   3.727  0.00  0.00     0.022 C 
ENDROOT
BRANCH   1   2
HETATM    2  C   UNK N   1      19.968  18.026   2.519  0.00  0.00     0.003 C 
BRANCH   2   3
HETATM    3  C   UNK N   1      19.867  19.526   2.829  0.00  0.00     0.020 C 
BRANCH   3   4
HETATM    4  C   UNK N   1      21.132  20.298   2.485  0.00  0.00     0.122 C 
BRANCH   4   5
HETATM    5  N   UNK N   1      22.290  19.591   2.963  0.00  0.00    -0.361 N 
HETATM    6  C   UNK N   1      23.478  20.218   3.151  0.00  0.00     0.217 C 
HETATM    7  O   UNK N   1      23.593  21.412   2.922  0.00  0.00    -0.274 OA
HETATM    8  H   UNK N   1      22.219  18.629   3.159  0.00  0.00     0.162 HD
BRANCH   6   9
HETATM    9  C   UNK N   1      24.667  19.463   3.647  0.00  0.00     0.112 C 
BRANCH   9  10
HETATM   10  C   UNK N   1      25.802  20.368   4.098  0.00  0.00     0.114 C 
BRANCH  10  11
HETATM   11  C   UNK N   1      26.914  19.550   4.673  0.00  0.00     0.243 C 
HETATM   12  O   UNK N   1      27.565  18.833   3.926  0.00  0.00    -0.271 OA
HETATM   13  N   UNK N   1      27.187  19.583   6.006  0.00  0.00    -0.229 N 
BRANCH  13  14
HETATM   14  O   UNK N   1      26.460  20.366   6.821  0.00  0.00    -0.285 OA
HETATM   15  H   UNK N   1      26.822  21.150   7.264  0.00  0.00     0.245 HD
ENDBRANCH  13  14
BRANCH  13  16
HETATM   16  C   UNK N   1      28.243  18.754   6.546  0.00  0.00     0.159 C 
BRANCH  16  17
HETATM   17  C   UNK N   1      28.158  18.616   8.054  0.00  0.00     0.022 C 
BRANCH  17  18
HETATM   18  C   UNK N   1      29.560  18.373   8.561  0.00  0.00     0.003 C 
BRANCH  18  19
HETATM   19  C   UNK N   1      30.197  17.215   7.831  0.00  0.00     0.019 C 
BRANCH  19  20
HETATM   20  C   UNK N   1      31.690  17.459   7.772  0.00  0.00     0.111 C 
BRANCH  20  21
HETATM   21  N   UNK N   1      32.282  17.174   9.064  0.00  0.00    -0.430 N 
HETATM   22  H   UNK N   1      33.215  17.520   9.286  0.00  0.00     0.149 HD
HETATM   23  H   UNK N   1      31.765  16.626   9.752  0.00  0.00     0.149 HD
ENDBRANCH  20  21
ENDBRANCH  19  20
ENDBRANCH  18  19
ENDBRANCH  17  18
ENDBRANCH  16  17
ENDBRANCH  13  16
ENDBRANCH  10  11
ENDBRANCH   9  10
ENDBRANCH   6   9
ENDBRANCH   4   5
ENDBRANCH   3   4
ENDBRANCH   2   3
ENDBRANCH   1   2
BRANCH   1  24
HETATM   24  C   UNK N   1      20.629  17.496   4.951  0.00  0.00     0.159 C 
BRANCH  24  25
HETATM   25  N   UNK N   1      20.877  16.359   5.803  0.00  0.00    -0.229 N 
HETATM   26  C   UNK N   1      20.978  16.514   7.159  0.00  0.00     0.243 C 
HETATM   27  O   UNK N   1      20.793  17.617   7.654  0.00  0.00    -0.271 OA
BRANCH  25  28
HETATM   28  O   UNK N   1      21.008  15.159   5.223  0.00  0.00    -0.285 OA
HETATM   29  H   UNK N   1      21.698  14.531   5.488  0.00  0.00     0.245 HD
ENDBRANCH  25  28
BRANCH  26  30
HETATM   30  C   UNK N   1      21.309  15.384   8.104  0.00  0.00     0.114 C 
BRANCH  30  31
HETATM   31  C   UNK N   1      20.232  14.956   9.096  0.00  0.00     0.112 C 
BRANCH  31  32
HETATM   32  C   UNK N   1      20.675  13.797   9.931  0.00  0.00     0.217 C 
HETATM   33  O   UNK N   1      19.835  13.074  10.446  0.00  0.00    -0.274 OA
HETATM   34  N   UNK N   1      21.995  13.547  10.098  0.00  0.00    -0.361 N 
HETATM   35  H   UNK N   1      22.647  14.165   9.698  0.00  0.00     0.162 HD
BRANCH  34  36
HETATM   36  C   UNK N   1      22.478  12.415  10.836  0.00  0.00     0.122 C 
BRANCH  36  37
HETATM   37  C   UNK N   1      23.595  11.788  10.037  0.00  0.00     0.020 C 
BRANCH  37  38
HETATM   38  C   UNK N   1      23.077  11.352   8.680  0.00  0.00     0.003 C 
BRANCH  38  39
HETATM   39  C   UNK N   1      24.084  11.701   7.600  0.00  0.00     0.022 C 
BRANCH  39  40
HETATM   40  C   UNK N   1      23.642  12.973   6.881  0.00  0.00     0.159 C 
BRANCH  40  41
HETATM   41  N   UNK N   1      24.588  14.082   6.830  0.00  0.00    -0.229 N 
HETATM   42  C   UNK N   1      24.626  15.033   5.845  0.00  0.00     0.239 C 
HETATM   43  O   UNK N   1      23.852  15.010   4.901  0.00  0.00    -0.272 OA
HETATM   44  C   UNK N   1      25.627  16.140   5.915  0.00  0.00     0.119 C 
BRANCH  41  45
HETATM   45  O   UNK N   1      25.459  14.178   7.845  0.00  0.00    -0.285 OA
HETATM   46  H   UNK N   1      26.390  13.945   7.709  0.00  0.00     0.245 HD
ENDBRANCH  41  45
ENDBRANCH  40  41
ENDBRANCH  39  40
ENDBRANCH  38  39
ENDBRANCH  37  38
ENDBRANCH  36  37
ENDBRANCH  34  36
ENDBRANCH  31  32
ENDBRANCH  30  31
ENDBRANCH  26  30
ENDBRANCH  24  25
ENDBRANCH   1  24
TORSDOF 27
ENDMDL
MODEL 5
REMARK VINA RESULT:      -5.7      2.074      9.096
REMARK  27 active torsions:
REMARK  status: ('A' for Active; 'I' for Inactive)
REMARK    1  A    between atoms: O_1  and  N_9 
REMARK    2  A    between atoms: O_2  and  N_12 
REMARK    3  A    between atoms: O_6  and  N_13 
REMARK    4  A    between atoms: N_9  and  C_19 
REMARK       I    between atoms: N_9  and  C_33 
REMARK    5  A    between atoms: N_10  and  C_21 
REMARK       I    between atoms: N_10  and  C_34 
REMARK    6  A    between atoms: N_11  and  C_25 
REMARK       I    between atoms: N_11  and  C_35 
REMARK    7  A    between atoms: N_12  and  C_26 
REMARK       I    between atoms: N_12  and  C_37 
REMARK    8  A    between atoms: N_13  and  C_28 
REMARK       I    between atoms: N_13  and  C_38 
REMARK    9  A    between atoms: N_14  and  C_36 
REMARK   10  A    between atoms: C_15  and  C_16 
REMARK   11  A    between atoms: C_15  and  C_17 
REMARK   12  A    between atoms: C_16  and  C_19 
REMARK   13  A    between atoms: C_17  and  C_21 
REMARK   14  A    between atoms: C_18  and  C_20 
REMARK   15  A    between atoms: C_18  and  C_22 
REMARK   16  A    between atoms: C_20  and  C_25 
REMARK   17  A    between atoms: C_22  and  C_28 
REMARK   18  A    between atoms: C_23  and  C_24 
REMARK   19  A    between atoms: C_23  and  C_26 
REMARK   20  A    between atoms: C_24  and  C_27 
REMARK   21  A    between atoms: C_27  and  C_36 
REMARK   22  A    between atoms: C_29  and  C_30 
REMARK   23  A    between atoms: C_29  and  C_33 
REMARK   24  A    between atoms: C_30  and  C_35 
REMARK   25  A    between atoms: C_31  and  C_32 
REMARK   26  A    between atoms: C_31  and  C_34 
REMARK   27  A    between atoms: C_32  and  C_37 
ROOT
HETATM    1  C   UNK N   1      25.202  13.820   8.058  0.00  0.00     0.022 C 
ENDROOT
BRANCH   1   2
HETATM    2  C   UNK N   1      24.359  12.638   8.562  0.00  0.00     0.003 C 
BRANCH   2   3
HETATM    3  C   UNK N   1      24.243  12.513  10.088  0.00  0.00     0.020 C 
BRANCH   3   4
HETATM    4  C   UNK N   1      22.813  12.633  10.595  0.00  0.00     0.122 C 
BRANCH   4   5
HETATM    5  N   UNK N   1      22.124  13.684   9.892  0.00  0.00    -0.361 N 
HETATM    6  C   UNK N   1      20.771  13.775   9.900  0.00  0.00     0.217 C 
HETATM    7  O   UNK N   1      20.098  12.963  10.515  0.00  0.00    -0.274 OA
HETATM    8  H   UNK N   1      22.648  14.352   9.394  0.00  0.00     0.162 HD
BRANCH   6   9
HETATM    9  C   UNK N   1      20.079  14.874   9.164  0.00  0.00     0.112 C 
BRANCH   9  10
HETATM   10  C   UNK N   1      20.987  15.602   8.186  0.00  0.00     0.114 C 
BRANCH  10  11
HETATM   11  C   UNK N   1      20.903  14.966   6.835  0.00  0.00     0.243 C 
HETATM   12  O   UNK N   1      20.043  14.120   6.634  0.00  0.00    -0.271 OA
HETATM   13  N   UNK N   1      21.780  15.303   5.849  0.00  0.00    -0.229 N 
BRANCH  13  14
HETATM   14  O   UNK N   1      22.729  16.225   6.082  0.00  0.00    -0.285 OA
HETATM   15  H   UNK N   1      22.817  16.693   6.928  0.00  0.00     0.245 HD
ENDBRANCH  13  14
BRANCH  13  16
HETATM   16  C   UNK N   1      21.704  14.646   4.563  0.00  0.00     0.159 C 
BRANCH  16  17
HETATM   17  C   UNK N   1      21.283  15.591   3.454  0.00  0.00     0.022 C 
BRANCH  17  18
HETATM   18  C   UNK N   1      19.929  15.133   2.964  0.00  0.00     0.003 C 
BRANCH  18  19
HETATM   19  C   UNK N   1      19.919  15.018   1.459  0.00  0.00     0.019 C 
BRANCH  19  20
HETATM   20  C   UNK N   1      19.977  16.414   0.878  0.00  0.00     0.111 C 
BRANCH  20  21
HETATM   21  N   UNK N   1      18.752  16.694   0.156  0.00  0.00    -0.430 N 
HETATM   22  H   UNK N   1      18.106  15.936  -0.067  0.00  0.00     0.149 HD
HETATM   23  H   UNK N   1      18.535  17.648  -0.129  0.00  0.00     0.149 HD
ENDBRANCH  20  21
ENDBRANCH  19  20
ENDBRANCH  18  19
ENDBRANCH  17  18
ENDBRANCH  16  17
ENDBRANCH  13  16
ENDBRANCH  10  11
ENDBRANCH   9  10
ENDBRANCH   6   9
ENDBRANCH   4   5
ENDBRANCH   3   4
ENDBRANCH   2   3
ENDBRANCH   1   2
BRANCH   1  24
HETATM   24  C   UNK N   1      25.222  13.973   6.536  0.00  0.00     0.159 C 
BRANCH  24  25
HETATM   25  N   UNK N   1      26.078  15.064   6.141  0.00  0.00    -0.229 N 
HETATM   26  C   UNK N   1      27.270  14.821   5.512  0.00  0.00     0.243 C 
HETATM   27  O   UNK N   1      27.577  13.673   5.229  0.00  0.00    -0.271 OA
BRANCH  25  28
HETATM   28  O   UNK N   1      25.670  16.310   6.414  0.00  0.00    -0.285 OA
HETATM   29  H   UNK N   1      24.931  16.724   5.943  0.00  0.00     0.245 HD
ENDBRANCH  25  28
BRANCH  26  30
HETATM   30  C   UNK N   1      28.250  15.907   5.137  0.00  0.00     0.114 C 
BRANCH  30  31
HETATM   31  C   UNK N   1      29.171  16.433   6.233  0.00  0.00     0.112 C 
BRANCH  31  32
HETATM   32  C   UNK N   1      28.804  17.822   6.649  0.00  0.00     0.217 C 
HETATM   33  O   UNK N   1      29.279  18.286   7.675  0.00  0.00    -0.274 OA
HETATM   34  N   UNK N   1      27.964  18.559   5.884  0.00  0.00    -0.361 N 
HETATM   35  H   UNK N   1      27.572  18.147   5.082  0.00  0.00     0.162 HD
BRANCH  34  36
HETATM   36  C   UNK N   1      27.624  19.917   6.200  0.00  0.00     0.122 C 
BRANCH  36  37
HETATM   37  C   UNK N   1      26.585  20.375   5.205  0.00  0.00     0.020 C 
BRANCH  37  38
HETATM   38  C   UNK N   1      26.765  19.633   3.894  0.00  0.00     0.003 C 
BRANCH  38  39
HETATM   39  C   UNK N   1      25.415  19.218   3.340  0.00  0.00     0.022 C 
BRANCH  39  40
HETATM   40  C   UNK N   1      24.400  20.336   3.572  0.00  0.00     0.159 C 
BRANCH  40  41
HETATM   41  N   UNK N   1      23.046  20.131   3.074  0.00  0.00    -0.229 N 
HETATM   42  C   UNK N   1      22.105  19.335   3.672  0.00  0.00     0.239 C 
HETATM   43  O   UNK N   1      22.347  18.712   4.693  0.00  0.00    -0.272 OA
HETATM   44  C   UNK N   1      20.737  19.224   3.081  0.00  0.00     0.119 C 
BRANCH  41  45
HETATM   45  O   UNK N   1      22.704  20.799   1.963  0.00  0.00    -0.285 OA
HETATM   46  H   UNK N   1      22.974  21.723   1.850  0.00  0.00     0.245 HD
ENDBRANCH  41  45
ENDBRANCH  40  41
ENDBRANCH  39  40
ENDBRANCH  38  39
ENDBRANCH  37  38
ENDBRANCH  36  37
ENDBRANCH  34  36
ENDBRANCH  31  32
ENDBRANCH  30  31
ENDBRANCH  26  30
ENDBRANCH  24  25
ENDBRANCH   1  24
TORSDOF 27
ENDMDL
MODEL 6
REMARK VINA RESULT:      -5.6      7.701     12.426
REMARK  27 active torsions:
REMARK  status: ('A' for Active; 'I' for Inactive)
REMARK    1  A    between atoms: O_1  and  N_9 
REMARK    2  A    between atoms: O_2  and  N_12 
REMARK    3  A    between atoms: O_6  and  N_13 
REMARK    4  A    between atoms: N_9  and  C_19 
REMARK       I    between atoms: N_9  and  C_33 
REMARK    5  A    between atoms: N_10  and  C_21 
REMARK       I    between atoms: N_10  and  C_34 
REMARK    6  A    between atoms: N_11  and  C_25 
REMARK       I    between atoms: N_11  and  C_35 
REMARK    7  A    between atoms: N_12  and  C_26 
REMARK       I    between atoms: N_12  and  C_37 
REMARK    8  A    between atoms: N_13  and  C_28 
REMARK       I    between atoms: N_13  and  C_38 
REMARK    9  A    between atoms: N_14  and  C_36 
REMARK   10  A    between atoms: C_15  and  C_16 
REMARK   11  A    between atoms: C_15  and  C_17 
REMARK   12  A    between atoms: C_16  and  C_19 
REMARK   13  A    between atoms: C_17  and  C_21 
REMARK   14  A    between atoms: C_18  and  C_20 
REMARK   15  A    between atoms: C_18  and  C_22 
REMARK   16  A    between atoms: C_20  and  C_25 
REMARK   17  A    between atoms: C_22  and  C_28 
REMARK   18  A    between atoms: C_23  and  C_24 
REMARK   19  A    between atoms: C_23  and  C_26 
REMARK   20  A    between atoms: C_24  and  C_27 
REMARK   21  A    between atoms: C_27  and  C_36 
REMARK   22  A    between atoms: C_29  and  C_30 
REMARK   23  A    between atoms: C_29  and  C_33 
REMARK   24  A    between atoms: C_30  and  C_35 
REMARK   25  A    between atoms: C_31  and  C_32 
REMARK   26  A    between atoms: C_31  and  C_34 
REMARK   27  A    between atoms: C_32  and  C_37 
ROOT
HETATM    1  C   UNK N   1      35.113  14.948   8.641  0.00  0.00     0.022 C 
ENDROOT
BRANCH   1   2
HETATM    2  C   UNK N   1      34.828  15.831   7.416  0.00  0.00     0.003 C 
BRANCH   2   3
HETATM    3  C   UNK N   1      34.639  17.326   7.710  0.00  0.00     0.020 C 
BRANCH   3   4
HETATM    4  C   UNK N   1      33.419  17.925   7.025  0.00  0.00     0.122 C 
BRANCH   4   5
HETATM    5  N   UNK N   1      32.423  18.275   8.003  0.00  0.00    -0.361 N 
HETATM    6  C   UNK N   1      31.413  17.429   8.323  0.00  0.00     0.217 C 
HETATM    7  O   UNK N   1      31.327  16.334   7.787  0.00  0.00    -0.274 OA
HETATM    8  H   UNK N   1      32.476  19.150   8.451  0.00  0.00     0.162 HD
BRANCH   6   9
HETATM    9  C   UNK N   1      30.390  17.814   9.340  0.00  0.00     0.112 C 
BRANCH   9  10
HETATM   10  C   UNK N   1      29.041  17.151   9.110  0.00  0.00     0.114 C 
BRANCH  10  11
HETATM   11  C   UNK N   1      28.252  17.928   8.105  0.00  0.00     0.243 C 
HETATM   12  O   UNK N   1      27.745  18.987   8.445  0.00  0.00    -0.271 OA
HETATM   13  N   UNK N   1      28.081  17.459   6.838  0.00  0.00    -0.229 N 
BRANCH  13  14
HETATM   14  O   UNK N   1      28.634  16.289   6.476  0.00  0.00    -0.285 OA
HETATM   15  H   UNK N   1      29.585  16.179   6.320  0.00  0.00     0.245 HD
ENDBRANCH  13  14
BRANCH  13  16
HETATM   16  C   UNK N   1      27.282  18.209   5.894  0.00  0.00     0.159 C 
BRANCH  16  17
HETATM   17  C   UNK N   1      28.106  19.201   5.096  0.00  0.00     0.022 C 
BRANCH  17  18
HETATM   18  C   UNK N   1      27.317  20.487   5.027  0.00  0.00     0.003 C 
BRANCH  18  19
HETATM   19  C   UNK N   1      27.589  21.344   6.240  0.00  0.00     0.019 C 
BRANCH  19  20
HETATM   20  C   UNK N   1      26.262  21.828   6.784  0.00  0.00     0.111 C 
BRANCH  20  21
HETATM   21  N   UNK N   1      25.900  21.049   7.951  0.00  0.00    -0.430 N 
HETATM   22  H   UNK N   1      24.922  20.820   8.129  0.00  0.00     0.149 HD
HETATM   23  H   UNK N   1      26.623  20.731   8.596  0.00  0.00     0.149 HD
ENDBRANCH  20  21
ENDBRANCH  19  20
ENDBRANCH  18  19
ENDBRANCH  17  18
ENDBRANCH  16  17
ENDBRANCH  13  16
ENDBRANCH  10  11
ENDBRANCH   9  10
ENDBRANCH   6   9
ENDBRANCH   4   5
ENDBRANCH   3   4
ENDBRANCH   2   3
ENDBRANCH   1   2
BRANCH   1  24
HETATM   24  C   UNK N   1      34.963  15.668   9.983  0.00  0.00     0.159 C 
BRANCH  24  25
HETATM   25  N   UNK N   1      35.977  15.236  10.912  0.00  0.00    -0.229 N 
HETATM   26  C   UNK N   1      35.677  14.341  11.904  0.00  0.00     0.243 C 
HETATM   27  O   UNK N   1      34.555  13.859  11.960  0.00  0.00    -0.271 OA
BRANCH  25  28
HETATM   28  O   UNK N   1      37.210  15.741  10.773  0.00  0.00    -0.285 OA
HETATM   29  H   UNK N   1      37.978  15.180  10.586  0.00  0.00     0.245 HD
ENDBRANCH  25  28
BRANCH  26  30
HETATM   30  C   UNK N   1      36.667  13.902  12.956  0.00  0.00     0.114 C 
BRANCH  30  31
HETATM   31  C   UNK N   1      36.504  14.475  14.360  0.00  0.00     0.112 C 
BRANCH  31  32
HETATM   32  C   UNK N   1      35.739  13.550  15.253  0.00  0.00     0.217 C 
HETATM   33  O   UNK N   1      35.831  13.674  16.465  0.00  0.00    -0.274 OA
HETATM   34  N   UNK N   1      34.941  12.596  14.717  0.00  0.00    -0.361 N 
HETATM   35  H   UNK N   1      34.912  12.500  13.738  0.00  0.00     0.162 HD
BRANCH  34  36
HETATM   36  C   UNK N   1      34.136  11.722  15.521  0.00  0.00     0.122 C 
BRANCH  36  37
HETATM   37  C   UNK N   1      33.663  10.592  14.639  0.00  0.00     0.020 C 
BRANCH  37  38
HETATM   38  C   UNK N   1      34.498  10.539  13.375  0.00  0.00     0.003 C 
BRANCH  38  39
HETATM   39  C   UNK N   1      33.660  10.035  12.215  0.00  0.00     0.022 C 
BRANCH  39  40
HETATM   40  C   UNK N   1      34.571   9.684  11.040  0.00  0.00     0.159 C 
BRANCH  40  41
HETATM   41  N   UNK N   1      35.302  10.774  10.405  0.00  0.00    -0.229 N 
HETATM   42  C   UNK N   1      36.667  10.875  10.357  0.00  0.00     0.239 C 
HETATM   43  O   UNK N   1      37.391  10.037  10.870  0.00  0.00    -0.272 OA
HETATM   44  C   UNK N   1      37.306  12.028   9.653  0.00  0.00     0.119 C 
BRANCH  41  45
HETATM   45  O   UNK N   1      34.569  11.724   9.807  0.00  0.00    -0.285 OA
HETATM   46  H   UNK N   1      34.978  12.567   9.558  0.00  0.00     0.245 HD
ENDBRANCH  41  45
ENDBRANCH  40  41
ENDBRANCH  39  40
ENDBRANCH  38  39
ENDBRANCH  37  38
ENDBRANCH  36  37
ENDBRANCH  34  36
ENDBRANCH  31  32
ENDBRANCH  30  31
ENDBRANCH  26  30
ENDBRANCH  24  25
ENDBRANCH   1  24
TORSDOF 27
ENDMDL
MODEL 7
REMARK VINA RESULT:      -5.6      2.467      7.380
REMARK  27 active torsions:
REMARK  status: ('A' for Active; 'I' for Inactive)
REMARK    1  A    between atoms: O_1  and  N_9 
REMARK    2  A    between atoms: O_2  and  N_12 
REMARK    3  A    between atoms: O_6  and  N_13 
REMARK    4  A    between atoms: N_9  and  C_19 
REMARK       I    between atoms: N_9  and  C_33 
REMARK    5  A    between atoms: N_10  and  C_21 
REMARK       I    between atoms: N_10  and  C_34 
REMARK    6  A    between atoms: N_11  and  C_25 
REMARK       I    between atoms: N_11  and  C_35 
REMARK    7  A    between atoms: N_12  and  C_26 
REMARK       I    between atoms: N_12  and  C_37 
REMARK    8  A    between atoms: N_13  and  C_28 
REMARK       I    between atoms: N_13  and  C_38 
REMARK    9  A    between atoms: N_14  and  C_36 
REMARK   10  A    between atoms: C_15  and  C_16 
REMARK   11  A    between atoms: C_15  and  C_17 
REMARK   12  A    between atoms: C_16  and  C_19 
REMARK   13  A    between atoms: C_17  and  C_21 
REMARK   14  A    between atoms: C_18  and  C_20 
REMARK   15  A    between atoms: C_18  and  C_22 
REMARK   16  A    between atoms: C_20  and  C_25 
REMARK   17  A    between atoms: C_22  and  C_28 
REMARK   18  A    between atoms: C_23  and  C_24 
REMARK   19  A    between atoms: C_23  and  C_26 
REMARK   20  A    between atoms: C_24  and  C_27 
REMARK   21  A    between atoms: C_27  and  C_36 
REMARK   22  A    between atoms: C_29  and  C_30 
REMARK   23  A    between atoms: C_29  and  C_33 
REMARK   24  A    between atoms: C_30  and  C_35 
REMARK   25  A    between atoms: C_31  and  C_32 
REMARK   26  A    between atoms: C_31  and  C_34 
REMARK   27  A    between atoms: C_32  and  C_37 
ROOT
HETATM    1  C   UNK N   1      20.217  15.200   6.097  0.00  0.00     0.022 C 
ENDROOT
BRANCH   1   2
HETATM    2  C   UNK N   1      20.685  16.471   6.823  0.00  0.00     0.003 C 
BRANCH   2   3
HETATM    3  C   UNK N   1      20.718  16.381   8.355  0.00  0.00     0.020 C 
BRANCH   3   4
HETATM    4  C   UNK N   1      20.185  15.061   8.893  0.00  0.00     0.122 C 
BRANCH   4   5
HETATM    5  N   UNK N   1      21.248  14.308   9.503  0.00  0.00    -0.361 N 
HETATM    6  C   UNK N   1      20.996  13.246  10.307  0.00  0.00     0.217 C 
HETATM    7  O   UNK N   1      19.847  12.895  10.530  0.00  0.00    -0.274 OA
HETATM    8  H   UNK N   1      22.182  14.570   9.332  0.00  0.00     0.162 HD
BRANCH   6   9
HETATM    9  C   UNK N   1      22.116  12.479  10.930  0.00  0.00     0.112 C 
BRANCH   9  10
HETATM   10  C   UNK N   1      22.932  11.690   9.919  0.00  0.00     0.114 C 
BRANCH  10  11
HETATM   11  C   UNK N   1      24.120  12.488   9.483  0.00  0.00     0.243 C 
HETATM   12  O   UNK N   1      25.059  12.617  10.256  0.00  0.00    -0.271 OA
HETATM   13  N   UNK N   1      24.152  13.079   8.257  0.00  0.00    -0.229 N 
BRANCH  13  14
HETATM   14  O   UNK N   1      23.111  12.940   7.418  0.00  0.00    -0.285 OA
HETATM   15  H   UNK N   1      23.087  13.340   6.534  0.00  0.00     0.245 HD
ENDBRANCH  13  14
BRANCH  13  16
HETATM   16  C   UNK N   1      25.295  13.878   7.872  0.00  0.00     0.159 C 
BRANCH  16  17
HETATM   17  C   UNK N   1      24.941  14.942   6.851  0.00  0.00     0.022 C 
BRANCH  17  18
HETATM   18  C   UNK N   1      26.134  15.100   5.938  0.00  0.00     0.003 C 
BRANCH  18  19
HETATM   19  C   UNK N   1      26.720  16.485   6.063  0.00  0.00     0.019 C 
BRANCH  19  20
HETATM   20  C   UNK N   1      28.187  16.347   6.412  0.00  0.00     0.111 C 
BRANCH  20  21
HETATM   21  N   UNK N   1      28.563  17.379   7.357  0.00  0.00    -0.430 N 
HETATM   22  H   UNK N   1      28.631  17.161   8.351  0.00  0.00     0.149 HD
HETATM   23  H   UNK N   1      28.758  18.325   7.029  0.00  0.00     0.149 HD
ENDBRANCH  20  21
ENDBRANCH  19  20
ENDBRANCH  18  19
ENDBRANCH  17  18
ENDBRANCH  16  17
ENDBRANCH  13  16
ENDBRANCH  10  11
ENDBRANCH   9  10
ENDBRANCH   6   9
ENDBRANCH   4   5
ENDBRANCH   3   4
ENDBRANCH   2   3
ENDBRANCH   1   2
BRANCH   1  24
HETATM   24  C   UNK N   1      18.974  15.397   5.227  0.00  0.00     0.159 C 
BRANCH  24  25
HETATM   25  N   UNK N   1      19.298  15.251   3.829  0.00  0.00    -0.229 N 
HETATM   26  C   UNK N   1      19.089  14.060   3.187  0.00  0.00     0.243 C 
HETATM   27  O   UNK N   1      18.566  13.134   3.791  0.00  0.00    -0.271 OA
BRANCH  25  28
HETATM   28  O   UNK N   1      19.809  16.311   3.190  0.00  0.00    -0.285 OA
HETATM   29  H   UNK N   1      19.570  17.221   3.430  0.00  0.00     0.245 HD
ENDBRANCH  25  28
BRANCH  26  30
HETATM   30  C   UNK N   1      19.473  13.811   1.748  0.00  0.00     0.114 C 
BRANCH  30  31
HETATM   31  C   UNK N   1      20.800  13.107   1.484  0.00  0.00     0.112 C 
BRANCH  31  32
HETATM   32  C   UNK N   1      21.958  14.049   1.580  0.00  0.00     0.217 C 
HETATM   33  O   UNK N   1      22.377  14.590   0.567  0.00  0.00    -0.274 OA
HETATM   34  N   UNK N   1      22.523  14.308   2.783  0.00  0.00    -0.361 N 
HETATM   35  H   UNK N   1      22.185  13.833   3.576  0.00  0.00     0.162 HD
BRANCH  34  36
HETATM   36  C   UNK N   1      23.594  15.248   2.946  0.00  0.00     0.122 C 
BRANCH  36  37
HETATM   37  C   UNK N   1      23.133  16.309   3.917  0.00  0.00     0.020 C 
BRANCH  37  38
HETATM   38  C   UNK N   1      24.063  17.505   3.855  0.00  0.00     0.003 C 
BRANCH  38  39
HETATM   39  C   UNK N   1      23.471  18.667   4.629  0.00  0.00     0.022 C 
BRANCH  39  40
HETATM   40  C   UNK N   1      22.038  18.917   4.160  0.00  0.00     0.159 C 
BRANCH  40  41
HETATM   41  N   UNK N   1      21.843  19.848   3.056  0.00  0.00    -0.229 N 
HETATM   42  C   UNK N   1      20.772  19.834   2.202  0.00  0.00     0.239 C 
HETATM   43  O   UNK N   1      19.882  19.006   2.303  0.00  0.00    -0.272 OA
HETATM   44  C   UNK N   1      20.668  20.859   1.119  0.00  0.00     0.119 C 
BRANCH  41  45
HETATM   45  O   UNK N   1      22.777  20.797   2.895  0.00  0.00    -0.285 OA
HETATM   46  H   UNK N   1      23.492  20.670   2.252  0.00  0.00     0.245 HD
ENDBRANCH  41  45
ENDBRANCH  40  41
ENDBRANCH  39  40
ENDBRANCH  38  39
ENDBRANCH  37  38
ENDBRANCH  36  37
ENDBRANCH  34  36
ENDBRANCH  31  32
ENDBRANCH  30  31
ENDBRANCH  26  30
ENDBRANCH  24  25
ENDBRANCH   1  24
TORSDOF 27
ENDMDL
MODEL 8
REMARK VINA RESULT:      -5.5      2.801      9.254
REMARK  27 active torsions:
REMARK  status: ('A' for Active; 'I' for Inactive)
REMARK    1  A    between atoms: O_1  and  N_9 
REMARK    2  A    between atoms: O_2  and  N_12 
REMARK    3  A    between atoms: O_6  and  N_13 
REMARK    4  A    between atoms: N_9  and  C_19 
REMARK       I    between atoms: N_9  and  C_33 
REMARK    5  A    between atoms: N_10  and  C_21 
REMARK       I    between atoms: N_10  and  C_34 
REMARK    6  A    between atoms: N_11  and  C_25 
REMARK       I    between atoms: N_11  and  C_35 
REMARK    7  A    between atoms: N_12  and  C_26 
REMARK       I    between atoms: N_12  and  C_37 
REMARK    8  A    between atoms: N_13  and  C_28 
REMARK       I    between atoms: N_13  and  C_38 
REMARK    9  A    between atoms: N_14  and  C_36 
REMARK   10  A    between atoms: C_15  and  C_16 
REMARK   11  A    between atoms: C_15  and  C_17 
REMARK   12  A    between atoms: C_16  and  C_19 
REMARK   13  A    between atoms: C_17  and  C_21 
REMARK   14  A    between atoms: C_18  and  C_20 
REMARK   15  A    between atoms: C_18  and  C_22 
REMARK   16  A    between atoms: C_20  and  C_25 
REMARK   17  A    between atoms: C_22  and  C_28 
REMARK   18  A    between atoms: C_23  and  C_24 
REMARK   19  A    between atoms: C_23  and  C_26 
REMARK   20  A    between atoms: C_24  and  C_27 
REMARK   21  A    between atoms: C_27  and  C_36 
REMARK   22  A    between atoms: C_29  and  C_30 
REMARK   23  A    between atoms: C_29  and  C_33 
REMARK   24  A    between atoms: C_30  and  C_35 
REMARK   25  A    between atoms: C_31  and  C_32 
REMARK   26  A    between atoms: C_31  and  C_34 
REMARK   27  A    between atoms: C_32  and  C_37 
ROOT
HETATM    1  C   UNK N   1      25.143  14.043   7.663  0.00  0.00     0.022 C 
ENDROOT
BRANCH   1   2
HETATM    2  C   UNK N   1      24.120  12.999   8.140  0.00  0.00     0.003 C 
BRANCH   2   3
HETATM    3  C   UNK N   1      24.245  12.576   9.610  0.00  0.00     0.020 C 
BRANCH   3   4
HETATM    4  C   UNK N   1      22.970  12.796  10.411  0.00  0.00     0.122 C 
BRANCH   4   5
HETATM    5  N   UNK N   1      22.166  13.817   9.793  0.00  0.00    -0.361 N 
HETATM    6  C   UNK N   1      20.811  13.775   9.831  0.00  0.00     0.217 C 
HETATM    7  O   UNK N   1      20.235  12.862  10.403  0.00  0.00    -0.274 OA
HETATM    8  H   UNK N   1      22.610  14.565   9.332  0.00  0.00     0.162 HD
BRANCH   6   9
HETATM    9  C   UNK N   1      19.998  14.845   9.182  0.00  0.00     0.112 C 
BRANCH   9  10
HETATM   10  C   UNK N   1      20.846  15.937   8.549  0.00  0.00     0.114 C 
BRANCH  10  11
HETATM   11  C   UNK N   1      20.549  16.035   7.087  0.00  0.00     0.243 C 
HETATM   12  O   UNK N   1      19.675  15.322   6.614  0.00  0.00    -0.271 OA
HETATM   13  N   UNK N   1      21.251  16.884   6.288  0.00  0.00    -0.229 N 
BRANCH  13  14
HETATM   14  O   UNK N   1      22.217  17.656   6.814  0.00  0.00    -0.285 OA
HETATM   15  H   UNK N   1      23.032  17.884   6.338  0.00  0.00     0.245 HD
ENDBRANCH  13  14
BRANCH  13  16
HETATM   16  C   UNK N   1      20.973  16.934   4.869  0.00  0.00     0.159 C 
BRANCH  16  17
HETATM   17  C   UNK N   1      20.943  18.353   4.333  0.00  0.00     0.022 C 
BRANCH  17  18
HETATM   18  C   UNK N   1      20.423  18.286   2.917  0.00  0.00     0.003 C 
BRANCH  18  19
HETATM   19  C   UNK N   1      20.210  19.673   2.362  0.00  0.00     0.019 C 
BRANCH  19  20
HETATM   20  C   UNK N   1      20.522  19.642   0.880  0.00  0.00     0.111 C 
BRANCH  20  21
HETATM   21  N   UNK N   1      20.543  20.993   0.358  0.00  0.00    -0.430 N 
HETATM   22  H   UNK N   1      20.694  21.782   0.988  0.00  0.00     0.149 HD
HETATM   23  H   UNK N   1      20.408  21.157  -0.639  0.00  0.00     0.149 HD
ENDBRANCH  20  21
ENDBRANCH  19  20
ENDBRANCH  18  19
ENDBRANCH  17  18
ENDBRANCH  16  17
ENDBRANCH  13  16
ENDBRANCH  10  11
ENDBRANCH   9  10
ENDBRANCH   6   9
ENDBRANCH   4   5
ENDBRANCH   3   4
ENDBRANCH   2   3
ENDBRANCH   1   2
BRANCH   1  24
HETATM   24  C   UNK N   1      24.698  14.843   6.437  0.00  0.00     0.159 C 
BRANCH  24  25
HETATM   25  N   UNK N   1      25.821  15.510   5.826  0.00  0.00    -0.229 N 
HETATM   26  C   UNK N   1      25.639  16.661   5.106  0.00  0.00     0.243 C 
HETATM   27  O   UNK N   1      24.524  17.156   5.036  0.00  0.00    -0.271 OA
BRANCH  25  28
HETATM   28  O   UNK N   1      27.035  14.967   5.985  0.00  0.00    -0.285 OA
HETATM   29  H   UNK N   1      27.165  14.008   6.050  0.00  0.00     0.245 HD
ENDBRANCH  25  28
BRANCH  26  30
HETATM   30  C   UNK N   1      26.754  17.372   4.378  0.00  0.00     0.114 C 
BRANCH  30  31
HETATM   31  C   UNK N   1      26.846  18.886   4.537  0.00  0.00     0.112 C 
BRANCH  31  32
HETATM   32  C   UNK N   1      27.334  19.273   5.897  0.00  0.00     0.217 C 
HETATM   33  O   UNK N   1      26.954  20.323   6.395  0.00  0.00    -0.274 OA
HETATM   34  N   UNK N   1      28.177  18.457   6.573  0.00  0.00    -0.361 N 
HETATM   35  H   UNK N   1      28.491  17.634   6.134  0.00  0.00     0.162 HD
BRANCH  34  36
HETATM   36  C   UNK N   1      28.629  18.745   7.904  0.00  0.00     0.122 C 
BRANCH  36  37
HETATM   37  C   UNK N   1      29.856  17.905   8.166  0.00  0.00     0.020 C 
BRANCH  37  38
HETATM   38  C   UNK N   1      30.403  17.370   6.856  0.00  0.00     0.003 C 
BRANCH  38  39
HETATM   39  C   UNK N   1      30.807  15.916   7.014  0.00  0.00     0.022 C 
BRANCH  39  40
HETATM   40  C   UNK N   1      32.329  15.798   6.946  0.00  0.00     0.159 C 
BRANCH  40  41
HETATM   41  N   UNK N   1      33.113  16.701   7.779  0.00  0.00    -0.229 N 
HETATM   42  C   UNK N   1      33.942  17.682   7.303  0.00  0.00     0.239 C 
HETATM   43  O   UNK N   1      34.096  17.867   6.107  0.00  0.00    -0.272 OA
HETATM   44  C   UNK N   1      34.677  18.566   8.257  0.00  0.00     0.119 C 
BRANCH  41  45
HETATM   45  O   UNK N   1      32.980  16.565   9.106  0.00  0.00    -0.285 OA
HETATM   46  H   UNK N   1      32.229  16.974   9.563  0.00  0.00     0.245 HD
ENDBRANCH  41  45
ENDBRANCH  40  41
ENDBRANCH  39  40
ENDBRANCH  38  39
ENDBRANCH  37  38
ENDBRANCH  36  37
ENDBRANCH  34  36
ENDBRANCH  31  32
ENDBRANCH  30  31
ENDBRANCH  26  30
ENDBRANCH  24  25
ENDBRANCH   1  24
TORSDOF 27
ENDMDL
MODEL 9
REMARK VINA RESULT:      -5.5      3.052      8.718
REMARK  27 active torsions:
REMARK  status: ('A' for Active; 'I' for Inactive)
REMARK    1  A    between atoms: O_1  and  N_9 
REMARK    2  A    between atoms: O_2  and  N_12 
REMARK    3  A    between atoms: O_6  and  N_13 
REMARK    4  A    between atoms: N_9  and  C_19 
REMARK       I    between atoms: N_9  and  C_33 
REMARK    5  A    between atoms: N_10  and  C_21 
REMARK       I    between atoms: N_10  and  C_34 
REMARK    6  A    between atoms: N_11  and  C_25 
REMARK       I    between atoms: N_11  and  C_35 
REMARK    7  A    between atoms: N_12  and  C_26 
REMARK       I    between atoms: N_12  and  C_37 
REMARK    8  A    between atoms: N_13  and  C_28 
REMARK       I    between atoms: N_13  and  C_38 
REMARK    9  A    between atoms: N_14  and  C_36 
REMARK   10  A    between atoms: C_15  and  C_16 
REMARK   11  A    between atoms: C_15  and  C_17 
REMARK   12  A    between atoms: C_16  and  C_19 
REMARK   13  A    between atoms: C_17  and  C_21 
REMARK   14  A    between atoms: C_18  and  C_20 
REMARK   15  A    between atoms: C_18  and  C_22 
REMARK   16  A    between atoms: C_20  and  C_25 
REMARK   17  A    between atoms: C_22  and  C_28 
REMARK   18  A    between atoms: C_23  and  C_24 
REMARK   19  A    between atoms: C_23  and  C_26 
REMARK   20  A    between atoms: C_24  and  C_27 
REMARK   21  A    between atoms: C_27  and  C_36 
REMARK   22  A    between atoms: C_29  and  C_30 
REMARK   23  A    between atoms: C_29  and  C_33 
REMARK   24  A    between atoms: C_30  and  C_35 
REMARK   25  A    between atoms: C_31  and  C_32 
REMARK   26  A    between atoms: C_31  and  C_34 
REMARK   27  A    between atoms: C_32  and  C_37 
ROOT
HETATM    1  C   UNK N   1      26.762  19.168   3.771  0.00  0.00     0.022 C 
ENDROOT
BRANCH   1   2
HETATM    2  C   UNK N   1      25.840  20.131   3.005  0.00  0.00     0.003 C 
BRANCH   2   3
HETATM    3  C   UNK N   1      24.590  20.595   3.766  0.00  0.00     0.020 C 
BRANCH   3   4
HETATM    4  C   UNK N   1      23.290  20.266   3.047  0.00  0.00     0.122 C 
BRANCH   4   5
HETATM    5  N   UNK N   1      22.755  19.023   3.534  0.00  0.00    -0.361 N 
HETATM    6  C   UNK N   1      21.540  18.958   4.133  0.00  0.00     0.217 C 
HETATM    7  O   UNK N   1      20.861  19.964   4.269  0.00  0.00    -0.274 OA
HETATM    8  H   UNK N   1      23.283  18.198   3.429  0.00  0.00     0.162 HD
BRANCH   6   9
HETATM    9  C   UNK N   1      21.005  17.656   4.630  0.00  0.00     0.112 C 
BRANCH   9  10
HETATM   10  C   UNK N   1      21.966  16.932   5.560  0.00  0.00     0.114 C 
BRANCH  10  11
HETATM   11  C   UNK N   1      21.283  16.600   6.848  0.00  0.00     0.243 C 
HETATM   12  O   UNK N   1      20.942  17.512   7.587  0.00  0.00    -0.271 OA
HETATM   13  N   UNK N   1      21.062  15.305   7.206  0.00  0.00    -0.229 N 
BRANCH  13  14
HETATM   14  O   UNK N   1      21.449  14.308   6.392  0.00  0.00    -0.285 OA
HETATM   15  H   UNK N   1      20.942  13.488   6.281  0.00  0.00     0.245 HD
ENDBRANCH  13  14
BRANCH  13  16
HETATM   16  C   UNK N   1      20.434  15.006   8.474  0.00  0.00     0.159 C 
BRANCH  16  17
HETATM   17  C   UNK N   1      21.363  14.274   9.423  0.00  0.00     0.022 C 
BRANCH  17  18
HETATM   18  C   UNK N   1      20.506  13.385  10.293  0.00  0.00     0.003 C 
BRANCH  18  19
HETATM   19  C   UNK N   1      21.342  12.305  10.937  0.00  0.00     0.019 C 
BRANCH  19  20
HETATM   20  C   UNK N   1      22.800  12.677  10.775  0.00  0.00     0.111 C 
BRANCH  20  21
HETATM   21  N   UNK N   1      23.543  12.255  11.946  0.00  0.00    -0.430 N 
HETATM   22  H   UNK N   1      23.368  11.340  12.360  0.00  0.00     0.149 HD
HETATM   23  H   UNK N   1      24.242  12.874  12.356  0.00  0.00     0.149 HD
ENDBRANCH  20  21
ENDBRANCH  19  20
ENDBRANCH  18  19
ENDBRANCH  17  18
ENDBRANCH  16  17
ENDBRANCH  13  16
ENDBRANCH  10  11
ENDBRANCH   9  10
ENDBRANCH   6   9
ENDBRANCH   4   5
ENDBRANCH   3   4
ENDBRANCH   2   3
ENDBRANCH   1   2
BRANCH   1  24
HETATM   24  C   UNK N   1      27.735  19.861   4.728  0.00  0.00     0.159 C 
BRANCH  24  25
HETATM   25  N   UNK N   1      28.282  18.918   5.672  0.00  0.00    -0.229 N 
HETATM   26  C   UNK N   1      28.091  19.089   7.017  0.00  0.00     0.243 C 
HETATM   27  O   UNK N   1      27.397  20.014   7.413  0.00  0.00    -0.271 OA
BRANCH  25  28
HETATM   28  O   UNK N   1      28.981  17.882   5.189  0.00  0.00    -0.285 OA
HETATM   29  H   UNK N   1      28.873  16.982   5.534  0.00  0.00     0.245 HD
ENDBRANCH  25  28
BRANCH  26  30
HETATM   30  C   UNK N   1      28.696  18.185   8.065  0.00  0.00     0.114 C 
BRANCH  30  31
HETATM   31  C   UNK N   1      29.962  18.668   8.766  0.00  0.00     0.112 C 
BRANCH  31  32
HETATM   32  C   UNK N   1      31.063  17.660   8.679  0.00  0.00     0.217 C 
HETATM   33  O   UNK N   1      30.788  16.487   8.475  0.00  0.00    -0.274 OA
HETATM   34  N   UNK N   1      32.353  18.052   8.811  0.00  0.00    -0.361 N 
HETATM   35  H   UNK N   1      32.541  18.998   9.007  0.00  0.00     0.162 HD
BRANCH  34  36
HETATM   36  C   UNK N   1      33.454  17.142   8.676  0.00  0.00     0.122 C 
BRANCH  36  37
HETATM   37  C   UNK N   1      34.274  17.585   7.489  0.00  0.00     0.020 C 
BRANCH  37  38
HETATM   38  C   UNK N   1      33.412  17.596   6.241  0.00  0.00     0.003 C 
BRANCH  38  39
HETATM   39  C   UNK N   1      33.816  16.463   5.317  0.00  0.00     0.022 C 
BRANCH  39  40
HETATM   40  C   UNK N   1      32.904  15.261   5.551  0.00  0.00     0.159 C 
BRANCH  40  41
HETATM   41  N   UNK N   1      31.572  15.299   4.961  0.00  0.00    -0.229 N 
HETATM   42  C   UNK N   1      31.291  15.038   3.646  0.00  0.00     0.239 C 
HETATM   43  O   UNK N   1      32.169  14.756   2.847  0.00  0.00    -0.272 OA
HETATM   44  C   UNK N   1      29.879  15.084   3.161  0.00  0.00     0.119 C 
BRANCH  41  45
HETATM   45  O   UNK N   1      30.555  15.588   5.786  0.00  0.00    -0.285 OA
HETATM   46  H   UNK N   1      29.693  15.844   5.423  0.00  0.00     0.245 HD
ENDBRANCH  41  45
ENDBRANCH  40  41
ENDBRANCH  39  40
ENDBRANCH  38  39
ENDBRANCH  37  38
ENDBRANCH  36  37
ENDBRANCH  34  36
ENDBRANCH  31  32
ENDBRANCH  30  31
ENDBRANCH  26  30
ENDBRANCH  24  25
ENDBRANCH   1  24
TORSDOF 27
ENDMDL
