REMARK  6 active torsions:
REMARK  status: ('A' for Active; 'I' for Inactive)
REMARK    1  A    between atoms: O_2  and  C_6 
REMARK    2  A    between atoms: O_2  and  C_7 
REMARK    3  A    between atoms: N_3  and  C_8 
REMARK    4  A    between atoms: C_6  and  C_9 
REMARK    5  A    between atoms: C_6  and  C_10 
REMARK    6  A    between atoms: C_7  and  C_8 
ROOT
HETATM    1  C   UNK N   1       3.713   0.406   0.429  0.00  0.00     0.204 C 
ENDROOT
BRANCH   1   2
HETATM    2  O   UNK N   1       2.661   1.086  -0.198  0.00  0.00    -0.373 OA
BRANCH   2   3
HETATM    3  C   UNK N   1       1.915   1.620   0.857  0.00  0.00     0.199 C 
BRANCH   3   4
HETATM    4  C   UNK N   1       0.979   2.715   0.358  0.00  0.00     0.297 C 
BRANCH   4   5
HETATM    5  N   UNK N   1       1.702   3.775  -0.337  0.00  0.00     0.082 N 
HETATM    6  C   UNK N   1       2.488   4.523   0.632  0.00  0.00     0.309 C 
HETATM    7  C   UNK N   1       0.701   4.690  -0.852  0.00  0.00     0.309 C 
ENDBRANCH   4   5
ENDBRANCH   3   4
ENDBRANCH   2   3
ENDBRANCH   1   2
BRANCH   1   8
HETATM    8  C   UNK N   1       3.613  -1.088   0.200  0.00  0.00    -0.024 A 
HETATM    9  C   UNK N   1       4.520  -1.955   0.827  0.00  0.00     0.012 A 
HETATM   10  C   UNK N   1       4.401  -3.339   0.667  0.00  0.00     0.024 A 
HETATM   11  C   UNK N   1       3.365  -3.867  -0.108  0.00  0.00     0.034 A 
HETATM   12 Cl   UNK N   1       3.202  -5.601  -0.288  0.00  0.00    -0.084 Cl
HETATM   13  C   UNK N   1       2.453  -3.012  -0.731  0.00  0.00     0.024 A 
HETATM   14  C   UNK N   1       2.576  -1.628  -0.578  0.00  0.00     0.012 A 
ENDBRANCH   1   8
BRANCH   1  15
HETATM   15  C   UNK N   1       5.030   1.064   0.086  0.00  0.00     0.043 A 
HETATM   16  N   UNK N   1       5.197   2.383   0.382  0.00  0.00    -0.367 N 
HETATM   17  C   UNK N   1       6.363   3.036   0.128  0.00  0.00     0.088 A 
ATOM     18  HN  UNK N   1       4.424   2.897   0.806  1.00  0.00     0.165 HD
HETATM   19  C   UNK N   1       7.436   2.353  -0.446  0.00  0.00     0.017 A 
HETATM   20  C   UNK N   1       7.294   1.002  -0.761  0.00  0.00     0.003 A 
HETATM   21  C   UNK N   1       6.088   0.350  -0.497  0.00  0.00     0.028 A 
ENDBRANCH   1  15
TORSDOF 6
