MODEL 1
REMARK VINA RESULT:      -5.6      0.000      0.000
REMARK  6 active torsions:
REMARK  status: ('A' for Active; 'I' for Inactive)
REMARK    1  A    between atoms: O_2  and  C_6 
REMARK    2  A    between atoms: O_2  and  C_7 
REMARK    3  A    between atoms: N_3  and  C_8 
REMARK    4  A    between atoms: C_6  and  C_9 
REMARK    5  A    between atoms: C_6  and  C_10 
REMARK    6  A    between atoms: C_7  and  C_8 
ROOT
HETATM    1  C   UNK N   1      32.544  16.863   7.634  0.00  0.00     0.204 C 
ENDROOT
BRANCH   1   2
HETATM    2  O   UNK N   1      33.224  17.793   6.836  0.00  0.00    -0.373 OA
BRANCH   2   3
HETATM    3  C   UNK N   1      33.542  17.085   5.673  0.00  0.00     0.199 C 
BRANCH   3   4
HETATM    4  C   UNK N   1      32.843  17.692   4.462  0.00  0.00     0.297 C 
BRANCH   4   5
HETATM    5  N   UNK N   1      32.727  16.737   3.365  0.00  0.00     0.082 N 
HETATM    6  C   UNK N   1      31.352  16.268   3.292  0.00  0.00     0.309 C 
HETATM    7  C   UNK N   1      33.537  15.590   3.727  0.00  0.00     0.309 C 
ENDBRANCH   4   5
ENDBRANCH   3   4
ENDBRANCH   2   3
ENDBRANCH   1   2
BRANCH   1   8
HETATM    8  C   UNK N   1      33.414  16.383   8.777  0.00  0.00    -0.024 A 
HETATM    9  C   UNK N   1      34.462  17.188   9.246  0.00  0.00     0.012 A 
HETATM   10  C   UNK N   1      35.234  16.779  10.338  0.00  0.00     0.024 A 
HETATM   11  C   UNK N   1      34.954  15.569  10.978  0.00  0.00     0.034 A 
HETATM   12 Cl   UNK N   1      35.906  15.068  12.360  0.00  0.00    -0.084 Cl
HETATM   13  C   UNK N   1      33.908  14.763  10.522  0.00  0.00     0.024 A 
HETATM   14  C   UNK N   1      33.141  15.168   9.426  0.00  0.00     0.012 A 
ENDBRANCH   1   8
BRANCH   1  15
HETATM   15  C   UNK N   1      31.175  17.394   7.992  0.00  0.00     0.043 A 
HETATM   16  N   UNK N   1      31.031  18.100   9.147  0.00  0.00    -0.367 N 
HETATM   17  C   UNK N   1      29.836  18.632   9.522  0.00  0.00     0.088 A 
ATOM     18  HN  UNK N   1      31.843  18.234   9.751  1.00  0.00     0.165 HD
HETATM   19  C   UNK N   1      28.712  18.468   8.711  0.00  0.00     0.017 A 
HETATM   20  C   UNK N   1      28.829  17.748   7.522  0.00  0.00     0.003 A 
HETATM   21  C   UNK N   1      30.063  17.206   7.157  0.00  0.00     0.028 A 
ENDBRANCH   1  15
TORSDOF 6
ENDMDL
MODEL 2
REMARK VINA RESULT:      -5.6      3.796      5.498
REMARK  6 active torsions:
REMARK  status: ('A' for Active; 'I' for Inactive)
REMARK    1  A    between atoms: O_2  and  C_6 
REMARK    2  A    between atoms: O_2  and  C_7 
REMARK    3  A    between atoms: N_3  and  C_8 
REMARK    4  A    between atoms: C_6  and  C_9 
REMARK    5  A    between atoms: C_6  and  C_10 
REMARK    6  A    between atoms: C_7  and  C_8 
ROOT
HETATM    1  C   UNK N   1      28.539  17.394   6.733  0.00  0.00     0.204 C 
ENDROOT
BRANCH   1   2
HETATM    2  O   UNK N   1      28.188  16.342   5.878  0.00  0.00    -0.373 OA
BRANCH   2   3
HETATM    3  C   UNK N   1      26.990  15.850   6.405  0.00  0.00     0.199 C 
BRANCH   3   4
HETATM    4  C   UNK N   1      25.954  15.655   5.304  0.00  0.00     0.297 C 
BRANCH   4   5
HETATM    5  N   UNK N   1      24.984  16.744   5.268  0.00  0.00     0.082 N 
HETATM    6  C   UNK N   1      23.679  16.226   5.648  0.00  0.00     0.309 C 
HETATM    7  C   UNK N   1      24.877  17.158   3.881  0.00  0.00     0.309 C 
ENDBRANCH   4   5
ENDBRANCH   3   4
ENDBRANCH   2   3
ENDBRANCH   1   2
BRANCH   1   8
HETATM    8  C   UNK N   1      30.029  17.405   7.005  0.00  0.00    -0.024 A 
HETATM    9  C   UNK N   1      30.930  17.087   5.978  0.00  0.00     0.012 A 
HETATM   10  C   UNK N   1      32.309  17.150   6.203  0.00  0.00     0.024 A 
HETATM   11  C   UNK N   1      32.797  17.547   7.451  0.00  0.00     0.034 A 
HETATM   12 Cl   UNK N   1      34.523  17.649   7.725  0.00  0.00    -0.084 Cl
HETATM   13  C   UNK N   1      31.907  17.872   8.478  0.00  0.00     0.024 A 
HETATM   14  C   UNK N   1      30.529  17.801   8.256  0.00  0.00     0.012 A 
ENDBRANCH   1   8
BRANCH   1  15
HETATM   15  C   UNK N   1      27.923  18.685   6.244  0.00  0.00     0.043 A 
HETATM   16  N   UNK N   1      27.353  19.522   7.154  0.00  0.00    -0.367 N 
HETATM   17  C   UNK N   1      26.803  20.713   6.793  0.00  0.00     0.088 A 
ATOM     18  HN  UNK N   1      27.337  19.248   8.137  1.00  0.00     0.165 HD
HETATM   19  C   UNK N   1      26.818  21.112   5.455  0.00  0.00     0.017 A 
HETATM   20  C   UNK N   1      27.393  20.274   4.500  0.00  0.00     0.003 A 
HETATM   21  C   UNK N   1      27.948  19.054   4.890  0.00  0.00     0.028 A 
ENDBRANCH   1  15
TORSDOF 6
ENDMDL
MODEL 3
REMARK VINA RESULT:      -5.6      6.334      9.144
REMARK  6 active torsions:
REMARK  status: ('A' for Active; 'I' for Inactive)
REMARK    1  A    between atoms: O_2  and  C_6 
REMARK    2  A    between atoms: O_2  and  C_7 
REMARK    3  A    between atoms: N_3  and  C_8 
REMARK    4  A    between atoms: C_6  and  C_9 
REMARK    5  A    between atoms: C_6  and  C_10 
REMARK    6  A    between atoms: C_7  and  C_8 
ROOT
HETATM    1  C   UNK N   1      35.895  12.474  14.477  0.00  0.00     0.204 C 
ENDROOT
BRANCH   1   2
HETATM    2  O   UNK N   1      35.211  13.648  14.137  0.00  0.00    -0.373 OA
BRANCH   2   3
HETATM    3  C   UNK N   1      36.088  14.326  13.284  0.00  0.00     0.199 C 
BRANCH   3   4
HETATM    4  C   UNK N   1      35.383  14.731  11.994  0.00  0.00     0.297 C 
BRANCH   4   5
HETATM    5  N   UNK N   1      36.209  15.615  11.177  0.00  0.00     0.082 N 
HETATM    6  C   UNK N   1      35.368  16.661  10.617  0.00  0.00     0.309 C 
HETATM    7  C   UNK N   1      36.682  14.821  10.058  0.00  0.00     0.309 C 
ENDBRANCH   4   5
ENDBRANCH   3   4
ENDBRANCH   2   3
ENDBRANCH   1   2
BRANCH   1   8
HETATM    8  C   UNK N   1      35.762  12.172  15.955  0.00  0.00    -0.024 A 
HETATM    9  C   UNK N   1      35.262  13.150  16.828  0.00  0.00     0.012 A 
HETATM   10  C   UNK N   1      35.082  12.862  18.185  0.00  0.00     0.024 A 
HETATM   11  C   UNK N   1      35.386  11.589  18.675  0.00  0.00     0.034 A 
HETATM   12 Cl   UNK N   1      35.137  11.221  20.369  0.00  0.00    -0.084 Cl
HETATM   13  C   UNK N   1      35.877  10.606  17.813  0.00  0.00     0.024 A 
HETATM   14  C   UNK N   1      36.065  10.896  16.458  0.00  0.00     0.012 A 
ENDBRANCH   1   8
BRANCH   1  15
HETATM   15  C   UNK N   1      35.528  11.366  13.517  0.00  0.00     0.043 A 
HETATM   16  N   UNK N   1      36.525  10.733  12.839  0.00  0.00    -0.367 N 
HETATM   17  C   UNK N   1      36.274   9.709  11.979  0.00  0.00     0.088 A 
ATOM     18  HN  UNK N   1      37.489  11.036  12.980  1.00  0.00     0.165 HD
HETATM   19  C   UNK N   1      34.965   9.273  11.774  0.00  0.00     0.017 A 
HETATM   20  C   UNK N   1      33.922   9.903  12.453  0.00  0.00     0.003 A 
HETATM   21  C   UNK N   1      34.199  10.955  13.328  0.00  0.00     0.028 A 
ENDBRANCH   1  15
TORSDOF 6
ENDMDL
MODEL 4
REMARK VINA RESULT:      -5.4      2.906      5.099
REMARK  6 active torsions:
REMARK  status: ('A' for Active; 'I' for Inactive)
REMARK    1  A    between atoms: O_2  and  C_6 
REMARK    2  A    between atoms: O_2  and  C_7 
REMARK    3  A    between atoms: N_3  and  C_8 
REMARK    4  A    between atoms: C_6  and  C_9 
REMARK    5  A    between atoms: C_6  and  C_10 
REMARK    6  A    between atoms: C_7  and  C_8 
ROOT
HETATM    1  C   UNK N   1      32.398  17.233   7.953  0.00  0.00     0.204 C 
ENDROOT
BRANCH   1   2
HETATM    2  O   UNK N   1      32.935  16.431   8.968  0.00  0.00    -0.373 OA
BRANCH   2   3
HETATM    3  C   UNK N   1      34.195  16.983   9.218  0.00  0.00     0.199 C 
BRANCH   3   4
HETATM    4  C   UNK N   1      35.180  15.907   9.659  0.00  0.00     0.297 C 
BRANCH   4   5
HETATM    5  N   UNK N   1      34.779  15.283  10.915  0.00  0.00     0.082 N 
HETATM    6  C   UNK N   1      35.841  15.466  11.892  0.00  0.00     0.309 C 
HETATM    7  C   UNK N   1      34.693  13.857  10.660  0.00  0.00     0.309 C 
ENDBRANCH   4   5
ENDBRANCH   3   4
ENDBRANCH   2   3
ENDBRANCH   1   2
BRANCH   1   8
HETATM    8  C   UNK N   1      32.702  16.660   6.584  0.00  0.00    -0.024 A 
HETATM    9  C   UNK N   1      32.951  17.519   5.504  0.00  0.00     0.012 A 
HETATM   10  C   UNK N   1      33.288  17.001   4.250  0.00  0.00     0.024 A 
HETATM   11  C   UNK N   1      33.393  15.619   4.070  0.00  0.00     0.034 A 
HETATM   12 Cl   UNK N   1      33.839  14.971   2.506  0.00  0.00    -0.084 Cl
HETATM   13  C   UNK N   1      33.154  14.755   5.141  0.00  0.00     0.024 A 
HETATM   14  C   UNK N   1      32.809  15.272   6.393  0.00  0.00     0.012 A 
ENDBRANCH   1   8
BRANCH   1  15
HETATM   15  C   UNK N   1      30.951  17.549   8.256  0.00  0.00     0.043 A 
HETATM   16  N   UNK N   1      30.653  18.179   9.427  0.00  0.00    -0.367 N 
HETATM   17  C   UNK N   1      29.378  18.520   9.756  0.00  0.00     0.088 A 
ATOM     18  HN  UNK N   1      31.408  18.399  10.077  1.00  0.00     0.165 HD
HETATM   19  C   UNK N   1      28.329  18.234   8.881  0.00  0.00     0.017 A 
HETATM   20  C   UNK N   1      28.604  17.589   7.675  0.00  0.00     0.003 A 
HETATM   21  C   UNK N   1      29.919  17.242   7.357  0.00  0.00     0.028 A 
ENDBRANCH   1  15
TORSDOF 6
ENDMDL
MODEL 5
REMARK VINA RESULT:      -5.4      4.644      6.964
REMARK  6 active torsions:
REMARK  status: ('A' for Active; 'I' for Inactive)
REMARK    1  A    between atoms: O_2  and  C_6 
REMARK    2  A    between atoms: O_2  and  C_7 
REMARK    3  A    between atoms: N_3  and  C_8 
REMARK    4  A    between atoms: C_6  and  C_9 
REMARK    5  A    between atoms: C_6  and  C_10 
REMARK    6  A    between atoms: C_7  and  C_8 
ROOT
HETATM    1  C   UNK N   1      28.952  17.635   5.403  0.00  0.00     0.204 C 
ENDROOT
BRANCH   1   2
HETATM    2  O   UNK N   1      28.988  16.300   4.979  0.00  0.00    -0.373 OA
BRANCH   2   3
HETATM    3  C   UNK N   1      29.907  16.295   3.926  0.00  0.00     0.199 C 
BRANCH   3   4
HETATM    4  C   UNK N   1      31.319  16.034   4.440  0.00  0.00     0.297 C 
BRANCH   4   5
HETATM    5  N   UNK N   1      32.279  16.996   3.909  0.00  0.00     0.082 N 
HETATM    6  C   UNK N   1      33.167  16.313   2.982  0.00  0.00     0.309 C 
HETATM    7  C   UNK N   1      33.098  17.423   5.028  0.00  0.00     0.309 C 
ENDBRANCH   4   5
ENDBRANCH   3   4
ENDBRANCH   2   3
ENDBRANCH   1   2
BRANCH   1   8
HETATM    8  C   UNK N   1      27.804  18.384   4.757  0.00  0.00    -0.024 A 
HETATM    9  C   UNK N   1      27.886  19.772   4.578  0.00  0.00     0.012 A 
HETATM   10  C   UNK N   1      26.857  20.464   3.933  0.00  0.00     0.024 A 
HETATM   11  C   UNK N   1      25.745  19.770   3.447  0.00  0.00     0.034 A 
HETATM   12 Cl   UNK N   1      24.468  20.634   2.617  0.00  0.00    -0.084 Cl
HETATM   13  C   UNK N   1      25.657  18.386   3.615  0.00  0.00     0.024 A 
HETATM   14  C   UNK N   1      26.683  17.695   4.267  0.00  0.00     0.012 A 
ENDBRANCH   1   8
BRANCH   1  15
HETATM   15  C   UNK N   1      29.051  17.701   6.910  0.00  0.00     0.043 A 
HETATM   16  N   UNK N   1      27.901  17.774   7.636  0.00  0.00    -0.367 N 
HETATM   17  C   UNK N   1      27.909  17.809   8.996  0.00  0.00     0.088 A 
ATOM     18  HN  UNK N   1      27.006  17.804   7.146  1.00  0.00     0.165 HD
HETATM   19  C   UNK N   1      29.120  17.763   9.689  0.00  0.00     0.017 A 
HETATM   20  C   UNK N   1      30.313  17.690   8.972  0.00  0.00     0.003 A 
HETATM   21  C   UNK N   1      30.285  17.659   7.576  0.00  0.00     0.028 A 
ENDBRANCH   1  15
TORSDOF 6
ENDMDL
MODEL 6
REMARK VINA RESULT:      -5.3     13.518     16.361
REMARK  6 active torsions:
REMARK  status: ('A' for Active; 'I' for Inactive)
REMARK    1  A    between atoms: O_2  and  C_6 
REMARK    2  A    between atoms: O_2  and  C_7 
REMARK    3  A    between atoms: N_3  and  C_8 
REMARK    4  A    between atoms: C_6  and  C_9 
REMARK    5  A    between atoms: C_6  and  C_10 
REMARK    6  A    between atoms: C_7  and  C_8 
ROOT
HETATM    1  C   UNK N   1      28.086  24.832  -4.822  0.00  0.00     0.204 C 
ENDROOT
BRANCH   1   2
HETATM    2  O   UNK N   1      28.428  24.299  -3.573  0.00  0.00    -0.373 OA
BRANCH   2   3
HETATM    3  C   UNK N   1      29.800  24.542  -3.455  0.00  0.00     0.199 C 
BRANCH   3   4
HETATM    4  C   UNK N   1      30.531  23.294  -2.974  0.00  0.00     0.297 C 
BRANCH   4   5
HETATM    5  N   UNK N   1      30.912  22.424  -4.082  0.00  0.00     0.082 N 
HETATM    6  C   UNK N   1      30.676  21.041  -3.698  0.00  0.00     0.309 C 
HETATM    7  C   UNK N   1      32.345  22.568  -4.248  0.00  0.00     0.309 C 
ENDBRANCH   4   5
ENDBRANCH   3   4
ENDBRANCH   2   3
ENDBRANCH   1   2
BRANCH   1   8
HETATM    8  C   UNK N   1      27.478  23.775  -5.721  0.00  0.00    -0.024 A 
HETATM    9  C   UNK N   1      26.087  23.599  -5.752  0.00  0.00     0.012 A 
HETATM   10  C   UNK N   1      25.512  22.666  -6.620  0.00  0.00     0.024 A 
HETATM   11  C   UNK N   1      26.322  21.912  -7.474  0.00  0.00     0.034 A 
HETATM   12 Cl   UNK N   1      25.600  20.761  -8.577  0.00  0.00    -0.084 Cl
HETATM   13  C   UNK N   1      27.708  22.085  -7.454  0.00  0.00     0.024 A 
HETATM   14  C   UNK N   1      28.284  23.013  -6.581  0.00  0.00     0.012 A 
ENDBRANCH   1   8
BRANCH   1  15
HETATM   15  C   UNK N   1      27.300  26.111  -4.640  0.00  0.00     0.043 A 
HETATM   16  N   UNK N   1      26.639  26.308  -3.466  0.00  0.00    -0.367 N 
HETATM   17  C   UNK N   1      25.934  27.445  -3.219  0.00  0.00     0.088 A 
ATOM     18  HN  UNK N   1      26.673  25.582  -2.750  1.00  0.00     0.165 HD
HETATM   19  C   UNK N   1      25.878  28.455  -4.180  0.00  0.00     0.017 A 
HETATM   20  C   UNK N   1      26.544  28.280  -5.393  0.00  0.00     0.003 A 
HETATM   21  C   UNK N   1      27.259  27.105  -5.629  0.00  0.00     0.028 A 
ENDBRANCH   1  15
TORSDOF 6
ENDMDL
MODEL 7
REMARK VINA RESULT:      -5.3      6.342      9.278
REMARK  6 active torsions:
REMARK  status: ('A' for Active; 'I' for Inactive)
REMARK    1  A    between atoms: O_2  and  C_6 
REMARK    2  A    between atoms: O_2  and  C_7 
REMARK    3  A    between atoms: N_3  and  C_8 
REMARK    4  A    between atoms: C_6  and  C_9 
REMARK    5  A    between atoms: C_6  and  C_10 
REMARK    6  A    between atoms: C_7  and  C_8 
ROOT
HETATM    1  C   UNK N   1      36.105  12.748  14.336  0.00  0.00     0.204 C 
ENDROOT
BRANCH   1   2
HETATM    2  O   UNK N   1      36.898  13.173  13.262  0.00  0.00    -0.373 OA
BRANCH   2   3
HETATM    3  C   UNK N   1      36.020  13.208  12.175  0.00  0.00     0.199 C 
BRANCH   3   4
HETATM    4  C   UNK N   1      35.360  14.577  12.056  0.00  0.00     0.297 C 
BRANCH   4   5
HETATM    5  N   UNK N   1      35.423  15.096  10.694  0.00  0.00     0.082 N 
HETATM    6  C   UNK N   1      36.700  14.723  10.106  0.00  0.00     0.309 C 
HETATM    7  C   UNK N   1      35.425  16.543  10.802  0.00  0.00     0.309 C 
ENDBRANCH   4   5
ENDBRANCH   3   4
ENDBRANCH   2   3
ENDBRANCH   1   2
BRANCH   1   8
HETATM    8  C   UNK N   1      36.293  11.269  14.604  0.00  0.00    -0.024 A 
HETATM    9  C   UNK N   1      37.574  10.762  14.868  0.00  0.00     0.012 A 
HETATM   10  C   UNK N   1      37.749   9.408  15.172  0.00  0.00     0.024 A 
HETATM   11  C   UNK N   1      36.644   8.555  15.230  0.00  0.00     0.034 A 
HETATM   12 Cl   UNK N   1      36.861   6.866  15.635  0.00  0.00    -0.084 Cl
HETATM   13  C   UNK N   1      35.364   9.052  14.975  0.00  0.00     0.024 A 
HETATM   14  C   UNK N   1      35.188  10.404  14.664  0.00  0.00     0.012 A 
ENDBRANCH   1   8
BRANCH   1  15
HETATM   15  C   UNK N   1      36.283  13.683  15.510  0.00  0.00     0.043 A 
HETATM   16  N   UNK N   1      37.165  14.715  15.395  0.00  0.00    -0.367 N 
HETATM   17  C   UNK N   1      37.357  15.613  16.399  0.00  0.00     0.088 A 
ATOM     18  HN  UNK N   1      37.697  14.817  14.531  1.00  0.00     0.165 HD
HETATM   19  C   UNK N   1      36.636  15.498  17.588  0.00  0.00     0.017 A 
HETATM   20  C   UNK N   1      35.727  14.451  17.735  0.00  0.00     0.003 A 
HETATM   21  C   UNK N   1      35.546  13.537  16.696  0.00  0.00     0.028 A 
ENDBRANCH   1  15
TORSDOF 6
ENDMDL
MODEL 8
REMARK VINA RESULT:      -5.2     11.351     14.838
REMARK  6 active torsions:
REMARK  status: ('A' for Active; 'I' for Inactive)
REMARK    1  A    between atoms: O_2  and  C_6 
REMARK    2  A    between atoms: O_2  and  C_7 
REMARK    3  A    between atoms: N_3  and  C_8 
REMARK    4  A    between atoms: C_6  and  C_9 
REMARK    5  A    between atoms: C_6  and  C_10 
REMARK    6  A    between atoms: C_7  and  C_8 
ROOT
HETATM    1  C   UNK N   1      35.642  10.870  20.080  0.00  0.00     0.204 C 
ENDROOT
BRANCH   1   2
HETATM    2  O   UNK N   1      36.686   9.942  20.191  0.00  0.00    -0.373 OA
BRANCH   2   3
HETATM    3  C   UNK N   1      37.414  10.370  21.305  0.00  0.00     0.199 C 
BRANCH   3   4
HETATM    4  C   UNK N   1      38.652   9.503  21.508  0.00  0.00     0.297 C 
BRANCH   4   5
HETATM    5  N   UNK N   1      39.554  10.066  22.506  0.00  0.00     0.082 N 
HETATM    6  C   UNK N   1      38.966  11.286  23.039  0.00  0.00     0.309 C 
HETATM    7  C   UNK N   1      40.758  10.462  21.800  0.00  0.00     0.309 C 
ENDBRANCH   4   5
ENDBRANCH   3   4
ENDBRANCH   2   3
ENDBRANCH   1   2
BRANCH   1   8
HETATM    8  C   UNK N   1      35.636  11.527  18.716  0.00  0.00    -0.024 A 
HETATM    9  C   UNK N   1      36.036  10.799  17.585  0.00  0.00     0.012 A 
HETATM   10  C   UNK N   1      35.979  11.379  16.314  0.00  0.00     0.024 A 
HETATM   11  C   UNK N   1      35.508  12.685  16.162  0.00  0.00     0.034 A 
HETATM   12 Cl   UNK N   1      35.414  13.402  14.567  0.00  0.00    -0.084 Cl
HETATM   13  C   UNK N   1      35.101  13.416  17.280  0.00  0.00     0.024 A 
HETATM   14  C   UNK N   1      35.164  12.840  18.552  0.00  0.00     0.012 A 
ENDBRANCH   1   8
BRANCH   1  15
HETATM   15  C   UNK N   1      34.346  10.246  20.546  0.00  0.00     0.043 A 
HETATM   16  N   UNK N   1      33.749  10.741  21.665  0.00  0.00    -0.367 N 
HETATM   17  C   UNK N   1      32.568  10.249  22.129  0.00  0.00     0.088 A 
ATOM     18  HN  UNK N   1      34.202  11.502  22.173  1.00  0.00     0.165 HD
HETATM   19  C   UNK N   1      31.928   9.212  21.450  0.00  0.00     0.017 A 
HETATM   20  C   UNK N   1      32.516   8.685  20.300  0.00  0.00     0.003 A 
HETATM   21  C   UNK N   1      33.730   9.200  19.842  0.00  0.00     0.028 A 
ENDBRANCH   1  15
TORSDOF 6
ENDMDL
MODEL 9
REMARK VINA RESULT:      -5.2      2.649      4.905
REMARK  6 active torsions:
REMARK  status: ('A' for Active; 'I' for Inactive)
REMARK    1  A    between atoms: O_2  and  C_6 
REMARK    2  A    between atoms: O_2  and  C_7 
REMARK    3  A    between atoms: N_3  and  C_8 
REMARK    4  A    between atoms: C_6  and  C_9 
REMARK    5  A    between atoms: C_6  and  C_10 
REMARK    6  A    between atoms: C_7  and  C_8 
ROOT
HETATM    1  C   UNK N   1      33.145  16.234   7.713  0.00  0.00     0.204 C 
ENDROOT
BRANCH   1   2
HETATM    2  O   UNK N   1      33.006  15.032   7.007  0.00  0.00    -0.373 OA
BRANCH   2   3
HETATM    3  C   UNK N   1      34.162  14.952   6.225  0.00  0.00     0.199 C 
BRANCH   3   4
HETATM    4  C   UNK N   1      34.175  16.046   5.163  0.00  0.00     0.297 C 
BRANCH   4   5
HETATM    5  N   UNK N   1      33.128  15.849   4.166  0.00  0.00     0.082 N 
HETATM    6  C   UNK N   1      33.693  15.151   3.021  0.00  0.00     0.309 C 
HETATM    7  C   UNK N   1      32.747  17.169   3.699  0.00  0.00     0.309 C 
ENDBRANCH   4   5
ENDBRANCH   3   4
ENDBRANCH   2   3
ENDBRANCH   1   2
BRANCH   1   8
HETATM    8  C   UNK N   1      31.827  16.976   7.796  0.00  0.00    -0.024 A 
HETATM    9  C   UNK N   1      30.769  16.623   6.945  0.00  0.00     0.012 A 
HETATM   10  C   UNK N   1      29.531  17.263   7.053  0.00  0.00     0.024 A 
HETATM   11  C   UNK N   1      29.337  18.251   8.022  0.00  0.00     0.034 A 
HETATM   12 Cl   UNK N   1      27.779  19.035   8.173  0.00  0.00    -0.084 Cl
HETATM   13  C   UNK N   1      30.382  18.605   8.879  0.00  0.00     0.024 A 
HETATM   14  C   UNK N   1      31.622  17.970   8.766  0.00  0.00     0.012 A 
ENDBRANCH   1   8
BRANCH   1  15
HETATM   15  C   UNK N   1      33.874  15.986   9.014  0.00  0.00     0.043 A 
HETATM   16  N   UNK N   1      34.879  16.835   9.370  0.00  0.00    -0.367 N 
HETATM   17  C   UNK N   1      35.561  16.692  10.538  0.00  0.00     0.088 A 
ATOM     18  HN  UNK N   1      35.127  17.599   8.742  1.00  0.00     0.165 HD
HETATM   19  C   UNK N   1      35.236  15.657  11.416  0.00  0.00     0.017 A 
HETATM   20  C   UNK N   1      34.213  14.772  11.077  0.00  0.00     0.003 A 
HETATM   21  C   UNK N   1      33.526  14.932   9.872  0.00  0.00     0.028 A 
ENDBRANCH   1  15
TORSDOF 6
ENDMDL
