MODEL 1
REMARK VINA RESULT:      -6.5      0.000      0.000
REMARK  5 active torsions:
REMARK  status: ('A' for Active; 'I' for Inactive)
REMARK    1  A    between atoms: O_2  and  C_17 
REMARK    2  A    between atoms: C_5  and  C_9 
REMARK    3  A    between atoms: C_5  and  C_10 
REMARK    4  A    between atoms: C_10  and  C_17 
REMARK    5  A    between atoms: C_14  and  C_18 
ROOT
HETATM    1  O   UNK N   1      29.902  22.968  -5.938  0.00  0.00    -0.373 OA
HETATM    2  N   UNK N   1      28.184  25.487  -3.919  0.00  0.00    -0.355 N 
HETATM    3  C   UNK N   1      29.683  23.514  -4.636  0.00  0.00     0.112 C 
HETATM    4  C   UNK N   1      28.461  24.412  -4.700  0.00  0.00     0.052 A 
HETATM    5  C   UNK N   1      27.545  24.298  -5.721  0.00  0.00    -0.018 A 
HETATM    6  C   UNK N   1      27.620  23.245  -6.773  0.00  0.00     0.068 C 
HETATM    7  C   UNK N   1      26.665  25.333  -5.568  0.00  0.00    -0.001 A 
HETATM    8  C   UNK N   1      28.750  22.274  -6.398  0.00  0.00     0.174 C 
HETATM    9  C   UNK N   1      27.081  26.049  -4.473  0.00  0.00     0.049 A 
HETATM   10  C   UNK N   1      26.434  27.220  -4.074  0.00  0.00    -0.031 A 
HETATM   11  C   UNK N   1      25.565  25.718  -6.331  0.00  0.00     0.014 A 
HETATM   12  C   UNK N   1      25.314  27.635  -4.832  0.00  0.00     0.009 A 
HETATM   13  C   UNK N   1      24.879  26.882  -5.945  0.00  0.00     0.002 A 
HETATM   14  H   UNK N   1      28.677  25.794  -3.124  0.00  0.00     0.166 HD
ENDROOT
BRANCH   3  15
HETATM   15  C   UNK N   1      30.917  24.370  -4.297  0.00  0.00     0.040 C 
HETATM   16  C   UNK N   1      32.242  23.652  -4.547  0.00  0.00     0.008 C 
ENDBRANCH   3  15
BRANCH   3  17
HETATM   17  C   UNK N   1      29.540  22.388  -3.590  0.00  0.00     0.154 C 
BRANCH  17  18
HETATM   18  C   UNK N   1      29.327  22.934  -2.202  0.00  0.00     0.142 C 
HETATM   19  O   UNK N   1      28.200  23.188  -1.806  0.00  0.00    -0.650 OA
BRANCH  18  20
HETATM   20  O   UNK N   1      30.380  23.133  -1.390  0.00  0.00    -0.776 OA
HETATM   21  H   UNK N   1      30.454  22.654  -0.587  0.00  0.00     0.167 HD
ENDBRANCH  18  20
ENDBRANCH  17  18
ENDBRANCH   3  17
BRANCH  10  22
HETATM   22  C   UNK N   1      26.954  28.016  -2.908  0.00  0.00     0.036 C 
HETATM   23  C   UNK N   1      26.912  29.521  -3.128  0.00  0.00     0.010 C 
ENDBRANCH  10  22
TORSDOF 5
ENDMDL
MODEL 2
REMARK VINA RESULT:      -6.4     10.147     12.633
REMARK  5 active torsions:
REMARK  status: ('A' for Active; 'I' for Inactive)
REMARK    1  A    between atoms: O_2  and  C_17 
REMARK    2  A    between atoms: C_5  and  C_9 
REMARK    3  A    between atoms: C_5  and  C_10 
REMARK    4  A    between atoms: C_10  and  C_17 
REMARK    5  A    between atoms: C_14  and  C_18 
ROOT
HETATM    1  O   UNK N   1      32.197  15.437   4.893  0.00  0.00    -0.373 OA
HETATM    2  N   UNK N   1      29.666  18.072   4.748  0.00  0.00    -0.355 N 
HETATM    3  C   UNK N   1      31.867  16.797   5.176  0.00  0.00     0.112 C 
HETATM    4  C   UNK N   1      30.361  16.951   5.068  0.00  0.00     0.052 A 
HETATM    5  C   UNK N   1      29.526  15.859   5.139  0.00  0.00    -0.018 A 
HETATM    6  C   UNK N   1      30.010  14.477   5.417  0.00  0.00     0.068 C 
HETATM    7  C   UNK N   1      28.269  16.316   4.859  0.00  0.00    -0.001 A 
HETATM    8  C   UNK N   1      31.504  14.554   5.765  0.00  0.00     0.174 C 
HETATM    9  C   UNK N   1      28.381  17.662   4.614  0.00  0.00     0.049 A 
HETATM   10  C   UNK N   1      27.281  18.430   4.230  0.00  0.00    -0.031 A 
HETATM   11  C   UNK N   1      27.053  15.643   4.762  0.00  0.00     0.014 A 
HETATM   12  C   UNK N   1      26.033  17.773   4.123  0.00  0.00     0.009 A 
HETATM   13  C   UNK N   1      25.921  16.391   4.397  0.00  0.00     0.002 A 
HETATM   14  H   UNK N   1      30.018  18.984   4.637  0.00  0.00     0.166 HD
ENDROOT
BRANCH   3  15
HETATM   15  C   UNK N   1      32.538  17.655   4.088  0.00  0.00     0.040 C 
HETATM   16  C   UNK N   1      32.837  16.884   2.803  0.00  0.00     0.008 C 
ENDBRANCH   3  15
BRANCH   3  17
HETATM   17  C   UNK N   1      32.410  17.213   6.560  0.00  0.00     0.154 C 
BRANCH  17  18
HETATM   18  C   UNK N   1      33.914  17.305   6.570  0.00  0.00     0.142 C 
HETATM   19  O   UNK N   1      34.467  18.305   7.000  0.00  0.00    -0.650 OA
BRANCH  18  20
HETATM   20  O   UNK N   1      34.652  16.277   6.114  0.00  0.00    -0.776 OA
HETATM   21  H   UNK N   1      35.462  16.438   5.670  0.00  0.00     0.167 HD
ENDBRANCH  18  20
ENDBRANCH  17  18
ENDBRANCH   3  17
BRANCH  10  22
HETATM   22  C   UNK N   1      27.449  19.890   3.907  0.00  0.00     0.036 C 
HETATM   23  C   UNK N   1      26.262  20.494   3.169  0.00  0.00     0.010 C 
ENDBRANCH  10  22
TORSDOF 5
ENDMDL
MODEL 3
REMARK VINA RESULT:      -6.3     12.736     14.954
REMARK  5 active torsions:
REMARK  status: ('A' for Active; 'I' for Inactive)
REMARK    1  A    between atoms: O_2  and  C_17 
REMARK    2  A    between atoms: C_5  and  C_9 
REMARK    3  A    between atoms: C_5  and  C_10 
REMARK    4  A    between atoms: C_10  and  C_17 
REMARK    5  A    between atoms: C_14  and  C_18 
ROOT
HETATM    1  O   UNK N   1      34.905  16.480   6.701  0.00  0.00    -0.373 OA
HETATM    2  N   UNK N   1      31.551  17.091   8.024  0.00  0.00    -0.355 N 
HETATM    3  C   UNK N   1      33.998  16.311   7.792  0.00  0.00     0.112 C 
HETATM    4  C   UNK N   1      32.599  16.626   7.298  0.00  0.00     0.052 A 
HETATM    5  C   UNK N   1      32.298  16.613   5.954  0.00  0.00    -0.018 A 
HETATM    6  C   UNK N   1      33.272  16.205   4.902  0.00  0.00     0.068 C 
HETATM    7  C   UNK N   1      31.018  17.080   5.840  0.00  0.00    -0.001 A 
HETATM    8  C   UNK N   1      34.530  15.665   5.599  0.00  0.00     0.174 C 
HETATM    9  C   UNK N   1      30.589  17.374   7.111  0.00  0.00     0.049 A 
HETATM   10  C   UNK N   1      29.334  17.938   7.347  0.00  0.00    -0.031 A 
HETATM   11  C   UNK N   1      30.224  17.304   4.719  0.00  0.00     0.014 A 
HETATM   12  C   UNK N   1      28.507  18.178   6.226  0.00  0.00     0.009 A 
HETATM   13  C   UNK N   1      28.947  17.854   4.923  0.00  0.00     0.002 A 
HETATM   14  H   UNK N   1      31.499  17.199   9.000  0.00  0.00     0.166 HD
ENDROOT
BRANCH   3  15
HETATM   15  C   UNK N   1      34.394  17.341   8.866  0.00  0.00     0.040 C 
HETATM   16  C   UNK N   1      34.757  18.710   8.291  0.00  0.00     0.008 C 
ENDBRANCH   3  15
BRANCH   3  17
HETATM   17  C   UNK N   1      34.115  14.890   8.382  0.00  0.00     0.154 C 
BRANCH  17  18
HETATM   18  C   UNK N   1      32.839  14.453   9.054  0.00  0.00     0.142 C 
HETATM   19  O   UNK N   1      32.138  13.592   8.546  0.00  0.00    -0.650 OA
BRANCH  18  20
HETATM   20  O   UNK N   1      32.475  15.004  10.226  0.00  0.00    -0.776 OA
HETATM   21  H   UNK N   1      33.126  15.331  10.816  0.00  0.00     0.167 HD
ENDBRANCH  18  20
ENDBRANCH  17  18
ENDBRANCH   3  17
BRANCH  10  22
HETATM   22  C   UNK N   1      28.919  18.308   8.746  0.00  0.00     0.036 C 
HETATM   23  C   UNK N   1      28.044  17.262   9.420  0.00  0.00     0.010 C 
ENDBRANCH  10  22
TORSDOF 5
ENDMDL
MODEL 4
REMARK VINA RESULT:      -6.3      9.755     12.222
REMARK  5 active torsions:
REMARK  status: ('A' for Active; 'I' for Inactive)
REMARK    1  A    between atoms: O_2  and  C_17 
REMARK    2  A    between atoms: C_5  and  C_9 
REMARK    3  A    between atoms: C_5  and  C_10 
REMARK    4  A    between atoms: C_10  and  C_17 
REMARK    5  A    between atoms: C_14  and  C_18 
ROOT
HETATM    1  O   UNK N   1      30.326  15.822   5.791  0.00  0.00    -0.373 OA
HETATM    2  N   UNK N   1      28.602  18.606   4.166  0.00  0.00    -0.355 N 
HETATM    3  C   UNK N   1      30.243  16.677   4.650  0.00  0.00     0.112 C 
HETATM    4  C   UNK N   1      29.358  17.857   5.007  0.00  0.00     0.052 A 
HETATM    5  C   UNK N   1      29.112  18.192   6.319  0.00  0.00    -0.018 A 
HETATM    6  C   UNK N   1      29.754  17.501   7.474  0.00  0.00     0.068 C 
HETATM    7  C   UNK N   1      28.175  19.187   6.294  0.00  0.00    -0.001 A 
HETATM    8  C   UNK N   1      30.810  16.531   6.924  0.00  0.00     0.174 C 
HETATM    9  C   UNK N   1      27.872  19.413   4.974  0.00  0.00     0.049 A 
HETATM   10  C   UNK N   1      26.892  20.333   4.596  0.00  0.00    -0.031 A 
HETATM   11  C   UNK N   1      27.542  19.872   7.328  0.00  0.00     0.014 A 
HETATM   12  C   UNK N   1      26.233  21.043   5.626  0.00  0.00     0.009 A 
HETATM   13  C   UNK N   1      26.564  20.819   6.981  0.00  0.00     0.002 A 
HETATM   14  H   UNK N   1      28.585  18.571   3.182  0.00  0.00     0.166 HD
ENDROOT
BRANCH   3  15
HETATM   15  C   UNK N   1      29.567  15.863   3.531  0.00  0.00     0.040 C 
HETATM   16  C   UNK N   1      28.538  14.858   4.046  0.00  0.00     0.008 C 
ENDBRANCH   3  15
BRANCH   3  17
HETATM   17  C   UNK N   1      31.651  17.107   4.188  0.00  0.00     0.154 C 
BRANCH  17  18
HETATM   18  C   UNK N   1      32.448  15.945   3.655  0.00  0.00     0.142 C 
HETATM   19  O   UNK N   1      32.908  15.980   2.524  0.00  0.00    -0.650 OA
BRANCH  18  20
HETATM   20  O   UNK N   1      32.666  14.868   4.431  0.00  0.00    -0.776 OA
HETATM   21  H   UNK N   1      31.998  14.221   4.538  0.00  0.00     0.167 HD
ENDBRANCH  18  20
ENDBRANCH  17  18
ENDBRANCH   3  17
BRANCH  10  22
HETATM   22  C   UNK N   1      26.539  20.512   3.144  0.00  0.00     0.036 C 
HETATM   23  C   UNK N   1      25.045  20.438   2.865  0.00  0.00     0.010 C 
ENDBRANCH  10  22
TORSDOF 5
ENDMDL
MODEL 5
REMARK VINA RESULT:      -6.3     12.003     14.467
REMARK  5 active torsions:
REMARK  status: ('A' for Active; 'I' for Inactive)
REMARK    1  A    between atoms: O_2  and  C_17 
REMARK    2  A    between atoms: C_5  and  C_9 
REMARK    3  A    between atoms: C_5  and  C_10 
REMARK    4  A    between atoms: C_10  and  C_17 
REMARK    5  A    between atoms: C_14  and  C_18 
ROOT
HETATM    1  O   UNK N   1      27.823  18.449   8.204  0.00  0.00    -0.373 OA
HETATM    2  N   UNK N   1      30.202  17.399   5.633  0.00  0.00    -0.355 N 
HETATM    3  C   UNK N   1      28.021  17.784   6.956  0.00  0.00     0.112 C 
HETATM    4  C   UNK N   1      29.506  17.518   6.793  0.00  0.00     0.052 A 
HETATM    5  C   UNK N   1      30.355  17.527   7.876  0.00  0.00    -0.018 A 
HETATM    6  C   UNK N   1      29.887  17.700   9.281  0.00  0.00     0.068 C 
HETATM    7  C   UNK N   1      31.622  17.406   7.376  0.00  0.00    -0.001 A 
HETATM    8  C   UNK N   1      28.351  17.682   9.278  0.00  0.00     0.174 C 
HETATM    9  C   UNK N   1      31.503  17.341   6.009  0.00  0.00     0.049 A 
HETATM   10  C   UNK N   1      32.624  17.278   5.180  0.00  0.00    -0.031 A 
HETATM   11  C   UNK N   1      32.859  17.390   8.014  0.00  0.00     0.014 A 
HETATM   12  C   UNK N   1      33.894  17.262   5.802  0.00  0.00     0.009 A 
HETATM   13  C   UNK N   1      34.008  17.308   7.209  0.00  0.00     0.002 A 
HETATM   14  H   UNK N   1      29.841  17.364   4.719  0.00  0.00     0.166 HD
ENDROOT
BRANCH   3  15
HETATM   15  C   UNK N   1      27.562  18.756   5.854  0.00  0.00     0.040 C 
HETATM   16  C   UNK N   1      27.437  20.202   6.332  0.00  0.00     0.008 C 
ENDBRANCH   3  15
BRANCH   3  17
HETATM   17  C   UNK N   1      27.174  16.496   6.885  0.00  0.00     0.154 C 
BRANCH  17  18
HETATM   18  C   UNK N   1      26.838  16.122   5.465  0.00  0.00     0.142 C 
HETATM   19  O   UNK N   1      25.706  16.285   5.036  0.00  0.00    -0.650 OA
BRANCH  18  20
HETATM   20  O   UNK N   1      27.790  15.617   4.659  0.00  0.00    -0.776 OA
HETATM   21  H   UNK N   1      28.632  16.026   4.611  0.00  0.00     0.167 HD
ENDBRANCH  18  20
ENDBRANCH  17  18
ENDBRANCH   3  17
BRANCH  10  22
HETATM   22  C   UNK N   1      32.463  17.272   3.684  0.00  0.00     0.036 C 
HETATM   23  C   UNK N   1      33.223  16.150   2.991  0.00  0.00     0.010 C 
ENDBRANCH  10  22
TORSDOF 5
ENDMDL
MODEL 6
REMARK VINA RESULT:      -6.2     12.125     14.528
REMARK  5 active torsions:
REMARK  status: ('A' for Active; 'I' for Inactive)
REMARK    1  A    between atoms: O_2  and  C_17 
REMARK    2  A    between atoms: C_5  and  C_9 
REMARK    3  A    between atoms: C_5  and  C_10 
REMARK    4  A    between atoms: C_10  and  C_17 
REMARK    5  A    between atoms: C_14  and  C_18 
ROOT
HETATM    1  O   UNK N   1      31.012  16.788   9.147  0.00  0.00    -0.373 OA
HETATM    2  N   UNK N   1      32.188  16.641   5.688  0.00  0.00    -0.355 N 
HETATM    3  C   UNK N   1      32.092  17.007   8.239  0.00  0.00     0.112 C 
HETATM    4  C   UNK N   1      31.536  16.985   6.828  0.00  0.00     0.052 A 
HETATM    5  C   UNK N   1      30.194  17.174   6.587  0.00  0.00    -0.018 A 
HETATM    6  C   UNK N   1      29.211  17.506   7.657  0.00  0.00     0.068 C 
HETATM    7  C   UNK N   1      30.005  16.947   5.253  0.00  0.00    -0.001 A 
HETATM    8  C   UNK N   1      29.986  17.754   8.960  0.00  0.00     0.174 C 
HETATM    9  C   UNK N   1      31.230  16.614   4.730  0.00  0.00     0.049 A 
HETATM   10  C   UNK N   1      31.380  16.253   3.389  0.00  0.00    -0.031 A 
HETATM   11  C   UNK N   1      28.849  16.968   4.477  0.00  0.00     0.014 A 
HETATM   12  C   UNK N   1      30.221  16.265   2.579  0.00  0.00     0.009 A 
HETATM   13  C   UNK N   1      28.967  16.629   3.118  0.00  0.00     0.002 A 
HETATM   14  H   UNK N   1      33.148  16.453   5.580  0.00  0.00     0.166 HD
ENDROOT
BRANCH   3  15
HETATM   15  C   UNK N   1      33.068  15.828   8.413  0.00  0.00     0.040 C 
HETATM   16  C   UNK N   1      32.404  14.566   8.960  0.00  0.00     0.008 C 
ENDBRANCH   3  15
BRANCH   3  17
HETATM   17  C   UNK N   1      32.822  18.326   8.570  0.00  0.00     0.154 C 
BRANCH  17  18
HETATM   18  C   UNK N   1      34.270  18.288   8.154  0.00  0.00     0.142 C 
HETATM   19  O   UNK N   1      34.570  18.232   6.971  0.00  0.00    -0.650 OA
BRANCH  18  20
HETATM   20  O   UNK N   1      35.238  18.327   9.087  0.00  0.00    -0.776 OA
HETATM   21  H   UNK N   1      36.090  18.650   8.868  0.00  0.00     0.167 HD
ENDBRANCH  18  20
ENDBRANCH  17  18
ENDBRANCH   3  17
BRANCH  10  22
HETATM   22  C   UNK N   1      32.725  15.831   2.862  0.00  0.00     0.036 C 
HETATM   23  C   UNK N   1      32.959  14.328   2.918  0.00  0.00     0.010 C 
ENDBRANCH  10  22
TORSDOF 5
ENDMDL
MODEL 7
REMARK VINA RESULT:      -6.2      1.559      2.630
REMARK  5 active torsions:
REMARK  status: ('A' for Active; 'I' for Inactive)
REMARK    1  A    between atoms: O_2  and  C_17 
REMARK    2  A    between atoms: C_5  and  C_9 
REMARK    3  A    between atoms: C_5  and  C_10 
REMARK    4  A    between atoms: C_10  and  C_17 
REMARK    5  A    between atoms: C_14  and  C_18 
ROOT
HETATM    1  O   UNK N   1      31.228  21.842  -5.513  0.00  0.00    -0.373 OA
HETATM    2  N   UNK N   1      28.350  24.070  -5.162  0.00  0.00    -0.355 N 
HETATM    3  C   UNK N   1      30.412  22.615  -4.632  0.00  0.00     0.112 C 
HETATM    4  C   UNK N   1      29.138  22.985  -5.368  0.00  0.00     0.052 A 
HETATM    5  C   UNK N   1      28.731  22.288  -6.483  0.00  0.00    -0.018 A 
HETATM    6  C   UNK N   1      29.438  21.078  -6.994  0.00  0.00     0.068 C 
HETATM    7  C   UNK N   1      27.651  22.958  -6.985  0.00  0.00    -0.001 A 
HETATM    8  C   UNK N   1      30.527  20.697  -5.980  0.00  0.00     0.174 C 
HETATM    9  C   UNK N   1      27.445  24.044  -6.171  0.00  0.00     0.049 A 
HETATM   10  C   UNK N   1      26.449  24.984  -6.443  0.00  0.00    -0.031 A 
HETATM   11  C   UNK N   1      26.868  22.716  -8.111  0.00  0.00     0.014 A 
HETATM   12  C   UNK N   1      25.640  24.764  -7.581  0.00  0.00     0.009 A 
HETATM   13  C   UNK N   1      25.843  23.632  -8.403  0.00  0.00     0.002 A 
HETATM   14  H   UNK N   1      28.420  24.733  -4.438  0.00  0.00     0.166 HD
ENDROOT
BRANCH   3  15
HETATM   15  C   UNK N   1      31.197  23.900  -4.309  0.00  0.00     0.040 C 
HETATM   16  C   UNK N   1      32.126  24.344  -5.438  0.00  0.00     0.008 C 
ENDBRANCH   3  15
BRANCH   3  17
HETATM   17  C   UNK N   1      30.140  21.842  -3.323  0.00  0.00     0.154 C 
BRANCH  17  18
HETATM   18  C   UNK N   1      29.699  22.757  -2.211  0.00  0.00     0.142 C 
HETATM   19  O   UNK N   1      30.474  23.059  -1.317  0.00  0.00    -0.650 OA
BRANCH  18  20
HETATM   20  O   UNK N   1      28.449  23.256  -2.208  0.00  0.00    -0.776 OA
HETATM   21  H   UNK N   1      28.307  24.172  -2.345  0.00  0.00     0.167 HD
ENDBRANCH  18  20
ENDBRANCH  17  18
ENDBRANCH   3  17
BRANCH  10  22
HETATM   22  C   UNK N   1      26.291  26.197  -5.567  0.00  0.00     0.036 C 
HETATM   23  C   UNK N   1      24.933  26.873  -5.699  0.00  0.00     0.010 C 
ENDBRANCH  10  22
TORSDOF 5
ENDMDL
MODEL 8
REMARK VINA RESULT:      -6.0      2.585      5.525
REMARK  5 active torsions:
REMARK  status: ('A' for Active; 'I' for Inactive)
REMARK    1  A    between atoms: O_2  and  C_17 
REMARK    2  A    between atoms: C_5  and  C_9 
REMARK    3  A    between atoms: C_5  and  C_10 
REMARK    4  A    between atoms: C_10  and  C_17 
REMARK    5  A    between atoms: C_14  and  C_18 
ROOT
HETATM    1  O   UNK N   1      28.754  26.720  -4.925  0.00  0.00    -0.373 OA
HETATM    2  N   UNK N   1      26.739  24.016  -6.339  0.00  0.00    -0.355 N 
HETATM    3  C   UNK N   1      27.461  26.123  -5.039  0.00  0.00     0.112 C 
HETATM    4  C   UNK N   1      27.633  24.726  -5.606  0.00  0.00     0.052 A 
HETATM    5  C   UNK N   1      28.848  24.080  -5.553  0.00  0.00    -0.018 A 
HETATM    6  C   UNK N   1      30.045  24.644  -4.865  0.00  0.00     0.068 C 
HETATM    7  C   UNK N   1      28.704  22.927  -6.272  0.00  0.00    -0.001 A 
HETATM    8  C   UNK N   1      29.614  25.919  -4.126  0.00  0.00     0.174 C 
HETATM    9  C   UNK N   1      27.417  22.915  -6.749  0.00  0.00     0.049 A 
HETATM   10  C   UNK N   1      26.955  21.897  -7.586  0.00  0.00    -0.031 A 
HETATM   11  C   UNK N   1      29.615  21.918  -6.574  0.00  0.00     0.014 A 
HETATM   12  C   UNK N   1      27.860  20.860  -7.909  0.00  0.00     0.009 A 
HETATM   13  C   UNK N   1      29.177  20.867  -7.398  0.00  0.00     0.002 A 
HETATM   14  H   UNK N   1      25.803  24.248  -6.531  0.00  0.00     0.166 HD
ENDROOT
BRANCH   3  15
HETATM   15  C   UNK N   1      26.662  26.976  -6.041  0.00  0.00     0.040 C 
HETATM   16  C   UNK N   1      27.491  28.078  -6.698  0.00  0.00     0.008 C 
ENDBRANCH   3  15
BRANCH   3  17
HETATM   17  C   UNK N   1      26.737  26.126  -3.675  0.00  0.00     0.154 C 
BRANCH  17  18
HETATM   18  C   UNK N   1      26.464  27.525  -3.187  0.00  0.00     0.142 C 
HETATM   19  O   UNK N   1      25.315  27.914  -3.042  0.00  0.00    -0.650 OA
BRANCH  18  20
HETATM   20  O   UNK N   1      27.489  28.347  -2.897  0.00  0.00    -0.776 OA
HETATM   21  H   UNK N   1      27.346  29.112  -2.376  0.00  0.00     0.167 HD
ENDBRANCH  18  20
ENDBRANCH  17  18
ENDBRANCH   3  17
BRANCH  10  22
HETATM   22  C   UNK N   1      25.558  21.947  -8.144  0.00  0.00     0.036 C 
HETATM   23  C   UNK N   1      24.510  21.337  -7.223  0.00  0.00     0.010 C 
ENDBRANCH  10  22
TORSDOF 5
ENDMDL
MODEL 9
REMARK VINA RESULT:      -5.9     17.325     20.847
REMARK  5 active torsions:
REMARK  status: ('A' for Active; 'I' for Inactive)
REMARK    1  A    between atoms: O_2  and  C_17 
REMARK    2  A    between atoms: C_5  and  C_9 
REMARK    3  A    between atoms: C_5  and  C_10 
REMARK    4  A    between atoms: C_10  and  C_17 
REMARK    5  A    between atoms: C_14  and  C_18 
ROOT
HETATM    1  O   UNK N   1      35.174  15.357   8.896  0.00  0.00    -0.373 OA
HETATM    2  N   UNK N   1      34.424  12.962  11.555  0.00  0.00    -0.355 N 
HETATM    3  C   UNK N   1      34.264  14.383   9.409  0.00  0.00     0.112 C 
HETATM    4  C   UNK N   1      34.634  14.104  10.854  0.00  0.00     0.052 A 
HETATM    5  C   UNK N   1      35.401  14.990  11.577  0.00  0.00    -0.018 A 
HETATM    6  C   UNK N   1      35.843  16.311  11.046  0.00  0.00     0.068 C 
HETATM    7  C   UNK N   1      35.674  14.381  12.770  0.00  0.00    -0.001 A 
HETATM    8  C   UNK N   1      35.156  16.536   9.690  0.00  0.00     0.174 C 
HETATM    9  C   UNK N   1      35.078  13.145  12.729  0.00  0.00     0.049 A 
HETATM   10  C   UNK N   1      35.219  12.230  13.774  0.00  0.00    -0.031 A 
HETATM   11  C   UNK N   1      36.430  14.804  13.860  0.00  0.00     0.014 A 
HETATM   12  C   UNK N   1      35.983  12.633  14.894  0.00  0.00     0.009 A 
HETATM   13  C   UNK N   1      36.575  13.915  14.939  0.00  0.00     0.002 A 
HETATM   14  H   UNK N   1      33.910  12.172  11.274  0.00  0.00     0.166 HD
ENDROOT
BRANCH   3  15
HETATM   15  C   UNK N   1      34.471  13.100   8.583  0.00  0.00     0.040 C 
HETATM   16  C   UNK N   1      35.928  12.857   8.192  0.00  0.00     0.008 C 
ENDBRANCH   3  15
BRANCH   3  17
HETATM   17  C   UNK N   1      32.806  14.862   9.250  0.00  0.00     0.154 C 
BRANCH  17  18
HETATM   18  C   UNK N   1      32.431  15.053   7.803  0.00  0.00     0.142 C 
HETATM   19  O   UNK N   1      31.725  14.234   7.236  0.00  0.00    -0.650 OA
BRANCH  18  20
HETATM   20  O   UNK N   1      32.866  16.136   7.135  0.00  0.00    -0.776 OA
HETATM   21  H   UNK N   1      32.389  16.942   7.181  0.00  0.00     0.167 HD
ENDBRANCH  18  20
ENDBRANCH  17  18
ENDBRANCH   3  17
BRANCH  10  22
HETATM   22  C   UNK N   1      34.607  10.859  13.671  0.00  0.00     0.036 C 
HETATM   23  C   UNK N   1      34.220  10.259  15.015  0.00  0.00     0.010 C 
ENDBRANCH  10  22
TORSDOF 5
ENDMDL
