MODEL 1
REMARK VINA RESULT:      -5.7      0.000      0.000
REMARK  5 active torsions:
REMARK  status: ('A' for Active; 'I' for Inactive)
REMARK    1  A    between atoms: N_2  and  C_4 
REMARK    2  A    between atoms: N_2  and  C_5 
REMARK       I    between atoms: N_3  and  C_7 
REMARK    3  A    between atoms: N_3  and  C_9 
REMARK    4  A    between atoms: C_4  and  C_7 
REMARK    5  A    between atoms: C_5  and  C_6 
ROOT
HETATM    1  O   UNK N   1      35.045  13.796  13.241  0.00  0.00    -0.271 OA
HETATM    2  N   UNK N   1      36.950  13.574  14.417  0.00  0.00    -0.325 N 
HETATM    3  C   UNK N   1      36.255  13.606  13.249  0.00  0.00     0.244 C 
HETATM    4  H   UNK N   1      37.926  13.461  14.351  0.00  0.00     0.169 HD
ENDROOT
BRANCH   2   5
HETATM    5  C   UNK N   1      36.401  13.691  15.728  0.00  0.00     0.040 A 
HETATM    6  C   UNK N   1      36.664  14.846  16.487  0.00  0.00    -0.035 A 
HETATM    7  C   UNK N   1      36.117  14.987  17.766  0.00  0.00     0.009 A 
HETATM    8  C   UNK N   1      37.510  15.944  15.936  0.00  0.00     0.050 C 
HETATM    9  C   UNK N   1      35.316  13.977  18.304  0.00  0.00     0.001 A 
HETATM   10  C   UNK N   1      35.063  12.819  17.567  0.00  0.00     0.002 A 
HETATM   11  C   UNK N   1      35.600  12.677  16.285  0.00  0.00     0.030 A 
ENDBRANCH   2   5
BRANCH   3  12
HETATM   12  C   UNK N   1      36.960  13.409  11.939  0.00  0.00     0.165 C 
HETATM   13  C   UNK N   1      36.301  12.347  11.068  0.00  0.00     0.042 C 
BRANCH  12  14
HETATM   14  N   UNK N   1      37.007  14.680  11.229  0.00  0.00    -0.409 N 
HETATM   15  H   UNK N   1      37.393  15.552  11.592  0.00  0.00     0.154 HD
BRANCH  14  16
HETATM   16  C   UNK N   1      36.411  14.498   9.917  0.00  0.00     0.114 C 
BRANCH  16  17
HETATM   17  C   UNK N   1      35.379  15.581   9.669  0.00  0.00     0.015 C 
HETATM   18  C   UNK N   1      35.393  16.563  10.819  0.00  0.00     0.006 C 
ENDBRANCH  16  17
ENDBRANCH  14  16
ENDBRANCH  12  14
ENDBRANCH   3  12
TORSDOF 5
ENDMDL
MODEL 2
REMARK VINA RESULT:      -5.5      1.636      2.569
REMARK  5 active torsions:
REMARK  status: ('A' for Active; 'I' for Inactive)
REMARK    1  A    between atoms: N_2  and  C_4 
REMARK    2  A    between atoms: N_2  and  C_5 
REMARK       I    between atoms: N_3  and  C_7 
REMARK    3  A    between atoms: N_3  and  C_9 
REMARK    4  A    between atoms: C_4  and  C_7 
REMARK    5  A    between atoms: C_5  and  C_6 
ROOT
HETATM    1  O   UNK N   1      37.063  14.442  15.143  0.00  0.00    -0.271 OA
HETATM    2  N   UNK N   1      35.612  12.723  15.147  0.00  0.00    -0.325 N 
HETATM    3  C   UNK N   1      36.347  13.674  14.512  0.00  0.00     0.244 C 
HETATM    4  H   UNK N   1      35.091  12.110  14.579  0.00  0.00     0.169 HD
ENDROOT
BRANCH   2   5
HETATM    5  C   UNK N   1      35.523  12.528  16.557  0.00  0.00     0.040 A 
HETATM    6  C   UNK N   1      35.813  11.262  17.099  0.00  0.00    -0.035 A 
HETATM    7  C   UNK N   1      35.751  11.057  18.480  0.00  0.00     0.009 A 
HETATM    8  C   UNK N   1      36.208  10.127  16.215  0.00  0.00     0.050 C 
HETATM    9  C   UNK N   1      35.390  12.104  19.332  0.00  0.00     0.001 A 
HETATM   10  C   UNK N   1      35.084  13.360  18.804  0.00  0.00     0.002 A 
HETATM   11  C   UNK N   1      35.152  13.572  17.425  0.00  0.00     0.030 A 
ENDBRANCH   2   5
BRANCH   3  12
HETATM   12  C   UNK N   1      36.297  13.802  13.018  0.00  0.00     0.165 C 
HETATM   13  C   UNK N   1      35.065  13.143  12.410  0.00  0.00     0.042 C 
BRANCH  12  14
HETATM   14  N   UNK N   1      36.338  15.214  12.660  0.00  0.00    -0.409 N 
HETATM   15  H   UNK N   1      36.490  15.989  13.307  0.00  0.00     0.154 HD
BRANCH  14  16
HETATM   16  C   UNK N   1      36.124  15.333  11.228  0.00  0.00     0.114 C 
BRANCH  16  17
HETATM   17  C   UNK N   1      35.410  16.635  10.925  0.00  0.00     0.015 C 
HETATM   18  C   UNK N   1      34.814  16.573   9.536  0.00  0.00     0.006 C 
ENDBRANCH  16  17
ENDBRANCH  14  16
ENDBRANCH  12  14
ENDBRANCH   3  12
TORSDOF 5
ENDMDL
MODEL 3
REMARK VINA RESULT:      -5.4      1.766      2.824
REMARK  5 active torsions:
REMARK  status: ('A' for Active; 'I' for Inactive)
REMARK    1  A    between atoms: N_2  and  C_4 
REMARK    2  A    between atoms: N_2  and  C_5 
REMARK       I    between atoms: N_3  and  C_7 
REMARK    3  A    between atoms: N_3  and  C_9 
REMARK    4  A    between atoms: C_4  and  C_7 
REMARK    5  A    between atoms: C_5  and  C_6 
ROOT
HETATM    1  O   UNK N   1      34.630  14.045  12.398  0.00  0.00    -0.271 OA
HETATM    2  N   UNK N   1      36.626  14.228  13.419  0.00  0.00    -0.325 N 
HETATM    3  C   UNK N   1      35.741  14.559  12.442  0.00  0.00     0.244 C 
HETATM    4  H   UNK N   1      37.485  14.709  13.424  0.00  0.00     0.169 HD
ENDROOT
BRANCH   2   5
HETATM    5  C   UNK N   1      36.429  13.250  14.440  0.00  0.00     0.040 A 
HETATM    6  C   UNK N   1      36.921  11.946  14.250  0.00  0.00    -0.035 A 
HETATM    7  C   UNK N   1      36.756  10.980  15.247  0.00  0.00     0.009 A 
HETATM    8  C   UNK N   1      37.640  11.577  12.997  0.00  0.00     0.050 C 
HETATM    9  C   UNK N   1      36.091  11.300  16.434  0.00  0.00     0.001 A 
HETATM   10  C   UNK N   1      35.584  12.587  16.625  0.00  0.00     0.002 A 
HETATM   11  C   UNK N   1      35.754  13.558  15.636  0.00  0.00     0.030 A 
ENDBRANCH   2   5
BRANCH   3  12
HETATM   12  C   UNK N   1      36.109  15.568  11.394  0.00  0.00     0.165 C 
HETATM   13  C   UNK N   1      36.827  14.946  10.202  0.00  0.00     0.042 C 
BRANCH  12  14
HETATM   14  N   UNK N   1      34.902  16.253  10.950  0.00  0.00    -0.409 N 
HETATM   15  H   UNK N   1      34.149  16.586  11.553  0.00  0.00     0.154 HD
BRANCH  14  16
HETATM   16  C   UNK N   1      34.951  16.382   9.503  0.00  0.00     0.114 C 
BRANCH  16  17
HETATM   17  C   UNK N   1      33.794  17.238   9.028  0.00  0.00     0.015 C 
HETATM   18  C   UNK N   1      34.305  18.290   8.069  0.00  0.00     0.006 C 
ENDBRANCH  16  17
ENDBRANCH  14  16
ENDBRANCH  12  14
ENDBRANCH   3  12
TORSDOF 5
ENDMDL
MODEL 4
REMARK VINA RESULT:      -5.3      5.104      8.720
REMARK  5 active torsions:
REMARK  status: ('A' for Active; 'I' for Inactive)
REMARK    1  A    between atoms: N_2  and  C_4 
REMARK    2  A    between atoms: N_2  and  C_5 
REMARK       I    between atoms: N_3  and  C_7 
REMARK    3  A    between atoms: N_3  and  C_9 
REMARK    4  A    between atoms: C_4  and  C_7 
REMARK    5  A    between atoms: C_5  and  C_6 
ROOT
HETATM    1  O   UNK N   1      32.557  15.684   9.017  0.00  0.00    -0.271 OA
HETATM    2  N   UNK N   1      32.034  17.814   8.517  0.00  0.00    -0.325 N 
HETATM    3  C   UNK N   1      32.926  16.836   8.828  0.00  0.00     0.244 C 
HETATM    4  H   UNK N   1      32.400  18.709   8.335  0.00  0.00     0.169 HD
ENDROOT
BRANCH   2   5
HETATM    5  C   UNK N   1      30.618  17.666   8.429  0.00  0.00     0.040 A 
HETATM    6  C   UNK N   1      30.037  17.298   7.202  0.00  0.00    -0.035 A 
HETATM    7  C   UNK N   1      28.653  17.128   7.102  0.00  0.00     0.009 A 
HETATM    8  C   UNK N   1      30.884  17.065   5.996  0.00  0.00     0.050 C 
HETATM    9  C   UNK N   1      27.836  17.334   8.216  0.00  0.00     0.001 A 
HETATM   10  C   UNK N   1      28.400  17.716   9.435  0.00  0.00     0.002 A 
HETATM   11  C   UNK N   1      29.783  17.879   9.542  0.00  0.00     0.030 A 
ENDBRANCH   2   5
BRANCH   3  12
HETATM   12  C   UNK N   1      34.389  17.151   8.944  0.00  0.00     0.165 C 
HETATM   13  C   UNK N   1      34.759  18.482   8.301  0.00  0.00     0.042 C 
BRANCH  12  14
HETATM   14  N   UNK N   1      34.763  17.155  10.353  0.00  0.00    -0.409 N 
HETATM   15  H   UNK N   1      34.393  17.784  11.066  0.00  0.00     0.154 HD
BRANCH  14  16
HETATM   16  C   UNK N   1      35.751  16.113  10.570  0.00  0.00     0.114 C 
BRANCH  16  17
HETATM   17  C   UNK N   1      35.297  15.205  11.697  0.00  0.00     0.015 C 
HETATM   18  C   UNK N   1      34.844  13.880  11.126  0.00  0.00     0.006 C 
ENDBRANCH  16  17
ENDBRANCH  14  16
ENDBRANCH  12  14
ENDBRANCH   3  12
TORSDOF 5
ENDMDL
MODEL 5
REMARK VINA RESULT:      -5.3      1.642      2.459
REMARK  5 active torsions:
REMARK  status: ('A' for Active; 'I' for Inactive)
REMARK    1  A    between atoms: N_2  and  C_4 
REMARK    2  A    between atoms: N_2  and  C_5 
REMARK       I    between atoms: N_3  and  C_7 
REMARK    3  A    between atoms: N_3  and  C_9 
REMARK    4  A    between atoms: C_4  and  C_7 
REMARK    5  A    between atoms: C_5  and  C_6 
ROOT
HETATM    1  O   UNK N   1      34.949  13.873  13.284  0.00  0.00    -0.271 OA
HETATM    2  N   UNK N   1      36.794  13.288  14.430  0.00  0.00    -0.325 N 
HETATM    3  C   UNK N   1      36.093  13.436  13.274  0.00  0.00     0.244 C 
HETATM    4  H   UNK N   1      37.723  12.973  14.350  0.00  0.00     0.169 HD
ENDROOT
BRANCH   2   5
HETATM    5  C   UNK N   1      36.313  13.547  15.748  0.00  0.00     0.040 A 
HETATM    6  C   UNK N   1      36.639  14.763  16.375  0.00  0.00    -0.035 A 
HETATM    7  C   UNK N   1      36.159  15.043  17.658  0.00  0.00     0.009 A 
HETATM    8  C   UNK N   1      37.483  15.778  15.680  0.00  0.00     0.050 C 
HETATM    9  C   UNK N   1      35.362  14.113  18.330  0.00  0.00     0.001 A 
HETATM   10  C   UNK N   1      35.046  12.897  17.723  0.00  0.00     0.002 A 
HETATM   11  C   UNK N   1      35.516  12.615  16.438  0.00  0.00     0.030 A 
ENDBRANCH   2   5
BRANCH   3  12
HETATM   12  C   UNK N   1      36.711  13.065  11.958  0.00  0.00     0.165 C 
HETATM   13  C   UNK N   1      37.796  12.005  12.093  0.00  0.00     0.042 C 
BRANCH  12  14
HETATM   14  N   UNK N   1      35.664  12.599  11.057  0.00  0.00    -0.409 N 
HETATM   15  H   UNK N   1      35.064  13.191  10.483  0.00  0.00     0.154 HD
BRANCH  14  16
HETATM   16  C   UNK N   1      35.620  11.148  11.115  0.00  0.00     0.114 C 
BRANCH  16  17
HETATM   17  C   UNK N   1      34.199  10.691  11.382  0.00  0.00     0.015 C 
HETATM   18  C   UNK N   1      34.060  10.299  12.836  0.00  0.00     0.006 C 
ENDBRANCH  16  17
ENDBRANCH  14  16
ENDBRANCH  12  14
ENDBRANCH   3  12
TORSDOF 5
ENDMDL
MODEL 6
REMARK VINA RESULT:      -5.2      2.460      3.666
REMARK  5 active torsions:
REMARK  status: ('A' for Active; 'I' for Inactive)
REMARK    1  A    between atoms: N_2  and  C_4 
REMARK    2  A    between atoms: N_2  and  C_5 
REMARK       I    between atoms: N_3  and  C_7 
REMARK    3  A    between atoms: N_3  and  C_9 
REMARK    4  A    between atoms: C_4  and  C_7 
REMARK    5  A    between atoms: C_5  and  C_6 
ROOT
HETATM    1  O   UNK N   1      37.153  12.356  15.143  0.00  0.00    -0.271 OA
HETATM    2  N   UNK N   1      35.024  12.625  15.820  0.00  0.00    -0.325 N 
HETATM    3  C   UNK N   1      36.018  12.749  14.901  0.00  0.00     0.244 C 
HETATM    4  H   UNK N   1      34.126  12.921  15.547  0.00  0.00     0.169 HD
ENDROOT
BRANCH   2   5
HETATM    5  C   UNK N   1      35.159  12.108  17.143  0.00  0.00     0.040 A 
HETATM    6  C   UNK N   1      35.271  13.000  18.225  0.00  0.00    -0.035 A 
HETATM    7  C   UNK N   1      35.383  12.512  19.530  0.00  0.00     0.009 A 
HETATM    8  C   UNK N   1      35.255  14.475  18.003  0.00  0.00     0.050 C 
HETATM    9  C   UNK N   1      35.395  11.135  19.768  0.00  0.00     0.001 A 
HETATM   10  C   UNK N   1      35.300  10.241  18.701  0.00  0.00     0.002 A 
HETATM   11  C   UNK N   1      35.180  10.723  17.395  0.00  0.00     0.030 A 
ENDBRANCH   2   5
BRANCH   3  12
HETATM   12  C   UNK N   1      35.743  13.370  13.563  0.00  0.00     0.165 C 
HETATM   13  C   UNK N   1      36.904  13.212  12.589  0.00  0.00     0.042 C 
BRANCH  12  14
HETATM   14  N   UNK N   1      34.535  12.776  13.003  0.00  0.00    -0.409 N 
HETATM   15  H   UNK N   1      33.596  13.172  13.056  0.00  0.00     0.154 HD
BRANCH  14  16
HETATM   16  C   UNK N   1      34.894  11.525  12.357  0.00  0.00     0.114 C 
BRANCH  16  17
HETATM   17  C   UNK N   1      34.060  10.396  12.931  0.00  0.00     0.015 C 
HETATM   18  C   UNK N   1      34.941   9.491  13.763  0.00  0.00     0.006 C 
ENDBRANCH  16  17
ENDBRANCH  14  16
ENDBRANCH  12  14
ENDBRANCH   3  12
TORSDOF 5
ENDMDL
MODEL 7
REMARK VINA RESULT:      -5.2     22.757     24.597
REMARK  5 active torsions:
REMARK  status: ('A' for Active; 'I' for Inactive)
REMARK    1  A    between atoms: N_2  and  C_4 
REMARK    2  A    between atoms: N_2  and  C_5 
REMARK       I    between atoms: N_3  and  C_7 
REMARK    3  A    between atoms: N_3  and  C_9 
REMARK    4  A    between atoms: C_4  and  C_7 
REMARK    5  A    between atoms: C_5  and  C_6 
ROOT
HETATM    1  O   UNK N   1      27.435  24.264  -7.143  0.00  0.00    -0.271 OA
HETATM    2  N   UNK N   1      25.615  24.018  -5.845  0.00  0.00    -0.325 N 
HETATM    3  C   UNK N   1      26.485  23.576  -6.791  0.00  0.00     0.244 C 
HETATM    4  H   UNK N   1      24.898  23.400  -5.575  0.00  0.00     0.169 HD
ENDROOT
BRANCH   2   5
HETATM    5  C   UNK N   1      25.641  25.293  -5.205  0.00  0.00     0.040 A 
HETATM    6  C   UNK N   1      26.325  25.439  -3.984  0.00  0.00    -0.035 A 
HETATM    7  C   UNK N   1      26.379  26.686  -3.353  0.00  0.00     0.009 A 
HETATM    8  C   UNK N   1      27.017  24.278  -3.354  0.00  0.00     0.050 C 
HETATM    9  C   UNK N   1      25.744  27.792  -3.924  0.00  0.00     0.001 A 
HETATM   10  C   UNK N   1      25.049  27.654  -5.127  0.00  0.00     0.002 A 
HETATM   11  C   UNK N   1      24.999  26.413  -5.766  0.00  0.00     0.030 A 
ENDBRANCH   2   5
BRANCH   3  12
HETATM   12  C   UNK N   1      26.299  22.228  -7.423  0.00  0.00     0.165 C 
HETATM   13  C   UNK N   1      24.965  22.095  -8.148  0.00  0.00     0.042 C 
BRANCH  12  14
HETATM   14  N   UNK N   1      27.397  21.982  -8.349  0.00  0.00    -0.409 N 
HETATM   15  H   UNK N   1      27.890  22.693  -8.891  0.00  0.00     0.154 HD
BRANCH  14  16
HETATM   16  C   UNK N   1      27.673  20.556  -8.369  0.00  0.00     0.114 C 
BRANCH  16  17
HETATM   17  C   UNK N   1      29.135  20.314  -8.051  0.00  0.00     0.015 C 
HETATM   18  C   UNK N   1      29.351  18.847  -7.751  0.00  0.00     0.006 C 
ENDBRANCH  16  17
ENDBRANCH  14  16
ENDBRANCH  12  14
ENDBRANCH   3  12
TORSDOF 5
ENDMDL
MODEL 8
REMARK VINA RESULT:      -5.2      5.265      8.962
REMARK  5 active torsions:
REMARK  status: ('A' for Active; 'I' for Inactive)
REMARK    1  A    between atoms: N_2  and  C_4 
REMARK    2  A    between atoms: N_2  and  C_5 
REMARK       I    between atoms: N_3  and  C_7 
REMARK    3  A    between atoms: N_3  and  C_9 
REMARK    4  A    between atoms: C_4  and  C_7 
REMARK    5  A    between atoms: C_5  and  C_6 
ROOT
HETATM    1  O   UNK N   1      32.365  15.574   8.873  0.00  0.00    -0.271 OA
HETATM    2  N   UNK N   1      31.939  17.535   7.857  0.00  0.00    -0.325 N 
HETATM    3  C   UNK N   1      32.763  16.674   8.511  0.00  0.00     0.244 C 
HETATM    4  H   UNK N   1      32.332  18.385   7.554  0.00  0.00     0.169 HD
ENDROOT
BRANCH   2   5
HETATM    5  C   UNK N   1      30.557  17.325   7.569  0.00  0.00     0.040 A 
HETATM    6  C   UNK N   1      29.582  17.897   8.405  0.00  0.00    -0.035 A 
HETATM    7  C   UNK N   1      28.224  17.719   8.126  0.00  0.00     0.009 A 
HETATM    8  C   UNK N   1      29.977  18.715   9.588  0.00  0.00     0.050 C 
HETATM    9  C   UNK N   1      27.825  16.962   7.021  0.00  0.00     0.001 A 
HETATM   10  C   UNK N   1      28.784  16.376   6.194  0.00  0.00     0.002 A 
HETATM   11  C   UNK N   1      30.143  16.558   6.463  0.00  0.00     0.030 A 
ENDBRANCH   2   5
BRANCH   3  12
HETATM   12  C   UNK N   1      34.185  17.055   8.799  0.00  0.00     0.165 C 
HETATM   13  C   UNK N   1      34.576  18.391   8.178  0.00  0.00     0.042 C 
BRANCH  12  14
HETATM   14  N   UNK N   1      34.382  17.098  10.242  0.00  0.00    -0.409 N 
HETATM   15  H   UNK N   1      33.832  17.649  10.903  0.00  0.00     0.154 HD
BRANCH  14  16
HETATM   16  C   UNK N   1      35.492  16.226  10.583  0.00  0.00     0.114 C 
BRANCH  16  17
HETATM   17  C   UNK N   1      34.982  15.032  11.366  0.00  0.00     0.015 C 
HETATM   18  C   UNK N   1      35.960  14.698  12.471  0.00  0.00     0.006 C 
ENDBRANCH  16  17
ENDBRANCH  14  16
ENDBRANCH  12  14
ENDBRANCH   3  12
TORSDOF 5
ENDMDL
MODEL 9
REMARK VINA RESULT:      -5.1     19.207     22.811
REMARK  5 active torsions:
REMARK  status: ('A' for Active; 'I' for Inactive)
REMARK    1  A    between atoms: N_2  and  C_4 
REMARK    2  A    between atoms: N_2  and  C_5 
REMARK       I    between atoms: N_3  and  C_7 
REMARK    3  A    between atoms: N_3  and  C_9 
REMARK    4  A    between atoms: C_4  and  C_7 
REMARK    5  A    between atoms: C_5  and  C_6 
ROOT
HETATM    1  O   UNK N   1      29.497  25.406  -4.467  0.00  0.00    -0.271 OA
HETATM    2  N   UNK N   1      27.597  24.688  -3.500  0.00  0.00    -0.325 N 
HETATM    3  C   UNK N   1      28.934  24.603  -3.734  0.00  0.00     0.244 C 
HETATM    4  H   UNK N   1      27.214  24.039  -2.867  0.00  0.00     0.169 HD
ENDROOT
BRANCH   2   5
HETATM    5  C   UNK N   1      26.697  25.628  -4.084  0.00  0.00     0.040 A 
HETATM    6  C   UNK N   1      25.969  25.266  -5.232  0.00  0.00    -0.035 A 
HETATM    7  C   UNK N   1      25.067  26.166  -5.806  0.00  0.00     0.009 A 
HETATM    8  C   UNK N   1      26.132  23.915  -5.844  0.00  0.00     0.050 C 
HETATM    9  C   UNK N   1      24.890  27.436  -5.251  0.00  0.00     0.001 A 
HETATM   10  C   UNK N   1      25.619  27.812  -4.122  0.00  0.00     0.002 A 
HETATM   11  C   UNK N   1      26.515  26.913  -3.539  0.00  0.00     0.030 A 
ENDBRANCH   2   5
BRANCH   3  12
HETATM   12  C   UNK N   1      29.750  23.520  -3.092  0.00  0.00     0.165 C 
HETATM   13  C   UNK N   1      29.099  22.956  -1.835  0.00  0.00     0.042 C 
BRANCH  12  14
HETATM   14  N   UNK N   1      29.970  22.454  -4.062  0.00  0.00    -0.409 N 
HETATM   15  H   UNK N   1      29.579  22.415  -5.004  0.00  0.00     0.154 HD
BRANCH  14  16
HETATM   16  C   UNK N   1      30.841  21.458  -3.462  0.00  0.00     0.114 C 
BRANCH  16  17
HETATM   17  C   UNK N   1      32.290  21.833  -3.705  0.00  0.00     0.015 C 
HETATM   18  C   UNK N   1      33.178  21.054  -2.761  0.00  0.00     0.006 C 
ENDBRANCH  16  17
ENDBRANCH  14  16
ENDBRANCH  12  14
ENDBRANCH   3  12
TORSDOF 5
ENDMDL
