MODEL 1
REMARK VINA RESULT:      -7.2      0.000      0.000
REMARK  0 active torsions:
REMARK  status: ('A' for Active; 'I' for Inactive)
REMARK       I    between atoms: N_4  and  C_12 
ROOT
HETATM    1  N   UNK N   1      35.733  13.007  13.705  0.00  0.00    -0.173 N 
HETATM    2  N   UNK N   1      36.861  14.868  14.307  0.00  0.00    -0.224 N 
ATOM      3  HN  UNK N   1      37.346  15.762  14.214  1.00  0.00     0.177 HD
HETATM    4  N   UNK N   1      36.437  14.720  12.006  0.00  0.00    -0.235 N 
HETATM    5  C   UNK N   1      35.894  12.914  15.133  0.00  0.00     0.160 A 
HETATM    6  C   UNK N   1      35.463  11.877  16.126  0.00  0.00    -0.026 A 
HETATM    7  C   UNK N   1      36.664  14.181  15.561  0.00  0.00     0.169 A 
HETATM    8  C   UNK N   1      35.092  12.103  12.781  0.00  0.00     0.059 A 
HETATM    9  C   UNK N   1      34.760  10.697  15.821  0.00  0.00    -0.045 A 
HETATM   10  C   UNK N   1      34.315  10.255  14.483  0.00  0.00     0.080 A 
HETATM   11  C   UNK N   1      34.461  10.875  13.142  0.00  0.00    -0.026 A 
HETATM   12  C   UNK N   1      36.357  14.225  13.330  0.00  0.00     0.675 A 
HETATM   13  C   UNK N   1      35.801  12.125  17.469  0.00  0.00     0.010 A 
HETATM   14  C   UNK N   1      34.420   9.812  16.852  0.00  0.00     0.008 A 
HETATM   15  C   UNK N   1      35.084  12.452  11.415  0.00  0.00     0.031 A 
HETATM   16  C   UNK N   1      33.873  10.088  12.142  0.00  0.00     0.010 A 
HETATM   17  C   UNK N   1      35.456  11.235  18.485  0.00  0.00     0.001 A 
HETATM   18  C   UNK N   1      34.762  10.073  18.175  0.00  0.00     0.001 A 
HETATM   19  C   UNK N   1      34.493  11.653  10.441  0.00  0.00     0.002 A 
HETATM   20  C   UNK N   1      33.885  10.466  10.806  0.00  0.00     0.001 A 
HETATM   21  H   UNK N   1      36.887  15.576  11.828  0.00  0.00     0.174 HD
HETATM   22  H   UNK N   1      36.041  14.208  11.265  0.00  0.00     0.174 HD
ENDROOT
TORSDOF 0
ENDMDL
MODEL 2
REMARK VINA RESULT:      -6.9     16.257     18.521
REMARK  0 active torsions:
REMARK  status: ('A' for Active; 'I' for Inactive)
REMARK       I    between atoms: N_4  and  C_12 
ROOT
HETATM    1  N   UNK N   1      20.930  18.623   3.260  0.00  0.00    -0.173 N 
HETATM    2  N   UNK N   1      20.214  20.169   1.777  0.00  0.00    -0.224 N 
ATOM      3  HN  UNK N   1      19.582  20.669   1.151  1.00  0.00     0.177 HD
HETATM    4  N   UNK N   1      18.569  18.619   2.399  0.00  0.00    -0.235 N 
HETATM    5  C   UNK N   1      22.067  19.470   3.008  0.00  0.00     0.160 A 
HETATM    6  C   UNK N   1      23.470  19.451   3.537  0.00  0.00    -0.026 A 
HETATM    7  C   UNK N   1      21.593  20.534   1.995  0.00  0.00     0.169 A 
HETATM    8  C   UNK N   1      20.800  17.473   4.120  0.00  0.00     0.059 A 
HETATM    9  C   UNK N   1      23.981  18.520   4.459  0.00  0.00    -0.045 A 
HETATM   10  C   UNK N   1      23.248  17.396   5.078  0.00  0.00     0.080 A 
HETATM   11  C   UNK N   1      21.845  16.934   4.929  0.00  0.00    -0.026 A 
HETATM   12  C   UNK N   1      19.880  19.148   2.462  0.00  0.00     0.675 A 
HETATM   13  C   UNK N   1      24.328  20.457   3.057  0.00  0.00     0.010 A 
HETATM   14  C   UNK N   1      25.317  18.620   4.870  0.00  0.00     0.008 A 
HETATM   15  C   UNK N   1      19.548  16.826   4.173  0.00  0.00     0.031 A 
HETATM   16  C   UNK N   1      21.584  15.808   5.722  0.00  0.00     0.010 A 
HETATM   17  C   UNK N   1      25.655  20.544   3.474  0.00  0.00     0.001 A 
HETATM   18  C   UNK N   1      26.152  19.621   4.385  0.00  0.00     0.001 A 
HETATM   19  C   UNK N   1      19.315  15.709   4.969  0.00  0.00     0.002 A 
HETATM   20  C   UNK N   1      20.338  15.198   5.747  0.00  0.00     0.001 A 
HETATM   21  H   UNK N   1      17.896  19.041   1.819  0.00  0.00     0.174 HD
HETATM   22  H   UNK N   1      18.331  17.829   2.935  0.00  0.00     0.174 HD
ENDROOT
TORSDOF 0
ENDMDL
MODEL 3
REMARK VINA RESULT:      -6.9     21.929     24.807
REMARK  0 active torsions:
REMARK  status: ('A' for Active; 'I' for Inactive)
REMARK       I    between atoms: N_4  and  C_12 
ROOT
HETATM    1  N   UNK N   1      26.916  24.074  -6.424  0.00  0.00    -0.173 N 
HETATM    2  N   UNK N   1      26.860  22.515  -8.057  0.00  0.00    -0.224 N 
ATOM      3  HN  UNK N   1      26.550  22.023  -8.895  1.00  0.00     0.177 HD
HETATM    4  N   UNK N   1      25.192  24.150  -8.250  0.00  0.00    -0.235 N 
HETATM    5  C   UNK N   1      28.002  23.174  -6.133  0.00  0.00     0.160 A 
HETATM    6  C   UNK N   1      29.020  23.151  -5.033  0.00  0.00    -0.026 A 
HETATM    7  C   UNK N   1      27.977  22.100  -7.242  0.00  0.00     0.169 A 
HETATM    8  C   UNK N   1      26.475  25.254  -5.722  0.00  0.00     0.059 A 
HETATM    9  C   UNK N   1      29.112  24.087  -3.987  0.00  0.00    -0.045 A 
HETATM   10  C   UNK N   1      28.238  25.259  -3.771  0.00  0.00     0.080 A 
HETATM   11  C   UNK N   1      27.075  25.774  -4.536  0.00  0.00    -0.026 A 
HETATM   12  C   UNK N   1      26.309  23.570  -7.602  0.00  0.00     0.675 A 
HETATM   13  C   UNK N   1      29.951  22.096  -5.070  0.00  0.00     0.010 A 
HETATM   14  C   UNK N   1      30.118  23.944  -3.022  0.00  0.00     0.008 A 
HETATM   15  C   UNK N   1      25.365  25.954  -6.240  0.00  0.00     0.031 A 
HETATM   16  C   UNK N   1      26.544  26.933  -3.952  0.00  0.00     0.010 A 
HETATM   17  C   UNK N   1      30.946  21.967  -4.102  0.00  0.00     0.001 A 
HETATM   18  C   UNK N   1      31.029  22.896  -3.073  0.00  0.00     0.001 A 
HETATM   19  C   UNK N   1      24.858  27.103  -5.642  0.00  0.00     0.002 A 
HETATM   20  C   UNK N   1      25.451  27.595  -4.492  0.00  0.00     0.001 A 
HETATM   21  H   UNK N   1      24.828  23.739  -9.066  0.00  0.00     0.174 HD
HETATM   22  H   UNK N   1      24.780  24.965  -7.883  0.00  0.00     0.174 HD
ENDROOT
TORSDOF 0
ENDMDL
MODEL 4
REMARK VINA RESULT:      -6.9      9.256     12.044
REMARK  0 active torsions:
REMARK  status: ('A' for Active; 'I' for Inactive)
REMARK       I    between atoms: N_4  and  C_12 
ROOT
HETATM    1  N   UNK N   1      30.085  17.303   7.683  0.00  0.00    -0.173 N 
HETATM    2  N   UNK N   1      29.845  17.773   9.879  0.00  0.00    -0.224 N 
ATOM      3  HN  UNK N   1      29.991  17.717  10.888  1.00  0.00     0.177 HD
HETATM    4  N   UNK N   1      31.400  16.075   9.437  0.00  0.00    -0.235 N 
HETATM    5  C   UNK N   1      29.103  18.354   7.746  0.00  0.00     0.160 A 
HETATM    6  C   UNK N   1      28.331  19.072   6.681  0.00  0.00    -0.026 A 
HETATM    7  C   UNK N   1      28.927  18.688   9.243  0.00  0.00     0.169 A 
HETATM    8  C   UNK N   1      30.632  16.609   6.543  0.00  0.00     0.059 A 
HETATM    9  C   UNK N   1      28.430  18.830   5.298  0.00  0.00    -0.045 A 
HETATM   10  C   UNK N   1      29.301  17.838   4.636  0.00  0.00     0.080 A 
HETATM   11  C   UNK N   1      30.272  16.858   5.184  0.00  0.00    -0.026 A 
HETATM   12  C   UNK N   1      30.452  17.043   9.029  0.00  0.00     0.675 A 
HETATM   13  C   UNK N   1      27.438  20.065   7.123  0.00  0.00     0.010 A 
HETATM   14  C   UNK N   1      27.646  19.578   4.410  0.00  0.00     0.008 A 
HETATM   15  C   UNK N   1      31.595  15.607   6.779  0.00  0.00     0.031 A 
HETATM   16  C   UNK N   1      30.882  16.109   4.168  0.00  0.00     0.010 A 
HETATM   17  C   UNK N   1      26.664  20.802   6.228  0.00  0.00     0.001 A 
HETATM   18  C   UNK N   1      26.768  20.556   4.865  0.00  0.00     0.001 A 
HETATM   19  C   UNK N   1      32.185  14.878   5.752  0.00  0.00     0.002 A 
HETATM   20  C   UNK N   1      31.827  15.130   4.440  0.00  0.00     0.001 A 
HETATM   21  H   UNK N   1      31.600  15.955  10.393  0.00  0.00     0.174 HD
HETATM   22  H   UNK N   1      31.858  15.521   8.765  0.00  0.00     0.174 HD
ENDROOT
TORSDOF 0
ENDMDL
MODEL 5
REMARK VINA RESULT:      -6.8      9.689     11.487
REMARK  0 active torsions:
REMARK  status: ('A' for Active; 'I' for Inactive)
REMARK       I    between atoms: N_4  and  C_12 
ROOT
HETATM    1  N   UNK N   1      28.778  16.771   6.461  0.00  0.00    -0.173 N 
HETATM    2  N   UNK N   1      27.694  17.181   8.399  0.00  0.00    -0.224 N 
ATOM      3  HN  UNK N   1      26.921  17.261   9.061  1.00  0.00     0.177 HD
HETATM    4  N   UNK N   1      26.293  16.459   6.664  0.00  0.00    -0.235 N 
HETATM    5  C   UNK N   1      29.795  17.197   7.388  0.00  0.00     0.160 A 
HETATM    6  C   UNK N   1      31.276  17.375   7.242  0.00  0.00    -0.026 A 
HETATM    7  C   UNK N   1      29.068  17.481   8.720  0.00  0.00     0.169 A 
HETATM    8  C   UNK N   1      28.888  16.379   5.078  0.00  0.00     0.059 A 
HETATM    9  C   UNK N   1      32.014  17.138   6.068  0.00  0.00    -0.045 A 
HETATM   10  C   UNK N   1      31.483  16.676   4.769  0.00  0.00     0.080 A 
HETATM   11  C   UNK N   1      30.104  16.340   4.332  0.00  0.00    -0.026 A 
HETATM   12  C   UNK N   1      27.561  16.804   7.190  0.00  0.00     0.675 A 
HETATM   13  C   UNK N   1      31.965  17.816   8.387  0.00  0.00     0.010 A 
HETATM   14  C   UNK N   1      33.399  17.347   6.071  0.00  0.00     0.008 A 
HETATM   15  C   UNK N   1      27.708  16.003   4.402  0.00  0.00     0.031 A 
HETATM   16  C   UNK N   1      30.070  15.939   2.989  0.00  0.00     0.010 A 
HETATM   17  C   UNK N   1      33.344  18.019   8.375  0.00  0.00     0.001 A 
HETATM   18  C   UNK N   1      34.064  17.783   7.212  0.00  0.00     0.001 A 
HETATM   19  C   UNK N   1      27.702  15.608   3.069  0.00  0.00     0.002 A 
HETATM   20  C   UNK N   1      28.888  15.576   2.359  0.00  0.00     0.001 A 
HETATM   21  H   UNK N   1      25.494  16.508   7.235  0.00  0.00     0.174 HD
HETATM   22  H   UNK N   1      26.212  16.170   5.726  0.00  0.00     0.174 HD
ENDROOT
TORSDOF 0
ENDMDL
MODEL 6
REMARK VINA RESULT:      -6.8      9.371     11.945
REMARK  0 active torsions:
REMARK  status: ('A' for Active; 'I' for Inactive)
REMARK       I    between atoms: N_4  and  C_12 
ROOT
HETATM    1  N   UNK N   1      29.859  17.265   7.497  0.00  0.00    -0.173 N 
HETATM    2  N   UNK N   1      27.920  17.323   8.655  0.00  0.00    -0.224 N 
ATOM      3  HN  UNK N   1      27.282  17.459   9.439  1.00  0.00     0.177 HD
HETATM    4  N   UNK N   1      29.795  17.955   9.912  0.00  0.00    -0.235 N 
HETATM    5  C   UNK N   1      28.841  16.850   6.565  0.00  0.00     0.160 A 
HETATM    6  C   UNK N   1      28.906  16.443   5.124  0.00  0.00    -0.026 A 
HETATM    7  C   UNK N   1      27.508  16.885   7.343  0.00  0.00     0.169 A 
HETATM    8  C   UNK N   1      31.281  17.415   7.314  0.00  0.00     0.059 A 
HETATM    9  C   UNK N   1      30.076  16.384   4.345  0.00  0.00    -0.045 A 
HETATM   10  C   UNK N   1      31.448  16.708   4.786  0.00  0.00     0.080 A 
HETATM   11  C   UNK N   1      31.980  17.162   6.095  0.00  0.00    -0.026 A 
HETATM   12  C   UNK N   1      29.178  17.520   8.715  0.00  0.00     0.675 A 
HETATM   13  C   UNK N   1      27.683  16.094   4.522  0.00  0.00     0.010 A 
HETATM   14  C   UNK N   1      29.991  15.985   3.005  0.00  0.00     0.008 A 
HETATM   15  C   UNK N   1      32.048  17.843   8.417  0.00  0.00     0.031 A 
HETATM   16  C   UNK N   1      33.370  17.348   6.053  0.00  0.00     0.010 A 
HETATM   17  C   UNK N   1      27.614  15.698   3.187  0.00  0.00     0.001 A 
HETATM   18  C   UNK N   1      28.774  15.643   2.425  0.00  0.00     0.001 A 
HETATM   19  C   UNK N   1      33.426  18.020   8.349  0.00  0.00     0.002 A 
HETATM   20  C   UNK N   1      34.090  17.771   7.161  0.00  0.00     0.001 A 
HETATM   21  H   UNK N   1      29.252  18.110  10.717  0.00  0.00     0.174 HD
HETATM   22  H   UNK N   1      30.768  18.101   9.939  0.00  0.00     0.174 HD
ENDROOT
TORSDOF 0
ENDMDL
MODEL 7
REMARK VINA RESULT:      -6.7     21.580     24.790
REMARK  0 active torsions:
REMARK  status: ('A' for Active; 'I' for Inactive)
REMARK       I    between atoms: N_4  and  C_12 
ROOT
HETATM    1  N   UNK N   1      27.992  23.068  -6.290  0.00  0.00    -0.173 N 
HETATM    2  N   UNK N   1      27.157  22.527  -8.318  0.00  0.00    -0.224 N 
ATOM      3  HN  UNK N   1      27.032  22.016  -9.192  1.00  0.00     0.177 HD
HETATM    4  N   UNK N   1      28.847  21.084  -7.572  0.00  0.00    -0.235 N 
HETATM    5  C   UNK N   1      26.982  24.058  -6.567  0.00  0.00     0.160 A 
HETATM    6  C   UNK N   1      26.490  25.236  -5.782  0.00  0.00    -0.026 A 
HETATM    7  C   UNK N   1      26.401  23.701  -7.952  0.00  0.00     0.169 A 
HETATM    8  C   UNK N   1      28.852  22.914  -5.143  0.00  0.00     0.059 A 
HETATM    9  C   UNK N   1      26.964  25.629  -4.517  0.00  0.00    -0.045 A 
HETATM   10  C   UNK N   1      28.023  24.969  -3.726  0.00  0.00     0.080 A 
HETATM   11  C   UNK N   1      28.856  23.771  -4.002  0.00  0.00    -0.026 A 
HETATM   12  C   UNK N   1      28.000  22.207  -7.417  0.00  0.00     0.675 A 
HETATM   13  C   UNK N   1      25.469  25.997  -6.380  0.00  0.00     0.010 A 
HETATM   14  C   UNK N   1      26.411  26.756  -3.894  0.00  0.00     0.008 A 
HETATM   15  C   UNK N   1      29.761  21.836  -5.139  0.00  0.00     0.031 A 
HETATM   16  C   UNK N   1      29.746  23.507  -2.951  0.00  0.00     0.010 A 
HETATM   17  C   UNK N   1      24.928  27.116  -5.748  0.00  0.00     0.001 A 
HETATM   18  C   UNK N   1      25.402  27.497  -4.499  0.00  0.00     0.001 A 
HETATM   19  C   UNK N   1      30.635  21.596  -4.083  0.00  0.00     0.002 A 
HETATM   20  C   UNK N   1      30.627  22.436  -2.984  0.00  0.00     0.001 A 
HETATM   21  H   UNK N   1      28.791  20.535  -8.387  0.00  0.00     0.174 HD
HETATM   22  H   UNK N   1      29.491  20.853  -6.865  0.00  0.00     0.174 HD
ENDROOT
TORSDOF 0
ENDMDL
MODEL 8
REMARK VINA RESULT:      -6.7      1.924      2.710
REMARK  0 active torsions:
REMARK  status: ('A' for Active; 'I' for Inactive)
REMARK       I    between atoms: N_4  and  C_12 
ROOT
HETATM    1  N   UNK N   1      36.421  11.833  13.827  0.00  0.00    -0.173 N 
HETATM    2  N   UNK N   1      36.836  13.796  12.790  0.00  0.00    -0.224 N 
ATOM      3  HN  UNK N   1      37.082  14.447  12.043  1.00  0.00     0.177 HD
HETATM    4  N   UNK N   1      37.079  11.922  11.403  0.00  0.00    -0.235 N 
HETATM    5  C   UNK N   1      36.221  12.847  14.830  0.00  0.00     0.160 A 
HETATM    6  C   UNK N   1      35.827  12.767  16.274  0.00  0.00    -0.026 A 
HETATM    7  C   UNK N   1      36.502  14.197  14.136  0.00  0.00     0.169 A 
HETATM    8  C   UNK N   1      36.297  10.399  13.917  0.00  0.00     0.059 A 
HETATM    9  C   UNK N   1      35.555  11.581  16.980  0.00  0.00    -0.045 A 
HETATM   10  C   UNK N   1      35.603  10.204  16.447  0.00  0.00     0.080 A 
HETATM   11  C   UNK N   1      35.930   9.682  15.096  0.00  0.00    -0.026 A 
HETATM   12  C   UNK N   1      36.787  12.531  12.647  0.00  0.00     0.675 A 
HETATM   13  C   UNK N   1      35.728  13.991  16.959  0.00  0.00     0.010 A 
HETATM   14  C   UNK N   1      35.196  11.652  18.332  0.00  0.00     0.008 A 
HETATM   15  C   UNK N   1      36.556   9.639  12.758  0.00  0.00     0.031 A 
HETATM   16  C   UNK N   1      35.846   8.283  15.047  0.00  0.00     0.010 A 
HETATM   17  C   UNK N   1      35.370  14.047  18.305  0.00  0.00     0.001 A 
HETATM   18  C   UNK N   1      35.103  12.872  18.995  0.00  0.00     0.001 A 
HETATM   19  C   UNK N   1      36.466   8.251  12.736  0.00  0.00     0.002 A 
HETATM   20  C   UNK N   1      36.109   7.570  13.886  0.00  0.00     0.001 A 
HETATM   21  H   UNK N   1      37.326  12.477  10.630  0.00  0.00     0.174 HD
HETATM   22  H   UNK N   1      37.035  10.943  11.313  0.00  0.00     0.174 HD
ENDROOT
TORSDOF 0
ENDMDL
MODEL 9
REMARK VINA RESULT:      -6.7      2.048      4.527
REMARK  0 active torsions:
REMARK  status: ('A' for Active; 'I' for Inactive)
REMARK       I    between atoms: N_4  and  C_12 
ROOT
HETATM    1  N   UNK N   1      36.368  12.256  14.723  0.00  0.00    -0.173 N 
HETATM    2  N   UNK N   1      37.047  12.859  12.655  0.00  0.00    -0.224 N 
ATOM      3  HN  UNK N   1      37.324  13.463  11.881  1.00  0.00     0.177 HD
HETATM    4  N   UNK N   1      36.704  14.669  14.105  0.00  0.00    -0.235 N 
HETATM    5  C   UNK N   1      36.521  11.023  13.994  0.00  0.00     0.160 A 
HETATM    6  C   UNK N   1      36.313   9.592  14.388  0.00  0.00    -0.026 A 
HETATM    7  C   UNK N   1      36.986  11.419  12.576  0.00  0.00     0.169 A 
HETATM    8  C   UNK N   1      35.958  12.485  16.087  0.00  0.00     0.059 A 
HETATM    9  C   UNK N   1      35.893   9.147  15.655  0.00  0.00    -0.045 A 
HETATM   10  C   UNK N   1      35.579   9.990  16.827  0.00  0.00     0.080 A 
HETATM   11  C   UNK N   1      35.608  11.462  17.018  0.00  0.00    -0.026 A 
HETATM   12  C   UNK N   1      36.714  13.285  13.809  0.00  0.00     0.675 A 
HETATM   13  C   UNK N   1      36.566   8.631  13.392  0.00  0.00     0.010 A 
HETATM   14  C   UNK N   1      35.739   7.774  15.886  0.00  0.00     0.008 A 
HETATM   15  C   UNK N   1      35.896  13.818  16.544  0.00  0.00     0.031 A 
HETATM   16  C   UNK N   1      35.225  11.822  18.318  0.00  0.00     0.010 A 
HETATM   17  C   UNK N   1      36.408   7.268  13.637  0.00  0.00     0.001 A 
HETATM   18  C   UNK N   1      35.993   6.838  14.890  0.00  0.00     0.001 A 
HETATM   19  C   UNK N   1      35.513  14.149  17.839  0.00  0.00     0.002 A 
HETATM   20  C   UNK N   1      35.176  13.146  18.731  0.00  0.00     0.001 A 
HETATM   21  H   UNK N   1      36.958  15.321  13.414  0.00  0.00     0.174 HD
HETATM   22  H   UNK N   1      36.444  14.978  15.003  0.00  0.00     0.174 HD
ENDROOT
TORSDOF 0
ENDMDL
