MODEL 1
REMARK VINA RESULT:      -3.8      0.000      0.000
REMARK  3 active torsions:
REMARK  status: ('A' for Active; 'I' for Inactive)
REMARK    1  A    between atoms: O_7  and  C_8 
REMARK    2  A    between atoms: O_7  and  C_10 
REMARK    3  A    between atoms: C_8  and  C_9 
ROOT
HETATM    1 Cl   UNK N   1      37.125  14.520  15.415  0.00  0.00    -0.086 Cl
HETATM    2  C   UNK N   1      35.873  13.248  15.488  0.00  0.00     0.330 C 
ENDROOT
BRANCH   2   3
HETATM    3  O   UNK N   1      34.966  13.412  14.438  0.00  0.00    -0.302 OA
BRANCH   3   4
HETATM    4  C   UNK N   1      34.866  12.146  13.854  0.00  0.00     0.501 C 
HETATM    5  F   UNK N   1      36.001  11.406  14.123  0.00  0.00    -0.184 F 
HETATM    6  F   UNK N   1      33.748  11.497  14.340  0.00  0.00    -0.184 F 
ENDBRANCH   3   4
ENDBRANCH   2   3
BRANCH   2   7
HETATM    7  C   UNK N   1      35.159  13.264  16.836  0.00  0.00     0.427 C 
HETATM    8  F   UNK N   1      35.290  12.029  17.441  0.00  0.00    -0.167 F 
HETATM    9  F   UNK N   1      35.704  14.234  17.659  0.00  0.00    -0.167 F 
HETATM   10  F   UNK N   1      33.814  13.531  16.652  0.00  0.00    -0.167 F 
ENDBRANCH   2   7
TORSDOF 3
ENDMDL
MODEL 2
REMARK VINA RESULT:      -3.8      2.135      2.591
REMARK  3 active torsions:
REMARK  status: ('A' for Active; 'I' for Inactive)
REMARK    1  A    between atoms: O_7  and  C_8 
REMARK    2  A    between atoms: O_7  and  C_10 
REMARK    3  A    between atoms: C_8  and  C_9 
ROOT
HETATM    1 Cl   UNK N   1      35.687  11.549  16.873  0.00  0.00    -0.086 Cl
HETATM    2  C   UNK N   1      35.211  13.051  16.030  0.00  0.00     0.330 C 
ENDROOT
BRANCH   2   3
HETATM    3  O   UNK N   1      34.200  12.777  15.105  0.00  0.00    -0.302 OA
BRANCH   3   4
HETATM    4  C   UNK N   1      34.316  11.407  14.850  0.00  0.00     0.501 C 
HETATM    5  F   UNK N   1      33.063  10.827  14.788  0.00  0.00    -0.184 F 
HETATM    6  F   UNK N   1      34.990  11.210  13.660  0.00  0.00    -0.184 F 
ENDBRANCH   3   4
ENDBRANCH   2   3
BRANCH   2   7
HETATM    7  C   UNK N   1      36.414  13.699  15.350  0.00  0.00     0.427 C 
HETATM    8  F   UNK N   1      36.938  14.675  16.176  0.00  0.00    -0.167 F 
HETATM    9  F   UNK N   1      37.388  12.750  15.090  0.00  0.00    -0.167 F 
HETATM   10  F   UNK N   1      36.023  14.283  14.160  0.00  0.00    -0.167 F 
ENDBRANCH   2   7
TORSDOF 3
ENDMDL
MODEL 3
REMARK VINA RESULT:      -3.8      7.592      8.410
REMARK  3 active torsions:
REMARK  status: ('A' for Active; 'I' for Inactive)
REMARK    1  A    between atoms: O_7  and  C_8 
REMARK    2  A    between atoms: O_7  and  C_10 
REMARK    3  A    between atoms: C_8  and  C_9 
ROOT
HETATM    1 Cl   UNK N   1      33.356  15.769   9.178  0.00  0.00    -0.086 Cl
HETATM    2  C   UNK N   1      34.660  16.936   8.812  0.00  0.00     0.330 C 
ENDROOT
BRANCH   2   3
HETATM    3  O   UNK N   1      35.286  17.335   9.996  0.00  0.00    -0.302 OA
BRANCH   3   4
HETATM    4  C   UNK N   1      35.541  16.144  10.681  0.00  0.00     0.501 C 
HETATM    5  F   UNK N   1      36.861  15.770  10.512  0.00  0.00    -0.184 F 
HETATM    6  F   UNK N   1      35.262  16.309  12.024  0.00  0.00    -0.184 F 
ENDBRANCH   3   4
ENDBRANCH   2   3
BRANCH   2   7
HETATM    7  C   UNK N   1      34.115  18.139   8.049  0.00  0.00     0.427 C 
HETATM    8  F   UNK N   1      34.181  17.891   6.691  0.00  0.00    -0.167 F 
HETATM    9  F   UNK N   1      32.799  18.379   8.404  0.00  0.00    -0.167 F 
HETATM   10  F   UNK N   1      34.873  19.260   8.335  0.00  0.00    -0.167 F 
ENDBRANCH   2   7
TORSDOF 3
ENDMDL
MODEL 4
REMARK VINA RESULT:      -3.8     13.988     15.111
REMARK  3 active torsions:
REMARK  status: ('A' for Active; 'I' for Inactive)
REMARK    1  A    between atoms: O_7  and  C_8 
REMARK    2  A    between atoms: O_7  and  C_10 
REMARK    3  A    between atoms: C_8  and  C_9 
ROOT
HETATM    1 Cl   UNK N   1      21.689  12.289   8.097  0.00  0.00    -0.086 Cl
HETATM    2  C   UNK N   1      21.455  12.823   9.786  0.00  0.00     0.330 C 
ENDROOT
BRANCH   2   3
HETATM    3  O   UNK N   1      21.559  14.214   9.863  0.00  0.00    -0.302 OA
BRANCH   3   4
HETATM    4  C   UNK N   1      20.387  14.691   9.269  0.00  0.00     0.501 C 
HETATM    5  F   UNK N   1      19.289  14.330  10.026  0.00  0.00    -0.184 F 
HETATM    6  F   UNK N   1      20.451  16.066   9.149  0.00  0.00    -0.184 F 
ENDBRANCH   3   4
ENDBRANCH   2   3
BRANCH   2   7
HETATM    7  C   UNK N   1      22.460  12.147  10.715  0.00  0.00     0.427 C 
HETATM    8  F   UNK N   1      23.604  12.917  10.794  0.00  0.00    -0.167 F 
HETATM    9  F   UNK N   1      21.921  12.000  11.982  0.00  0.00    -0.167 F 
HETATM   10  F   UNK N   1      22.794  10.900  10.218  0.00  0.00    -0.167 F 
ENDBRANCH   2   7
TORSDOF 3
ENDMDL
MODEL 5
REMARK VINA RESULT:      -3.8     26.299     26.979
REMARK  3 active torsions:
REMARK  status: ('A' for Active; 'I' for Inactive)
REMARK    1  A    between atoms: O_7  and  C_8 
REMARK    2  A    between atoms: O_7  and  C_10 
REMARK    3  A    between atoms: C_8  and  C_9 
ROOT
HETATM    1 Cl   UNK N   1      27.524  25.850  -5.225  0.00  0.00    -0.086 Cl
HETATM    2  C   UNK N   1      25.786  26.019  -4.848  0.00  0.00     0.330 C 
ENDROOT
BRANCH   2   3
HETATM    3  O   UNK N   1      25.051  25.064  -5.556  0.00  0.00    -0.302 OA
BRANCH   3   4
HETATM    4  C   UNK N   1      25.891  24.675  -6.603  0.00  0.00     0.501 C 
HETATM    5  F   UNK N   1      25.840  23.304  -6.771  0.00  0.00    -0.184 F 
HETATM    6  F   UNK N   1      25.509  25.312  -7.768  0.00  0.00    -0.184 F 
ENDBRANCH   3   4
ENDBRANCH   2   3
BRANCH   2   7
HETATM    7  C   UNK N   1      25.295  27.429  -5.162  0.00  0.00     0.427 C 
HETATM    8  F   UNK N   1      25.186  28.150  -3.988  0.00  0.00    -0.167 F 
HETATM    9  F   UNK N   1      26.183  28.070  -6.009  0.00  0.00    -0.167 F 
HETATM   10  F   UNK N   1      24.053  27.371  -5.768  0.00  0.00    -0.167 F 
ENDBRANCH   2   7
TORSDOF 3
ENDMDL
MODEL 6
REMARK VINA RESULT:      -3.8     12.548     13.504
REMARK  3 active torsions:
REMARK  status: ('A' for Active; 'I' for Inactive)
REMARK    1  A    between atoms: O_7  and  C_8 
REMARK    2  A    between atoms: O_7  and  C_10 
REMARK    3  A    between atoms: C_8  and  C_9 
ROOT
HETATM    1 Cl   UNK N   1      21.193  14.051   9.729  0.00  0.00    -0.086 Cl
HETATM    2  C   UNK N   1      22.711  13.222  10.179  0.00  0.00     0.330 C 
ENDROOT
BRANCH   2   3
HETATM    3  O   UNK N   1      23.368  12.776   9.029  0.00  0.00    -0.302 OA
BRANCH   3   4
HETATM    4  C   UNK N   1      24.620  13.396   9.074  0.00  0.00     0.501 C 
HETATM    5  F   UNK N   1      25.303  13.010  10.211  0.00  0.00    -0.184 F 
HETATM    6  F   UNK N   1      25.345  13.062   7.947  0.00  0.00    -0.184 F 
ENDBRANCH   3   4
ENDBRANCH   2   3
BRANCH   2   7
HETATM    7  C   UNK N   1      22.436  12.065  11.136  0.00  0.00     0.427 C 
HETATM    8  F   UNK N   1      21.089  12.032  11.443  0.00  0.00    -0.167 F 
HETATM    9  F   UNK N   1      22.801  10.863  10.554  0.00  0.00    -0.167 F 
HETATM   10  F   UNK N   1      23.156  12.240  12.303  0.00  0.00    -0.167 F 
ENDBRANCH   2   7
TORSDOF 3
ENDMDL
MODEL 7
REMARK VINA RESULT:      -3.7     18.118     18.837
REMARK  3 active torsions:
REMARK  status: ('A' for Active; 'I' for Inactive)
REMARK    1  A    between atoms: O_7  and  C_8 
REMARK    2  A    between atoms: O_7  and  C_10 
REMARK    3  A    between atoms: C_8  and  C_9 
ROOT
HETATM    1 Cl   UNK N   1      44.317  22.347   1.503  0.00  0.00    -0.086 Cl
HETATM    2  C   UNK N   1      43.851  23.002   3.099  0.00  0.00     0.330 C 
ENDROOT
BRANCH   2   3
HETATM    3  O   UNK N   1      44.444  24.253   3.290  0.00  0.00    -0.302 OA
BRANCH   3   4
HETATM    4  C   UNK N   1      45.263  24.432   2.172  0.00  0.00     0.501 C 
HETATM    5  F   UNK N   1      44.730  25.396   1.340  0.00  0.00    -0.184 F 
HETATM    6  F   UNK N   1      46.531  24.801   2.578  0.00  0.00    -0.184 F 
ENDBRANCH   3   4
ENDBRANCH   2   3
BRANCH   2   7
HETATM    7  C   UNK N   1      44.235  22.037   4.217  0.00  0.00     0.427 C 
HETATM    8  F   UNK N   1      43.705  20.790   3.950  0.00  0.00    -0.167 F 
HETATM    9  F   UNK N   1      45.612  21.936   4.314  0.00  0.00    -0.167 F 
HETATM   10  F   UNK N   1      43.728  22.489   5.422  0.00  0.00    -0.167 F 
ENDBRANCH   2   7
TORSDOF 3
ENDMDL
MODEL 8
REMARK VINA RESULT:      -3.7      2.087      3.605
REMARK  3 active torsions:
REMARK  status: ('A' for Active; 'I' for Inactive)
REMARK    1  A    between atoms: O_7  and  C_8 
REMARK    2  A    between atoms: O_7  and  C_10 
REMARK    3  A    between atoms: C_8  and  C_9 
ROOT
HETATM    1 Cl   UNK N   1      33.654  11.030  14.670  0.00  0.00    -0.086 Cl
HETATM    2  C   UNK N   1      34.861  12.140  15.382  0.00  0.00     0.330 C 
ENDROOT
BRANCH   2   3
HETATM    3  O   UNK N   1      34.212  13.183  16.047  0.00  0.00    -0.302 OA
BRANCH   3   4
HETATM    4  C   UNK N   1      34.859  13.272  17.283  0.00  0.00     0.501 C 
HETATM    5  F   UNK N   1      35.428  12.056  17.611  0.00  0.00    -0.184 F 
HETATM    6  F   UNK N   1      35.829  14.253  17.232  0.00  0.00    -0.184 F 
ENDBRANCH   3   4
ENDBRANCH   2   3
BRANCH   2   7
HETATM    7  C   UNK N   1      35.806  12.676  14.310  0.00  0.00     0.427 C 
HETATM    8  F   UNK N   1      37.073  12.814  14.842  0.00  0.00    -0.167 F 
HETATM    9  F   UNK N   1      35.855  11.808  13.233  0.00  0.00    -0.167 F 
HETATM   10  F   UNK N   1      35.367  13.914  13.874  0.00  0.00    -0.167 F 
ENDBRANCH   2   7
TORSDOF 3
ENDMDL
MODEL 9
REMARK VINA RESULT:      -3.7     15.399     16.235
REMARK  3 active torsions:
REMARK  status: ('A' for Active; 'I' for Inactive)
REMARK    1  A    between atoms: O_7  and  C_8 
REMARK    2  A    between atoms: O_7  and  C_10 
REMARK    3  A    between atoms: C_8  and  C_9 
ROOT
HETATM    1 Cl   UNK N   1      26.575  18.333   3.815  0.00  0.00    -0.086 Cl
HETATM    2  C   UNK N   1      26.182  19.646   4.962  0.00  0.00     0.330 C 
ENDROOT
BRANCH   2   3
HETATM    3  O   UNK N   1      25.319  20.563   4.356  0.00  0.00    -0.302 OA
BRANCH   3   4
HETATM    4  C   UNK N   1      25.462  20.333   2.985  0.00  0.00     0.501 C 
HETATM    5  F   UNK N   1      24.253  20.517   2.342  0.00  0.00    -0.184 F 
HETATM    6  F   UNK N   1      26.412  21.191   2.466  0.00  0.00    -0.184 F 
ENDBRANCH   3   4
ENDBRANCH   2   3
BRANCH   2   7
HETATM    7  C   UNK N   1      27.450  20.333   5.458  0.00  0.00     0.427 C 
HETATM    8  F   UNK N   1      27.830  19.781   6.667  0.00  0.00    -0.167 F 
HETATM    9  F   UNK N   1      28.475  20.172   4.542  0.00  0.00    -0.167 F 
HETATM   10  F   UNK N   1      27.213  21.684   5.638  0.00  0.00    -0.167 F 
ENDBRANCH   2   7
TORSDOF 3
ENDMDL
