MODEL 1
REMARK VINA RESULT:      -5.7      0.000      0.000
REMARK  2 active torsions:
REMARK  status: ('A' for Active; 'I' for Inactive)
REMARK    1  A    between atoms: N_3  and  C_9 
REMARK    2  A    between atoms: C_5  and  C_7 
ROOT
HETATM    1  O   UNK N   1      36.800  14.858  14.650  0.00  0.00    -0.270 OA
HETATM    2  O   UNK N   1      34.632  11.970  11.992  0.00  0.00    -0.247 OA
HETATM    3  N   UNK N   1      35.833  13.620  13.009  0.00  0.00    -0.268 N 
HETATM    4  N   UNK N   1      34.830  12.013  14.235  0.00  0.00    -0.325 N 
HETATM    5  C   UNK N   1      35.493  12.883  15.176  0.00  0.00     0.212 A 
HETATM    6  C   UNK N   1      36.124  13.905  14.292  0.00  0.00     0.255 A 
HETATM    7  C   UNK N   1      35.069  12.500  13.001  0.00  0.00     0.326 A 
HETATM    8  H   UNK N   1      34.301  11.213  14.453  0.00  0.00     0.165 HD
ENDROOT
BRANCH   5   9
HETATM    9  C   UNK N   1      35.431  12.630  16.646  0.00  0.00    -0.026 A 
HETATM   10  C   UNK N   1      35.189  13.673  17.546  0.00  0.00     0.010 A 
HETATM   11  C   UNK N   1      35.136  13.411  18.920  0.00  0.00     0.001 A 
HETATM   12  C   UNK N   1      35.325  12.108  19.392  0.00  0.00     0.000 A 
HETATM   13  C   UNK N   1      35.567  11.066  18.494  0.00  0.00     0.001 A 
HETATM   14  C   UNK N   1      35.620  11.328  17.125  0.00  0.00     0.010 A 
ENDBRANCH   5   9
BRANCH   3  15
HETATM   15  C   UNK N   1      36.291  14.417  11.879  0.00  0.00     0.132 C 
HETATM   16  C   UNK N   1      35.389  15.593  11.528  0.00  0.00     0.027 C 
ENDBRANCH   3  15
TORSDOF 2
ENDMDL
MODEL 2
REMARK VINA RESULT:      -5.7      1.611      6.294
REMARK  2 active torsions:
REMARK  status: ('A' for Active; 'I' for Inactive)
REMARK    1  A    between atoms: N_3  and  C_9 
REMARK    2  A    between atoms: C_5  and  C_7 
ROOT
HETATM    1  O   UNK N   1      34.438  12.490  13.765  0.00  0.00    -0.270 OA
HETATM    2  O   UNK N   1      37.609  14.847  15.885  0.00  0.00    -0.247 OA
HETATM    3  N   UNK N   1      35.973  13.443  15.142  0.00  0.00    -0.268 N 
HETATM    4  N   UNK N   1      36.792  15.059  13.798  0.00  0.00    -0.325 N 
HETATM    5  C   UNK N   1      35.788  14.366  13.028  0.00  0.00     0.212 A 
HETATM    6  C   UNK N   1      35.303  13.325  13.981  0.00  0.00     0.255 A 
HETATM    7  C   UNK N   1      36.845  14.473  15.010  0.00  0.00     0.326 A 
HETATM    8  H   UNK N   1      37.336  15.820  13.494  0.00  0.00     0.165 HD
ENDROOT
BRANCH   5   9
HETATM    9  C   UNK N   1      35.470  14.764  11.625  0.00  0.00    -0.026 A 
HETATM   10  C   UNK N   1      35.247  13.800  10.636  0.00  0.00     0.010 A 
HETATM   11  C   UNK N   1      34.950  14.198   9.327  0.00  0.00     0.001 A 
HETATM   12  C   UNK N   1      34.877  15.558   9.008  0.00  0.00     0.000 A 
HETATM   13  C   UNK N   1      35.100  16.522   9.995  0.00  0.00     0.001 A 
HETATM   14  C   UNK N   1      35.395  16.124  11.299  0.00  0.00     0.010 A 
ENDBRANCH   5   9
BRANCH   3  15
HETATM   15  C   UNK N   1      35.749  12.583  16.296  0.00  0.00     0.132 C 
HETATM   16  C   UNK N   1      34.948  13.228  17.419  0.00  0.00     0.027 C 
ENDBRANCH   3  15
TORSDOF 2
ENDMDL
MODEL 3
REMARK VINA RESULT:      -5.6      5.474      9.928
REMARK  2 active torsions:
REMARK  status: ('A' for Active; 'I' for Inactive)
REMARK    1  A    between atoms: N_3  and  C_9 
REMARK    2  A    between atoms: C_5  and  C_7 
ROOT
HETATM    1  O   UNK N   1      32.680  14.555   8.982  0.00  0.00    -0.270 OA
HETATM    2  O   UNK N   1      35.796  17.427  10.447  0.00  0.00    -0.247 OA
HETATM    3  N   UNK N   1      34.295  15.762  10.028  0.00  0.00    -0.268 N 
HETATM    4  N   UNK N   1      34.522  17.486   8.591  0.00  0.00    -0.325 N 
HETATM    5  C   UNK N   1      33.505  16.629   8.032  0.00  0.00     0.212 A 
HETATM    6  C   UNK N   1      33.419  15.526   9.034  0.00  0.00     0.255 A 
HETATM    7  C   UNK N   1      34.934  16.924   9.745  0.00  0.00     0.326 A 
HETATM    8  H   UNK N   1      34.854  18.327   8.202  0.00  0.00     0.165 HD
ENDROOT
BRANCH   5   9
HETATM    9  C   UNK N   1      32.830  16.959   6.744  0.00  0.00    -0.026 A 
HETATM   10  C   UNK N   1      33.574  17.288   5.605  0.00  0.00     0.010 A 
HETATM   11  C   UNK N   1      32.917  17.595   4.407  0.00  0.00     0.001 A 
HETATM   12  C   UNK N   1      31.520  17.572   4.349  0.00  0.00     0.000 A 
HETATM   13  C   UNK N   1      30.776  17.244   5.485  0.00  0.00     0.001 A 
HETATM   14  C   UNK N   1      31.431  16.938   6.679  0.00  0.00     0.010 A 
ENDBRANCH   5   9
BRANCH   3  15
HETATM   15  C   UNK N   1      34.473  14.882  11.176  0.00  0.00     0.132 C 
HETATM   16  C   UNK N   1      35.609  13.878  11.031  0.00  0.00     0.027 C 
ENDBRANCH   3  15
TORSDOF 2
ENDMDL
MODEL 4
REMARK VINA RESULT:      -5.5      1.253      2.106
REMARK  2 active torsions:
REMARK  status: ('A' for Active; 'I' for Inactive)
REMARK    1  A    between atoms: N_3  and  C_9 
REMARK    2  A    between atoms: C_5  and  C_7 
ROOT
HETATM    1  O   UNK N   1      34.285  11.170  13.771  0.00  0.00    -0.270 OA
HETATM    2  O   UNK N   1      36.300  15.003  12.611  0.00  0.00    -0.247 OA
HETATM    3  N   UNK N   1      35.205  13.014  12.816  0.00  0.00    -0.268 N 
HETATM    4  N   UNK N   1      36.024  14.062  14.638  0.00  0.00    -0.325 N 
HETATM    5  C   UNK N   1      35.401  12.852  15.117  0.00  0.00     0.212 A 
HETATM    6  C   UNK N   1      34.891  12.226  13.862  0.00  0.00     0.255 A 
HETATM    7  C   UNK N   1      35.872  14.091  13.299  0.00  0.00     0.326 A 
HETATM    8  H   UNK N   1      36.476  14.741  15.188  0.00  0.00     0.165 HD
ENDROOT
BRANCH   5   9
HETATM    9  C   UNK N   1      35.387  12.504  16.568  0.00  0.00    -0.026 A 
HETATM   10  C   UNK N   1      35.148  13.482  17.540  0.00  0.00     0.010 A 
HETATM   11  C   UNK N   1      35.140  13.131  18.895  0.00  0.00     0.001 A 
HETATM   12  C   UNK N   1      35.371  11.806  19.277  0.00  0.00     0.000 A 
HETATM   13  C   UNK N   1      35.610  10.829  18.307  0.00  0.00     0.001 A 
HETATM   14  C   UNK N   1      35.618  11.179  16.957  0.00  0.00     0.010 A 
ENDBRANCH   5   9
BRANCH   3  15
HETATM   15  C   UNK N   1      34.857  12.703  11.436  0.00  0.00     0.132 C 
HETATM   16  C   UNK N   1      35.986  12.083  10.625  0.00  0.00     0.027 C 
ENDBRANCH   3  15
TORSDOF 2
ENDMDL
MODEL 5
REMARK VINA RESULT:      -5.4      5.587      9.519
REMARK  2 active torsions:
REMARK  status: ('A' for Active; 'I' for Inactive)
REMARK    1  A    between atoms: N_3  and  C_9 
REMARK    2  A    between atoms: C_5  and  C_7 
ROOT
HETATM    1  O   UNK N   1      32.394  14.355   8.709  0.00  0.00    -0.270 OA
HETATM    2  O   UNK N   1      35.458  17.366   9.992  0.00  0.00    -0.247 OA
HETATM    3  N   UNK N   1      34.165  15.567   9.453  0.00  0.00    -0.268 N 
HETATM    4  N   UNK N   1      33.403  17.665   9.122  0.00  0.00    -0.325 N 
HETATM    5  C   UNK N   1      32.351  16.780   8.681  0.00  0.00     0.212 A 
HETATM    6  C   UNK N   1      32.932  15.429   8.932  0.00  0.00     0.255 A 
HETATM    7  C   UNK N   1      34.421  16.895   9.555  0.00  0.00     0.326 A 
HETATM    8  H   UNK N   1      33.381  18.648   9.108  0.00  0.00     0.165 HD
ENDROOT
BRANCH   5   9
HETATM    9  C   UNK N   1      31.067  17.309   8.135  0.00  0.00    -0.026 A 
HETATM   10  C   UNK N   1      30.647  16.986   6.841  0.00  0.00     0.010 A 
HETATM   11  C   UNK N   1      29.438  17.494   6.351  0.00  0.00     0.001 A 
HETATM   12  C   UNK N   1      28.651  18.325   7.156  0.00  0.00     0.000 A 
HETATM   13  C   UNK N   1      29.069  18.649   8.449  0.00  0.00     0.001 A 
HETATM   14  C   UNK N   1      30.274  18.142   8.936  0.00  0.00     0.010 A 
ENDBRANCH   5   9
BRANCH   3  15
HETATM   15  C   UNK N   1      35.019  14.445   9.819  0.00  0.00     0.132 C 
HETATM   16  C   UNK N   1      34.897  14.007  11.272  0.00  0.00     0.027 C 
ENDBRANCH   3  15
TORSDOF 2
ENDMDL
MODEL 6
REMARK VINA RESULT:      -5.4     15.537     17.844
REMARK  2 active torsions:
REMARK  status: ('A' for Active; 'I' for Inactive)
REMARK    1  A    between atoms: N_3  and  C_9 
REMARK    2  A    between atoms: C_5  and  C_7 
ROOT
HETATM    1  O   UNK N   1      22.841  17.601   4.480  0.00  0.00    -0.270 OA
HETATM    2  O   UNK N   1      21.526  21.171   2.109  0.00  0.00    -0.247 OA
HETATM    3  N   UNK N   1      21.819  19.243   3.290  0.00  0.00    -0.268 N 
HETATM    4  N   UNK N   1      23.559  20.627   2.910  0.00  0.00    -0.325 N 
HETATM    5  C   UNK N   1      24.084  19.521   3.672  0.00  0.00     0.212 A 
HETATM    6  C   UNK N   1      22.881  18.663   3.878  0.00  0.00     0.255 A 
HETATM    7  C   UNK N   1      22.243  20.400   2.725  0.00  0.00     0.326 A 
HETATM    8  H   UNK N   1      24.067  21.404   2.584  0.00  0.00     0.165 HD
ENDROOT
BRANCH   5   9
HETATM    9  C   UNK N   1      25.525  19.455   4.056  0.00  0.00    -0.026 A 
HETATM   10  C   UNK N   1      26.133  20.503   4.754  0.00  0.00     0.010 A 
HETATM   11  C   UNK N   1      27.486  20.417   5.103  0.00  0.00     0.001 A 
HETATM   12  C   UNK N   1      28.229  19.285   4.754  0.00  0.00     0.000 A 
HETATM   13  C   UNK N   1      27.623  18.237   4.057  0.00  0.00     0.001 A 
HETATM   14  C   UNK N   1      26.274  18.323   3.709  0.00  0.00     0.010 A 
ENDBRANCH   5   9
BRANCH   3  15
HETATM   15  C   UNK N   1      20.478  18.672   3.297  0.00  0.00     0.132 C 
HETATM   16  C   UNK N   1      20.130  17.864   2.054  0.00  0.00     0.027 C 
ENDBRANCH   3  15
TORSDOF 2
ENDMDL
MODEL 7
REMARK VINA RESULT:      -5.3     14.374     15.647
REMARK  2 active torsions:
REMARK  status: ('A' for Active; 'I' for Inactive)
REMARK    1  A    between atoms: N_3  and  C_9 
REMARK    2  A    between atoms: C_5  and  C_7 
ROOT
HETATM    1  O   UNK N   1      22.759  14.967   6.832  0.00  0.00    -0.270 OA
HETATM    2  O   UNK N   1      18.853  16.757   8.113  0.00  0.00    -0.247 OA
HETATM    3  N   UNK N   1      20.803  16.079   7.147  0.00  0.00    -0.268 N 
HETATM    4  N   UNK N   1      20.146  15.216   9.125  0.00  0.00    -0.325 N 
HETATM    5  C   UNK N   1      21.401  14.580   8.806  0.00  0.00     0.212 A 
HETATM    6  C   UNK N   1      21.761  15.201   7.497  0.00  0.00     0.255 A 
HETATM    7  C   UNK N   1      19.862  16.070   8.122  0.00  0.00     0.326 A 
HETATM    8  H   UNK N   1      19.599  15.056   9.927  0.00  0.00     0.165 HD
ENDROOT
BRANCH   5   9
HETATM    9  C   UNK N   1      22.014  13.567   9.714  0.00  0.00    -0.026 A 
HETATM   10  C   UNK N   1      23.384  13.289   9.663  0.00  0.00     0.010 A 
HETATM   11  C   UNK N   1      23.935  12.334  10.525  0.00  0.00     0.001 A 
HETATM   12  C   UNK N   1      23.117  11.659  11.437  0.00  0.00     0.000 A 
HETATM   13  C   UNK N   1      21.749  11.936  11.490  0.00  0.00     0.001 A 
HETATM   14  C   UNK N   1      21.200  12.887  10.630  0.00  0.00     0.010 A 
ENDBRANCH   5   9
BRANCH   3  15
HETATM   15  C   UNK N   1      20.836  16.866   5.921  0.00  0.00     0.132 C 
HETATM   16  C   UNK N   1      21.447  18.252   6.077  0.00  0.00     0.027 C 
ENDBRANCH   3  15
TORSDOF 2
ENDMDL
MODEL 8
REMARK VINA RESULT:      -5.2     25.059     25.950
REMARK  2 active torsions:
REMARK  status: ('A' for Active; 'I' for Inactive)
REMARK    1  A    between atoms: N_3  and  C_9 
REMARK    2  A    between atoms: C_5  and  C_7 
ROOT
HETATM    1  O   UNK N   1      28.522  24.028  -7.123  0.00  0.00    -0.270 OA
HETATM    2  O   UNK N   1      25.059  21.214  -7.566  0.00  0.00    -0.247 OA
HETATM    3  N   UNK N   1      27.012  22.390  -7.571  0.00  0.00    -0.268 N 
HETATM    4  N   UNK N   1      25.221  23.151  -6.429  0.00  0.00    -0.325 N 
HETATM    5  C   UNK N   1      26.271  24.120  -6.223  0.00  0.00     0.212 A 
HETATM    6  C   UNK N   1      27.406  23.546  -7.003  0.00  0.00     0.255 A 
HETATM    7  C   UNK N   1      25.721  22.179  -7.218  0.00  0.00     0.326 A 
HETATM    8  H   UNK N   1      24.310  23.193  -6.062  0.00  0.00     0.165 HD
ENDROOT
BRANCH   5   9
HETATM    9  C   UNK N   1      26.054  25.337  -5.388  0.00  0.00    -0.026 A 
HETATM   10  C   UNK N   1      26.583  25.429  -4.097  0.00  0.00     0.010 A 
HETATM   11  C   UNK N   1      26.366  26.582  -3.333  0.00  0.00     0.001 A 
HETATM   12  C   UNK N   1      25.620  27.641  -3.861  0.00  0.00     0.000 A 
HETATM   13  C   UNK N   1      25.090  27.550  -5.150  0.00  0.00     0.001 A 
HETATM   14  C   UNK N   1      25.307  26.401  -5.911  0.00  0.00     0.010 A 
ENDBRANCH   5   9
BRANCH   3  15
HETATM   15  C   UNK N   1      27.875  21.564  -8.405  0.00  0.00     0.132 C 
HETATM   16  C   UNK N   1      28.764  20.599  -7.632  0.00  0.00     0.027 C 
ENDBRANCH   3  15
TORSDOF 2
ENDMDL
MODEL 9
REMARK VINA RESULT:      -5.1     10.113     13.817
REMARK  2 active torsions:
REMARK  status: ('A' for Active; 'I' for Inactive)
REMARK    1  A    between atoms: N_3  and  C_9 
REMARK    2  A    between atoms: C_5  and  C_7 
ROOT
HETATM    1  O   UNK N   1      28.765  17.454   7.403  0.00  0.00    -0.270 OA
HETATM    2  O   UNK N   1      32.382  17.052   4.784  0.00  0.00    -0.247 OA
HETATM    3  N   UNK N   1      30.776  17.117   6.401  0.00  0.00    -0.268 N 
HETATM    4  N   UNK N   1      30.309  17.782   4.296  0.00  0.00    -0.325 N 
HETATM    5  C   UNK N   1      29.090  17.950   5.051  0.00  0.00     0.212 A 
HETATM    6  C   UNK N   1      29.483  17.492   6.415  0.00  0.00     0.255 A 
HETATM    7  C   UNK N   1      31.241  17.297   5.140  0.00  0.00     0.326 A 
HETATM    8  H   UNK N   1      30.435  17.985   3.342  0.00  0.00     0.165 HD
ENDROOT
BRANCH   5   9
HETATM    9  C   UNK N   1      27.846  18.474   4.415  0.00  0.00    -0.026 A 
HETATM   10  C   UNK N   1      26.822  17.609   4.016  0.00  0.00     0.010 A 
HETATM   11  C   UNK N   1      25.664  18.125   3.421  0.00  0.00     0.001 A 
HETATM   12  C   UNK N   1      25.532  19.504   3.225  0.00  0.00     0.000 A 
HETATM   13  C   UNK N   1      26.555  20.368   3.623  0.00  0.00     0.001 A 
HETATM   14  C   UNK N   1      27.708  19.854   4.216  0.00  0.00     0.010 A 
ENDBRANCH   5   9
BRANCH   3  15
HETATM   15  C   UNK N   1      31.486  16.615   7.570  0.00  0.00     0.132 C 
HETATM   16  C   UNK N   1      32.292  17.668   8.318  0.00  0.00     0.027 C 
ENDBRANCH   3  15
TORSDOF 2
ENDMDL
