MODEL 1
REMARK VINA RESULT:      -6.6      0.000      0.000
REMARK  6 active torsions:
REMARK  status: ('A' for Active; 'I' for Inactive)
REMARK    1  A    between atoms: O_1  and  C_22 
REMARK    2  A    between atoms: C_6  and  C_11 
REMARK    3  A    between atoms: C_13  and  C_14 
REMARK    4  A    between atoms: C_16  and  C_17 
REMARK    5  A    between atoms: C_18  and  C_19 
REMARK    6  A    between atoms: C_21  and  C_22 
ROOT
HETATM    1  C   UNK N   1      34.172   7.548  19.169  0.00  0.00    -0.062 C 
HETATM    2  C   UNK N   1      35.406   6.730  19.310  0.00  0.00     0.048 C 
HETATM    3  C   UNK N   1      33.032   7.000  19.610  0.00  0.00     0.007 C 
ENDROOT
BRANCH   1   4
HETATM    4  C   UNK N   1      34.332   8.889  18.567  0.00  0.00     0.007 C 
HETATM    5  C   UNK N   1      35.464   9.568  18.364  0.00  0.00     0.009 C 
BRANCH   5   6
HETATM    6  C   UNK N   1      35.437  10.922  17.718  0.00  0.00    -0.048 C 
HETATM    7  C   UNK N   1      35.557  11.053  16.184  0.00  0.00    -0.020 C 
HETATM    8  C   UNK N   1      35.655  12.500  15.698  0.00  0.00     0.014 C 
HETATM    9  C   UNK N   1      34.356  10.401  15.518  0.00  0.00     0.020 C 
HETATM   10  C   UNK N   1      36.821  10.368  15.687  0.00  0.00     0.020 C 
HETATM   11  C   UNK N   1      34.720  13.401  16.469  0.00  0.00     0.005 C 
HETATM   12  C   UNK N   1      35.188  13.415  17.915  0.00  0.00     0.034 C 
HETATM   13  C   UNK N   1      35.278  12.027  18.499  0.00  0.00    -0.077 C 
HETATM   14  C   UNK N   1      35.161  11.908  19.987  0.00  0.00     0.044 C 
ENDBRANCH   5   6
ENDBRANCH   1   4
BRANCH   3  15
HETATM   15  C   UNK N   1      31.677   7.574  19.607  0.00  0.00     0.001 C 
HETATM   16  C   UNK N   1      31.209   8.302  20.644  0.00  0.00     0.007 C 
BRANCH  16  17
HETATM   17  C   UNK N   1      31.934   8.611  21.917  0.00  0.00    -0.056 C 
HETATM   18  C   UNK N   1      31.990   7.626  23.049  0.00  0.00     0.048 C 
HETATM   19  C   UNK N   1      32.539   9.809  22.025  0.00  0.00     0.087 C 
BRANCH  19  20
HETATM   20  C   UNK N   1      33.314  10.293  23.201  0.00  0.00     0.165 C 
HETATM   21  O   UNK N   1      32.771  10.869  24.130  0.00  0.00    -0.647 OA
BRANCH  20  22
HETATM   22  O   UNK N   1      34.643  10.083  23.242  0.00  0.00    -0.773 OA
HETATM   23  H   UNK N   1      35.143  10.376  23.979  0.00  0.00     0.167 HD
ENDBRANCH  20  22
ENDBRANCH  19  20
ENDBRANCH  16  17
ENDBRANCH   3  15
TORSDOF 6
ENDMDL
MODEL 2
REMARK VINA RESULT:      -6.6     26.396     29.840
REMARK  6 active torsions:
REMARK  status: ('A' for Active; 'I' for Inactive)
REMARK    1  A    between atoms: O_1  and  C_22 
REMARK    2  A    between atoms: C_6  and  C_11 
REMARK    3  A    between atoms: C_13  and  C_14 
REMARK    4  A    between atoms: C_16  and  C_17 
REMARK    5  A    between atoms: C_18  and  C_19 
REMARK    6  A    between atoms: C_21  and  C_22 
ROOT
HETATM    1  C   UNK N   1      27.267  23.461  -6.465  0.00  0.00    -0.062 C 
HETATM    2  C   UNK N   1      25.938  22.794  -6.467  0.00  0.00     0.048 C 
HETATM    3  C   UNK N   1      28.315  22.719  -6.849  0.00  0.00     0.007 C 
ENDROOT
BRANCH   1   4
HETATM    4  C   UNK N   1      27.295  24.880  -6.050  0.00  0.00     0.007 C 
HETATM    5  C   UNK N   1      26.906  25.948  -6.752  0.00  0.00     0.009 C 
BRANCH   5   6
HETATM    6  C   UNK N   1      26.991  27.323  -6.158  0.00  0.00    -0.048 C 
HETATM    7  C   UNK N   1      26.123  27.697  -4.938  0.00  0.00    -0.020 C 
HETATM    8  C   UNK N   1      26.221  29.172  -4.543  0.00  0.00     0.014 C 
HETATM    9  C   UNK N   1      26.529  26.851  -3.741  0.00  0.00     0.020 C 
HETATM   10  C   UNK N   1      24.652  27.450  -5.232  0.00  0.00     0.020 C 
HETATM   11  C   UNK N   1      27.642  29.674  -4.652  0.00  0.00     0.005 C 
HETATM   12  C   UNK N   1      28.039  29.607  -6.117  0.00  0.00     0.034 C 
HETATM   13  C   UNK N   1      27.861  28.224  -6.694  0.00  0.00    -0.077 C 
HETATM   14  C   UNK N   1      28.706  27.870  -7.878  0.00  0.00     0.044 C 
ENDBRANCH   5   6
ENDBRANCH   1   4
BRANCH   3  15
HETATM   15  C   UNK N   1      29.728  23.112  -6.953  0.00  0.00     0.001 C 
HETATM   16  C   UNK N   1      30.577  23.003  -5.908  0.00  0.00     0.007 C 
BRANCH  16  17
HETATM   17  C   UNK N   1      30.241  22.517  -4.532  0.00  0.00    -0.056 C 
HETATM   18  C   UNK N   1      30.345  21.065  -4.164  0.00  0.00     0.048 C 
HETATM   19  C   UNK N   1      29.834  23.422  -3.623  0.00  0.00     0.087 C 
BRANCH  19  20
HETATM   20  C   UNK N   1      29.467  23.136  -2.208  0.00  0.00     0.165 C 
HETATM   21  O   UNK N   1      30.317  23.001  -1.343  0.00  0.00    -0.647 OA
BRANCH  20  22
HETATM   22  O   UNK N   1      28.167  23.033  -1.875  0.00  0.00    -0.773 OA
HETATM   23  H   UNK N   1      27.512  22.987  -2.544  0.00  0.00     0.167 HD
ENDBRANCH  20  22
ENDBRANCH  19  20
ENDBRANCH  16  17
ENDBRANCH   3  15
TORSDOF 6
ENDMDL
MODEL 3
REMARK VINA RESULT:      -6.5     14.883     17.939
REMARK  6 active torsions:
REMARK  status: ('A' for Active; 'I' for Inactive)
REMARK    1  A    between atoms: O_1  and  C_22 
REMARK    2  A    between atoms: C_6  and  C_11 
REMARK    3  A    between atoms: C_13  and  C_14 
REMARK    4  A    between atoms: C_16  and  C_17 
REMARK    5  A    between atoms: C_18  and  C_19 
REMARK    6  A    between atoms: C_21  and  C_22 
ROOT
HETATM    1  C   UNK N   1      26.796  20.483   6.014  0.00  0.00    -0.062 C 
HETATM    2  C   UNK N   1      26.404  21.431   7.091  0.00  0.00     0.048 C 
HETATM    3  C   UNK N   1      26.088  20.534   4.879  0.00  0.00     0.007 C 
ENDROOT
BRANCH   1   4
HETATM    4  C   UNK N   1      27.938  19.589   6.303  0.00  0.00     0.007 C 
HETATM    5  C   UNK N   1      27.913  18.392   6.895  0.00  0.00     0.009 C 
BRANCH   5   6
HETATM    6  C   UNK N   1      29.179  17.611   7.091  0.00  0.00    -0.048 C 
HETATM    7  C   UNK N   1      29.714  16.704   5.962  0.00  0.00    -0.020 C 
HETATM    8  C   UNK N   1      30.931  15.870   6.369  0.00  0.00     0.014 C 
HETATM    9  C   UNK N   1      30.094  17.554   4.759  0.00  0.00     0.020 C 
HETATM   10  C   UNK N   1      28.655  15.700   5.535  0.00  0.00     0.020 C 
HETATM   11  C   UNK N   1      31.886  16.675   7.220  0.00  0.00     0.005 C 
HETATM   12  C   UNK N   1      31.165  17.021   8.513  0.00  0.00     0.034 C 
HETATM   13  C   UNK N   1      29.859  17.733   8.265  0.00  0.00    -0.077 C 
HETATM   14  C   UNK N   1      29.346  18.610   9.365  0.00  0.00     0.044 C 
ENDBRANCH   5   6
ENDBRANCH   1   4
BRANCH   3  15
HETATM   15  C   UNK N   1      26.255  19.733   3.657  0.00  0.00     0.001 C 
HETATM   16  C   UNK N   1      25.576  18.582   3.461  0.00  0.00     0.007 C 
BRANCH  16  17
HETATM   17  C   UNK N   1      24.610  17.942   4.410  0.00  0.00    -0.056 C 
HETATM   18  C   UNK N   1      25.015  16.791   5.285  0.00  0.00     0.048 C 
HETATM   19  C   UNK N   1      23.355  18.426   4.458  0.00  0.00     0.087 C 
BRANCH  19  20
HETATM   20  C   UNK N   1      22.262  17.933   5.340  0.00  0.00     0.165 C 
HETATM   21  O   UNK N   1      21.997  18.483   6.397  0.00  0.00    -0.647 OA
BRANCH  20  22
HETATM   22  O   UNK N   1      21.544  16.861   4.958  0.00  0.00    -0.773 OA
HETATM   23  H   UNK N   1      20.662  16.967   4.658  0.00  0.00     0.167 HD
ENDBRANCH  20  22
ENDBRANCH  19  20
ENDBRANCH  16  17
ENDBRANCH   3  15
TORSDOF 6
ENDMDL
MODEL 4
REMARK VINA RESULT:      -6.3     27.048     29.766
REMARK  6 active torsions:
REMARK  status: ('A' for Active; 'I' for Inactive)
REMARK    1  A    between atoms: O_1  and  C_22 
REMARK    2  A    between atoms: C_6  and  C_11 
REMARK    3  A    between atoms: C_13  and  C_14 
REMARK    4  A    between atoms: C_16  and  C_17 
REMARK    5  A    between atoms: C_18  and  C_19 
REMARK    6  A    between atoms: C_21  and  C_22 
ROOT
HETATM    1  C   UNK N   1      26.485  23.612  -7.435  0.00  0.00    -0.062 C 
HETATM    2  C   UNK N   1      25.592  22.429  -7.319  0.00  0.00     0.048 C 
HETATM    3  C   UNK N   1      25.958  24.715  -7.983  0.00  0.00     0.007 C 
ENDROOT
BRANCH   1   4
HETATM    4  C   UNK N   1      27.864  23.454  -6.924  0.00  0.00     0.007 C 
HETATM    5  C   UNK N   1      28.248  23.007  -5.725  0.00  0.00     0.009 C 
BRANCH   5   6
HETATM    6  C   UNK N   1      29.704  22.896  -5.383  0.00  0.00    -0.048 C 
HETATM    7  C   UNK N   1      30.400  24.014  -4.576  0.00  0.00    -0.020 C 
HETATM    8  C   UNK N   1      31.911  23.818  -4.434  0.00  0.00     0.014 C 
HETATM    9  C   UNK N   1      29.792  24.095  -3.185  0.00  0.00     0.020 C 
HETATM   10  C   UNK N   1      30.225  25.358  -5.265  0.00  0.00     0.020 C 
HETATM   11  C   UNK N   1      32.254  22.369  -4.182  0.00  0.00     0.005 C 
HETATM   12  C   UNK N   1      31.846  21.582  -5.417  0.00  0.00     0.034 C 
HETATM   13  C   UNK N   1      30.394  21.787  -5.771  0.00  0.00    -0.077 C 
HETATM   14  C   UNK N   1      29.727  20.699  -6.554  0.00  0.00     0.044 C 
ENDBRANCH   5   6
ENDBRANCH   1   4
BRANCH   3  15
HETATM   15  C   UNK N   1      26.596  26.020  -8.214  0.00  0.00     0.001 C 
HETATM   16  C   UNK N   1      26.637  26.973  -7.257  0.00  0.00     0.007 C 
BRANCH  16  17
HETATM   17  C   UNK N   1      26.050  26.883  -5.883  0.00  0.00    -0.056 C 
HETATM   18  C   UNK N   1      24.587  27.119  -5.636  0.00  0.00     0.048 C 
HETATM   19  C   UNK N   1      26.875  26.588  -4.860  0.00  0.00     0.087 C 
BRANCH  19  20
HETATM   20  C   UNK N   1      26.479  26.445  -3.432  0.00  0.00     0.165 C 
HETATM   21  O   UNK N   1      26.437  25.354  -2.887  0.00  0.00    -0.647 OA
BRANCH  20  22
HETATM   22  O   UNK N   1      26.169  27.547  -2.724  0.00  0.00    -0.773 OA
HETATM   23  H   UNK N   1      25.936  28.340  -3.165  0.00  0.00     0.167 HD
ENDBRANCH  20  22
ENDBRANCH  19  20
ENDBRANCH  16  17
ENDBRANCH   3  15
TORSDOF 6
ENDMDL
MODEL 5
REMARK VINA RESULT:      -6.3     28.927     31.495
REMARK  6 active torsions:
REMARK  status: ('A' for Active; 'I' for Inactive)
REMARK    1  A    between atoms: O_1  and  C_22 
REMARK    2  A    between atoms: C_6  and  C_11 
REMARK    3  A    between atoms: C_13  and  C_14 
REMARK    4  A    between atoms: C_16  and  C_17 
REMARK    5  A    between atoms: C_18  and  C_19 
REMARK    6  A    between atoms: C_21  and  C_22 
ROOT
HETATM    1  C   UNK N   1      26.524  25.438  -9.225  0.00  0.00    -0.062 C 
HETATM    2  C   UNK N   1      27.325  25.889 -10.394  0.00  0.00     0.048 C 
HETATM    3  C   UNK N   1      25.999  24.207  -9.292  0.00  0.00     0.007 C 
ENDROOT
BRANCH   1   4
HETATM    4  C   UNK N   1      26.398  26.391  -8.101  0.00  0.00     0.007 C 
HETATM    5  C   UNK N   1      27.299  26.668  -7.155  0.00  0.00     0.009 C 
BRANCH   5   6
HETATM    6  C   UNK N   1      27.002  27.686  -6.093  0.00  0.00    -0.048 C 
HETATM    7  C   UNK N   1      25.984  27.370  -4.977  0.00  0.00    -0.020 C 
HETATM    8  C   UNK N   1      25.690  28.558  -4.060  0.00  0.00     0.014 C 
HETATM    9  C   UNK N   1      26.499  26.220  -4.125  0.00  0.00     0.020 C 
HETATM   10  C   UNK N   1      24.643  26.972  -5.573  0.00  0.00     0.020 C 
HETATM   11  C   UNK N   1      26.949  29.333  -3.748  0.00  0.00     0.005 C 
HETATM   12  C   UNK N   1      27.454  29.928  -5.052  0.00  0.00     0.034 C 
HETATM   13  C   UNK N   1      27.662  28.878  -6.115  0.00  0.00    -0.077 C 
HETATM   14  C   UNK N   1      28.650  29.194  -7.195  0.00  0.00     0.044 C 
ENDBRANCH   5   6
ENDBRANCH   1   4
BRANCH   3  15
HETATM   15  C   UNK N   1      25.181  23.503  -8.293  0.00  0.00     0.001 C 
HETATM   16  C   UNK N   1      25.737  22.789  -7.290  0.00  0.00     0.007 C 
BRANCH  16  17
HETATM   17  C   UNK N   1      27.200  22.577  -7.051  0.00  0.00    -0.056 C 
HETATM   18  C   UNK N   1      27.989  21.575  -7.844  0.00  0.00     0.048 C 
HETATM   19  C   UNK N   1      27.797  23.311  -6.093  0.00  0.00     0.087 C 
BRANCH  19  20
HETATM   20  C   UNK N   1      29.236  23.252  -5.717  0.00  0.00     0.165 C 
HETATM   21  O   UNK N   1      30.059  24.001  -6.220  0.00  0.00    -0.647 OA
BRANCH  20  22
HETATM   22  O   UNK N   1      29.637  22.357  -4.795  0.00  0.00    -0.773 OA
HETATM   23  H   UNK N   1      30.464  21.926  -4.886  0.00  0.00     0.167 HD
ENDBRANCH  20  22
ENDBRANCH  19  20
ENDBRANCH  16  17
ENDBRANCH   3  15
TORSDOF 6
ENDMDL
MODEL 6
REMARK VINA RESULT:      -6.2     26.052     29.619
REMARK  6 active torsions:
REMARK  status: ('A' for Active; 'I' for Inactive)
REMARK    1  A    between atoms: O_1  and  C_22 
REMARK    2  A    between atoms: C_6  and  C_11 
REMARK    3  A    between atoms: C_13  and  C_14 
REMARK    4  A    between atoms: C_16  and  C_17 
REMARK    5  A    between atoms: C_18  and  C_19 
REMARK    6  A    between atoms: C_21  and  C_22 
ROOT
HETATM    1  C   UNK N   1      28.089  27.226  -6.436  0.00  0.00    -0.062 C 
HETATM    2  C   UNK N   1      29.099  27.722  -7.408  0.00  0.00     0.048 C 
HETATM    3  C   UNK N   1      26.856  27.740  -6.532  0.00  0.00     0.007 C 
ENDROOT
BRANCH   1   4
HETATM    4  C   UNK N   1      28.547  26.205  -5.469  0.00  0.00     0.007 C 
HETATM    5  C   UNK N   1      28.366  24.883  -5.524  0.00  0.00     0.009 C 
BRANCH   5   6
HETATM    6  C   UNK N   1      28.922  23.992  -4.453  0.00  0.00    -0.048 C 
HETATM    7  C   UNK N   1      30.271  23.271  -4.665  0.00  0.00    -0.020 C 
HETATM    8  C   UNK N   1      30.627  22.293  -3.543  0.00  0.00     0.014 C 
HETATM    9  C   UNK N   1      31.387  24.298  -4.781  0.00  0.00     0.020 C 
HETATM   10  C   UNK N   1      30.239  22.440  -5.937  0.00  0.00     0.020 C 
HETATM   11  C   UNK N   1      30.268  22.859  -2.189  0.00  0.00     0.005 C 
HETATM   12  C   UNK N   1      28.756  23.012  -2.144  0.00  0.00     0.034 C 
HETATM   13  C   UNK N   1      28.234  23.849  -3.285  0.00  0.00    -0.077 C 
HETATM   14  C   UNK N   1      26.924  24.543  -3.073  0.00  0.00     0.044 C 
ENDBRANCH   5   6
ENDBRANCH   1   4
BRANCH   3  15
HETATM   15  C   UNK N   1      25.669  27.434  -5.720  0.00  0.00     0.001 C 
HETATM   16  C   UNK N   1      25.471  27.993  -4.506  0.00  0.00     0.007 C 
BRANCH  16  17
HETATM   17  C   UNK N   1      26.387  28.947  -3.803  0.00  0.00    -0.056 C 
HETATM   18  C   UNK N   1      26.395  30.413  -4.129  0.00  0.00     0.048 C 
HETATM   19  C   UNK N   1      27.216  28.453  -2.864  0.00  0.00     0.087 C 
BRANCH  19  20
HETATM   20  C   UNK N   1      28.186  29.240  -2.054  0.00  0.00     0.165 C 
HETATM   21  O   UNK N   1      27.884  29.698  -0.964  0.00  0.00    -0.647 OA
BRANCH  20  22
HETATM   22  O   UNK N   1      29.428  29.442  -2.532  0.00  0.00    -0.773 OA
HETATM   23  H   UNK N   1      29.550  29.855  -3.365  0.00  0.00     0.167 HD
ENDBRANCH  20  22
ENDBRANCH  19  20
ENDBRANCH  16  17
ENDBRANCH   3  15
TORSDOF 6
ENDMDL
MODEL 7
REMARK VINA RESULT:      -6.2     26.707     30.215
REMARK  6 active torsions:
REMARK  status: ('A' for Active; 'I' for Inactive)
REMARK    1  A    between atoms: O_1  and  C_22 
REMARK    2  A    between atoms: C_6  and  C_11 
REMARK    3  A    between atoms: C_13  and  C_14 
REMARK    4  A    between atoms: C_16  and  C_17 
REMARK    5  A    between atoms: C_18  and  C_19 
REMARK    6  A    between atoms: C_21  and  C_22 
ROOT
HETATM    1  C   UNK N   1      29.734  25.326  -7.486  0.00  0.00    -0.062 C 
HETATM    2  C   UNK N   1      30.931  25.896  -8.158  0.00  0.00     0.048 C 
HETATM    3  C   UNK N   1      29.460  24.038  -7.732  0.00  0.00     0.007 C 
ENDROOT
BRANCH   1   4
HETATM    4  C   UNK N   1      28.973  26.237  -6.605  0.00  0.00     0.007 C 
HETATM    5  C   UNK N   1      27.858  26.915  -6.891  0.00  0.00     0.009 C 
BRANCH   5   6
HETATM    6  C   UNK N   1      27.208  27.787  -5.857  0.00  0.00    -0.048 C 
HETATM    7  C   UNK N   1      26.123  27.207  -4.924  0.00  0.00    -0.020 C 
HETATM    8  C   UNK N   1      25.461  28.255  -4.027  0.00  0.00     0.014 C 
HETATM    9  C   UNK N   1      26.730  26.130  -4.039  0.00  0.00     0.020 C 
HETATM   10  C   UNK N   1      24.994  26.593  -5.736  0.00  0.00     0.020 C 
HETATM   11  C   UNK N   1      26.477  29.241  -3.497  0.00  0.00     0.005 C 
HETATM   12  C   UNK N   1      27.036  30.004  -4.687  0.00  0.00     0.034 C 
HETATM   13  C   UNK N   1      27.607  29.084  -5.737  0.00  0.00    -0.077 C 
HETATM   14  C   UNK N   1      28.658  29.654  -6.639  0.00  0.00     0.044 C 
ENDBRANCH   5   6
ENDBRANCH   1   4
BRANCH   3  15
HETATM   15  C   UNK N   1      28.359  23.217  -7.204  0.00  0.00     0.001 C 
HETATM   16  C   UNK N   1      28.400  22.681  -5.965  0.00  0.00     0.007 C 
BRANCH  16  17
HETATM   17  C   UNK N   1      29.520  22.798  -4.978  0.00  0.00    -0.056 C 
HETATM   18  C   UNK N   1      30.796  22.024  -5.142  0.00  0.00     0.048 C 
HETATM   19  C   UNK N   1      29.353  23.621  -3.926  0.00  0.00     0.087 C 
BRANCH  19  20
HETATM   20  C   UNK N   1      30.350  23.878  -2.850  0.00  0.00     0.165 C 
HETATM   21  O   UNK N   1      31.076  24.859  -2.873  0.00  0.00    -0.647 OA
BRANCH  20  22
HETATM   22  O   UNK N   1      30.447  23.012  -1.825  0.00  0.00    -0.773 OA
HETATM   23  H   UNK N   1      30.351  22.092  -1.975  0.00  0.00     0.167 HD
ENDBRANCH  20  22
ENDBRANCH  19  20
ENDBRANCH  16  17
ENDBRANCH   3  15
TORSDOF 6
ENDMDL
MODEL 8
REMARK VINA RESULT:      -6.2     14.343     16.867
REMARK  6 active torsions:
REMARK  status: ('A' for Active; 'I' for Inactive)
REMARK    1  A    between atoms: O_1  and  C_22 
REMARK    2  A    between atoms: C_6  and  C_11 
REMARK    3  A    between atoms: C_13  and  C_14 
REMARK    4  A    between atoms: C_16  and  C_17 
REMARK    5  A    between atoms: C_18  and  C_19 
REMARK    6  A    between atoms: C_21  and  C_22 
ROOT
HETATM    1  C   UNK N   1      27.389  16.186   6.070  0.00  0.00    -0.062 C 
HETATM    2  C   UNK N   1      26.514  15.559   7.096  0.00  0.00     0.048 C 
HETATM    3  C   UNK N   1      26.791  16.624   4.954  0.00  0.00     0.007 C 
ENDROOT
BRANCH   1   4
HETATM    4  C   UNK N   1      28.830  16.271   6.392  0.00  0.00     0.007 C 
HETATM    5  C   UNK N   1      29.625  17.341   6.316  0.00  0.00     0.009 C 
BRANCH   5   6
HETATM    6  C   UNK N   1      31.072  17.245   6.703  0.00  0.00    -0.048 C 
HETATM    7  C   UNK N   1      32.108  16.688   5.703  0.00  0.00    -0.020 C 
HETATM    8  C   UNK N   1      33.508  16.524   6.297  0.00  0.00     0.014 C 
HETATM    9  C   UNK N   1      32.201  17.610   4.496  0.00  0.00     0.020 C 
HETATM   10  C   UNK N   1      31.700  15.303   5.228  0.00  0.00     0.020 C 
HETATM   11  C   UNK N   1      33.862  17.688   7.194  0.00  0.00     0.005 C 
HETATM   12  C   UNK N   1      32.903  17.663   8.373  0.00  0.00     0.034 C 
HETATM   13  C   UNK N   1      31.459  17.680   7.935  0.00  0.00    -0.077 C 
HETATM   14  C   UNK N   1      30.461  18.220   8.911  0.00  0.00     0.044 C 
ENDBRANCH   5   6
ENDBRANCH   1   4
BRANCH   3  15
HETATM   15  C   UNK N   1      27.397  17.285   3.788  0.00  0.00     0.001 C 
HETATM   16  C   UNK N   1      27.358  18.626   3.628  0.00  0.00     0.007 C 
BRANCH  16  17
HETATM   17  C   UNK N   1      26.705  19.615   4.543  0.00  0.00    -0.056 C 
HETATM   18  C   UNK N   1      25.317  20.127   4.284  0.00  0.00     0.048 C 
HETATM   19  C   UNK N   1      27.401  20.043   5.613  0.00  0.00     0.087 C 
BRANCH  19  20
HETATM   20  C   UNK N   1      26.921  21.011   6.638  0.00  0.00     0.165 C 
HETATM   21  O   UNK N   1      26.998  22.216   6.463  0.00  0.00    -0.647 OA
BRANCH  20  22
HETATM   22  O   UNK N   1      26.382  20.544   7.780  0.00  0.00    -0.773 OA
HETATM   23  H   UNK N   1      26.383  21.075   8.552  0.00  0.00     0.167 HD
ENDBRANCH  20  22
ENDBRANCH  19  20
ENDBRANCH  16  17
ENDBRANCH   3  15
TORSDOF 6
ENDMDL
MODEL 9
REMARK VINA RESULT:      -6.1      7.010     10.719
REMARK  6 active torsions:
REMARK  status: ('A' for Active; 'I' for Inactive)
REMARK    1  A    between atoms: O_1  and  C_22 
REMARK    2  A    between atoms: C_6  and  C_11 
REMARK    3  A    between atoms: C_13  and  C_14 
REMARK    4  A    between atoms: C_16  and  C_17 
REMARK    5  A    between atoms: C_18  and  C_19 
REMARK    6  A    between atoms: C_21  and  C_22 
ROOT
HETATM    1  C   UNK N   1      36.933  13.033  11.332  0.00  0.00    -0.062 C 
HETATM    2  C   UNK N   1      38.333  12.992  10.833  0.00  0.00     0.048 C 
HETATM    3  C   UNK N   1      36.081  13.829  10.673  0.00  0.00     0.007 C 
ENDROOT
BRANCH   1   4
HETATM    4  C   UNK N   1      36.620  12.181  12.499  0.00  0.00     0.007 C 
HETATM    5  C   UNK N   1      36.744  12.485  13.794  0.00  0.00     0.009 C 
BRANCH   5   6
HETATM    6  C   UNK N   1      36.359  11.492  14.851  0.00  0.00    -0.048 C 
HETATM    7  C   UNK N   1      34.977  11.582  15.534  0.00  0.00    -0.020 C 
HETATM    8  C   UNK N   1      34.795  10.590  16.684  0.00  0.00     0.014 C 
HETATM    9  C   UNK N   1      33.882  11.336  14.508  0.00  0.00     0.020 C 
HETATM   10  C   UNK N   1      34.772  12.959  16.146  0.00  0.00     0.020 C 
HETATM   11  C   UNK N   1      35.394   9.244  16.345  0.00  0.00     0.005 C 
HETATM   12  C   UNK N   1      36.894   9.437  16.194  0.00  0.00     0.034 C 
HETATM   13  C   UNK N   1      37.233  10.500  15.179  0.00  0.00    -0.077 C 
HETATM   14  C   UNK N   1      38.575  10.407  14.523  0.00  0.00     0.044 C 
ENDBRANCH   5   6
ENDBRANCH   1   4
BRANCH   3  15
HETATM   15  C   UNK N   1      34.651  14.059  10.933  0.00  0.00     0.001 C 
HETATM   16  C   UNK N   1      33.931  14.953  10.221  0.00  0.00     0.007 C 
BRANCH  16  17
HETATM   17  C   UNK N   1      34.439  15.836   9.124  0.00  0.00    -0.056 C 
HETATM   18  C   UNK N   1      35.231  15.284   7.974  0.00  0.00     0.048 C 
HETATM   19  C   UNK N   1      34.169  17.153   9.195  0.00  0.00     0.087 C 
BRANCH  19  20
HETATM   20  C   UNK N   1      34.576  18.183   8.201  0.00  0.00     0.165 C 
HETATM   21  O   UNK N   1      34.177  18.151   7.048  0.00  0.00    -0.647 OA
BRANCH  20  22
HETATM   22  O   UNK N   1      35.398  19.178   8.585  0.00  0.00    -0.773 OA
HETATM   23  H   UNK N   1      36.326  19.077   8.510  0.00  0.00     0.167 HD
ENDBRANCH  20  22
ENDBRANCH  19  20
ENDBRANCH  16  17
ENDBRANCH   3  15
TORSDOF 6
ENDMDL
