MODEL 1
REMARK VINA RESULT:      -6.6      0.000      0.000
REMARK  4 active torsions:
REMARK  status: ('A' for Active; 'I' for Inactive)
REMARK    1  A    between atoms: O_7  and  C_12 
REMARK    2  A    between atoms: O_8  and  C_13 
REMARK    3  A    between atoms: C_9  and  C_10 
REMARK    4  A    between atoms: C_9  and  C_11 
ROOT
HETATM    1  C   UNK N   1      28.812  17.384   6.010  0.00  0.00     0.086 C 
ENDROOT
BRANCH   1   2
HETATM    2  C   UNK N   1      30.337  17.377   5.865  0.00  0.00     0.004 A 
HETATM    3  C   UNK N   1      30.967  17.179   4.611  0.00  0.00     0.095 A 
HETATM    4  C   UNK N   1      32.365  17.112   4.519  0.00  0.00     0.069 A 
HETATM    5 Cl   UNK N   1      33.155  16.837   2.975  0.00  0.00    -0.081 Cl
HETATM    6  C   UNK N   1      33.149  17.230   5.659  0.00  0.00     0.052 A 
HETATM    7  C   UNK N   1      32.558  17.401   6.904  0.00  0.00     0.058 A 
HETATM    8 Cl   UNK N   1      33.603  17.501   8.315  0.00  0.00    -0.082 Cl
HETATM    9  C   UNK N   1      31.156  17.464   7.022  0.00  0.00     0.065 A 
HETATM   10 Cl   UNK N   1      30.457  17.602   8.629  0.00  0.00    -0.082 Cl
BRANCH   3  11
HETATM   11  O   UNK N   1      30.244  17.016   3.495  0.00  0.00    -0.358 OA
HETATM   12  H   UNK N   1      29.996  16.156   3.216  0.00  0.00     0.217 HD
ENDBRANCH   3  11
ENDBRANCH   1   2
BRANCH   1  13
HETATM   13  C   UNK N   1      28.014  18.670   5.783  0.00  0.00     0.004 A 
HETATM   14  C   UNK N   1      27.585  19.053   4.488  0.00  0.00     0.095 A 
HETATM   15  C   UNK N   1      26.799  20.202   4.310  0.00  0.00     0.069 A 
HETATM   16 Cl   UNK N   1      26.254  20.681   2.712  0.00  0.00    -0.081 Cl
HETATM   17  C   UNK N   1      26.410  20.963   5.404  0.00  0.00     0.052 A 
HETATM   18  C   UNK N   1      26.786  20.591   6.689  0.00  0.00     0.058 A 
HETATM   19 Cl   UNK N   1      26.213  21.564   8.038  0.00  0.00    -0.082 Cl
HETATM   20  C   UNK N   1      27.582  19.447   6.891  0.00  0.00     0.065 A 
HETATM   21 Cl   UNK N   1      27.975  18.988   8.542  0.00  0.00    -0.082 Cl
BRANCH  14  22
HETATM   22  O   UNK N   1      27.888  18.309   3.415  0.00  0.00    -0.358 OA
HETATM   23  H   UNK N   1      27.316  18.266   2.674  0.00  0.00     0.217 HD
ENDBRANCH  14  22
ENDBRANCH   1  13
TORSDOF 4
ENDMDL
MODEL 2
REMARK VINA RESULT:      -6.6     10.054     13.101
REMARK  4 active torsions:
REMARK  status: ('A' for Active; 'I' for Inactive)
REMARK    1  A    between atoms: O_7  and  C_12 
REMARK    2  A    between atoms: O_8  and  C_13 
REMARK    3  A    between atoms: C_9  and  C_10 
REMARK    4  A    between atoms: C_9  and  C_11 
ROOT
HETATM    1  C   UNK N   1      28.715  23.650  -3.410  0.00  0.00     0.086 C 
ENDROOT
BRANCH   1   2
HETATM    2  C   UNK N   1      28.601  25.077  -3.955  0.00  0.00     0.004 A 
HETATM    3  C   UNK N   1      29.638  26.027  -3.783  0.00  0.00     0.095 A 
HETATM    4  C   UNK N   1      29.479  27.345  -4.236  0.00  0.00     0.069 A 
HETATM    5 Cl   UNK N   1      30.745  28.539  -4.001  0.00  0.00    -0.081 Cl
HETATM    6  C   UNK N   1      28.297  27.738  -4.850  0.00  0.00     0.052 A 
HETATM    7  C   UNK N   1      27.254  26.834  -5.010  0.00  0.00     0.058 A 
HETATM    8 Cl   UNK N   1      25.767  27.403  -5.758  0.00  0.00    -0.082 Cl
HETATM    9  C   UNK N   1      27.389  25.507  -4.558  0.00  0.00     0.065 A 
HETATM   10 Cl   UNK N   1      26.011  24.426  -4.714  0.00  0.00    -0.082 Cl
BRANCH   3  11
HETATM   11  O   UNK N   1      30.775  25.699  -3.155  0.00  0.00    -0.358 OA
HETATM   12  H   UNK N   1      30.750  25.364  -2.280  0.00  0.00     0.217 HD
ENDBRANCH   3  11
ENDBRANCH   1   2
BRANCH   1  13
HETATM   13  C   UNK N   1      29.839  22.724  -3.879  0.00  0.00     0.004 A 
HETATM   14  C   UNK N   1      30.911  22.372  -3.022  0.00  0.00     0.095 A 
HETATM   15  C   UNK N   1      31.898  21.471  -3.450  0.00  0.00     0.069 A 
HETATM   16 Cl   UNK N   1      33.224  21.019  -2.394  0.00  0.00    -0.081 Cl
HETATM   17  C   UNK N   1      31.821  20.893  -4.711  0.00  0.00     0.052 A 
HETATM   18  C   UNK N   1      30.763  21.193  -5.559  0.00  0.00     0.058 A 
HETATM   19 Cl   UNK N   1      30.691  20.384  -7.120  0.00  0.00    -0.082 Cl
HETATM   20  C   UNK N   1      29.766  22.101  -5.154  0.00  0.00     0.065 A 
HETATM   21 Cl   UNK N   1      28.416  22.395  -6.241  0.00  0.00    -0.082 Cl
BRANCH  14  22
HETATM   22  O   UNK N   1      30.984  22.860  -1.776  0.00  0.00    -0.358 OA
HETATM   23  H   UNK N   1      30.848  22.312  -1.028  0.00  0.00     0.217 HD
ENDBRANCH  14  22
ENDBRANCH   1  13
TORSDOF 4
ENDMDL
MODEL 3
REMARK VINA RESULT:      -6.5      3.600      5.991
REMARK  4 active torsions:
REMARK  status: ('A' for Active; 'I' for Inactive)
REMARK    1  A    between atoms: O_7  and  C_12 
REMARK    2  A    between atoms: O_8  and  C_13 
REMARK    3  A    between atoms: C_9  and  C_10 
REMARK    4  A    between atoms: C_9  and  C_11 
ROOT
HETATM    1  C   UNK N   1      33.691  17.437   7.049  0.00  0.00     0.086 C 
ENDROOT
BRANCH   1   2
HETATM    2  C   UNK N   1      34.493  16.343   7.761  0.00  0.00     0.004 A 
HETATM    3  C   UNK N   1      34.797  16.421   9.143  0.00  0.00     0.095 A 
HETATM    4  C   UNK N   1      35.589  15.437   9.754  0.00  0.00     0.069 A 
HETATM    5 Cl   UNK N   1      35.999  15.538  11.459  0.00  0.00    -0.081 Cl
HETATM    6  C   UNK N   1      36.092  14.378   9.008  0.00  0.00     0.052 A 
HETATM    7  C   UNK N   1      35.830  14.290   7.647  0.00  0.00     0.058 A 
HETATM    8 Cl   UNK N   1      36.530  12.950   6.749  0.00  0.00    -0.082 Cl
HETATM    9  C   UNK N   1      35.043  15.270   7.011  0.00  0.00     0.065 A 
HETATM   10 Cl   UNK N   1      34.806  15.153   5.273  0.00  0.00    -0.082 Cl
BRANCH   3  11
HETATM   11  O   UNK N   1      34.369  17.449   9.886  0.00  0.00    -0.358 OA
HETATM   12  H   UNK N   1      34.906  17.788  10.575  0.00  0.00     0.217 HD
ENDBRANCH   3  11
ENDBRANCH   1   2
BRANCH   1  13
HETATM   13  C   UNK N   1      32.184  17.282   6.831  0.00  0.00     0.004 A 
HETATM   14  C   UNK N   1      31.271  17.359   7.912  0.00  0.00     0.095 A 
HETATM   15  C   UNK N   1      29.889  17.280   7.682  0.00  0.00     0.069 A 
HETATM   16 Cl   UNK N   1      28.748  17.385   9.012  0.00  0.00    -0.081 Cl
HETATM   17  C   UNK N   1      29.399  17.149   6.390  0.00  0.00     0.052 A 
HETATM   18  C   UNK N   1      30.269  17.105   5.309  0.00  0.00     0.058 A 
HETATM   19 Cl   UNK N   1      29.584  16.997   3.692  0.00  0.00    -0.082 Cl
HETATM   20  C   UNK N   1      31.660  17.176   5.515  0.00  0.00     0.065 A 
HETATM   21 Cl   UNK N   1      32.712  17.180   4.107  0.00  0.00    -0.082 Cl
BRANCH  14  22
HETATM   22  O   UNK N   1      31.705  17.549   9.166  0.00  0.00    -0.358 OA
HETATM   23  H   UNK N   1      31.133  17.447   9.901  0.00  0.00     0.217 HD
ENDBRANCH  14  22
ENDBRANCH   1  13
TORSDOF 4
ENDMDL
MODEL 4
REMARK VINA RESULT:      -6.3     10.012     12.077
REMARK  4 active torsions:
REMARK  status: ('A' for Active; 'I' for Inactive)
REMARK    1  A    between atoms: O_7  and  C_12 
REMARK    2  A    between atoms: O_8  and  C_13 
REMARK    3  A    between atoms: C_9  and  C_10 
REMARK    4  A    between atoms: C_9  and  C_11 
ROOT
HETATM    1  C   UNK N   1      28.643  23.586  -3.350  0.00  0.00     0.086 C 
ENDROOT
BRANCH   1   2
HETATM    2  C   UNK N   1      29.739  22.611  -3.791  0.00  0.00     0.004 A 
HETATM    3  C   UNK N   1      30.840  22.297  -2.956  0.00  0.00     0.095 A 
HETATM    4  C   UNK N   1      31.862  21.451  -3.412  0.00  0.00     0.069 A 
HETATM    5 Cl   UNK N   1      33.246  21.080  -2.398  0.00  0.00    -0.081 Cl
HETATM    6  C   UNK N   1      31.810  20.917  -4.694  0.00  0.00     0.052 A 
HETATM    7  C   UNK N   1      30.755  21.227  -5.542  0.00  0.00     0.058 A 
HETATM    8 Cl   UNK N   1      30.769  20.554  -7.167  0.00  0.00    -0.082 Cl
HETATM    9  C   UNK N   1      29.722  22.079  -5.108  0.00  0.00     0.065 A 
HETATM   10 Cl   UNK N   1      28.451  22.501  -6.248  0.00  0.00    -0.082 Cl
BRANCH   3  11
HETATM   11  O   UNK N   1      30.948  22.827  -1.731  0.00  0.00    -0.358 OA
HETATM   12  H   UNK N   1      31.420  22.373  -1.061  0.00  0.00     0.217 HD
ENDBRANCH   3  11
ENDBRANCH   1   2
BRANCH   1  13
HETATM   13  C   UNK N   1      28.620  25.022  -3.880  0.00  0.00     0.004 A 
HETATM   14  C   UNK N   1      29.747  25.871  -3.761  0.00  0.00     0.095 A 
HETATM   15  C   UNK N   1      29.728  27.161  -4.311  0.00  0.00     0.069 A 
HETATM   16 Cl   UNK N   1      31.123  28.218  -4.178  0.00  0.00    -0.081 Cl
HETATM   17  C   UNK N   1      28.611  27.613  -5.003  0.00  0.00     0.052 A 
HETATM   18  C   UNK N   1      27.505  26.789  -5.166  0.00  0.00     0.058 A 
HETATM   19 Cl   UNK N   1      26.145  27.397  -6.102  0.00  0.00    -0.082 Cl
HETATM   20  C   UNK N   1      27.499  25.493  -4.615  0.00  0.00     0.065 A 
HETATM   21 Cl   UNK N   1      26.098  24.471  -4.906  0.00  0.00    -0.082 Cl
BRANCH  14  22
HETATM   22  O   UNK N   1      30.866  25.447  -3.155  0.00  0.00    -0.358 OA
HETATM   23  H   UNK N   1      30.924  24.589  -2.782  0.00  0.00     0.217 HD
ENDBRANCH  14  22
ENDBRANCH   1  13
TORSDOF 4
ENDMDL
MODEL 5
REMARK VINA RESULT:      -6.3      8.225      9.835
REMARK  4 active torsions:
REMARK  status: ('A' for Active; 'I' for Inactive)
REMARK    1  A    between atoms: O_7  and  C_12 
REMARK    2  A    between atoms: O_8  and  C_13 
REMARK    3  A    between atoms: C_9  and  C_10 
REMARK    4  A    between atoms: C_9  and  C_11 
ROOT
HETATM    1  C   UNK N   1      22.319  16.782   5.130  0.00  0.00     0.086 C 
ENDROOT
BRANCH   1   2
HETATM    2  C   UNK N   1      21.586  16.437   6.431  0.00  0.00     0.004 A 
HETATM    3  C   UNK N   1      20.897  17.422   7.183  0.00  0.00     0.095 A 
HETATM    4  C   UNK N   1      20.291  17.091   8.404  0.00  0.00     0.069 A 
HETATM    5 Cl   UNK N   1      19.461  18.308   9.359  0.00  0.00    -0.081 Cl
HETATM    6  C   UNK N   1      20.366  15.793   8.895  0.00  0.00     0.052 A 
HETATM    7  C   UNK N   1      21.055  14.814   8.191  0.00  0.00     0.058 A 
HETATM    8 Cl   UNK N   1      21.151  13.201   8.886  0.00  0.00    -0.082 Cl
HETATM    9  C   UNK N   1      21.678  15.125   6.966  0.00  0.00     0.065 A 
HETATM   10 Cl   UNK N   1      22.602  13.869   6.155  0.00  0.00    -0.082 Cl
BRANCH   3  11
HETATM   11  O   UNK N   1      20.841  18.693   6.765  0.00  0.00    -0.358 OA
HETATM   12  H   UNK N   1      20.783  18.887   5.850  0.00  0.00     0.217 HD
ENDBRANCH   3  11
ENDBRANCH   1   2
BRANCH   1  13
HETATM   13  C   UNK N   1      21.536  17.175   3.876  0.00  0.00     0.004 A 
HETATM   14  C   UNK N   1      21.402  18.530   3.485  0.00  0.00     0.095 A 
HETATM   15  C   UNK N   1      20.735  18.865   2.296  0.00  0.00     0.069 A 
HETATM   16 Cl   UNK N   1      20.572  20.540   1.797  0.00  0.00    -0.081 Cl
HETATM   17  C   UNK N   1      20.221  17.870   1.475  0.00  0.00     0.052 A 
HETATM   18  C   UNK N   1      20.369  16.531   1.816  0.00  0.00     0.058 A 
HETATM   19 Cl   UNK N   1      19.747  15.316   0.706  0.00  0.00    -0.082 Cl
HETATM   20  C   UNK N   1      21.027  16.172   3.008  0.00  0.00     0.065 A 
HETATM   21 Cl   UNK N   1      21.241  14.463   3.358  0.00  0.00    -0.082 Cl
BRANCH  14  22
HETATM   22  O   UNK N   1      21.940  19.514   4.219  0.00  0.00    -0.358 OA
HETATM   23  H   UNK N   1      21.883  19.512   5.155  0.00  0.00     0.217 HD
ENDBRANCH  14  22
ENDBRANCH   1  13
TORSDOF 4
ENDMDL
MODEL 6
REMARK VINA RESULT:      -6.3     10.017     12.011
REMARK  4 active torsions:
REMARK  status: ('A' for Active; 'I' for Inactive)
REMARK    1  A    between atoms: O_7  and  C_12 
REMARK    2  A    between atoms: O_8  and  C_13 
REMARK    3  A    between atoms: C_9  and  C_10 
REMARK    4  A    between atoms: C_9  and  C_11 
ROOT
HETATM    1  C   UNK N   1      28.505  23.788  -3.136  0.00  0.00     0.086 C 
ENDROOT
BRANCH   1   2
HETATM    2  C   UNK N   1      29.563  22.817  -3.669  0.00  0.00     0.004 A 
HETATM    3  C   UNK N   1      30.688  22.439  -2.893  0.00  0.00     0.095 A 
HETATM    4  C   UNK N   1      31.675  21.600  -3.431  0.00  0.00     0.069 A 
HETATM    5 Cl   UNK N   1      33.088  21.150  -2.490  0.00  0.00    -0.081 Cl
HETATM    6  C   UNK N   1      31.566  21.137  -4.736  0.00  0.00     0.052 A 
HETATM    7  C   UNK N   1      30.488  21.511  -5.527  0.00  0.00     0.058 A 
HETATM    8 Cl   UNK N   1      30.429  20.925  -7.185  0.00  0.00    -0.082 Cl
HETATM    9  C   UNK N   1      29.488  22.357  -5.010  0.00  0.00     0.065 A 
HETATM   10 Cl   UNK N   1      28.186  22.862  -6.078  0.00  0.00    -0.082 Cl
BRANCH   3  11
HETATM   11  O   UNK N   1      30.851  22.901  -1.646  0.00  0.00    -0.358 OA
HETATM   12  H   UNK N   1      30.106  23.133  -1.128  0.00  0.00     0.217 HD
ENDBRANCH   3  11
ENDBRANCH   1   2
BRANCH   1  13
HETATM   13  C   UNK N   1      28.170  25.071  -3.900  0.00  0.00     0.004 A 
HETATM   14  C   UNK N   1      26.846  25.360  -4.312  0.00  0.00     0.095 A 
HETATM   15  C   UNK N   1      26.549  26.573  -4.953  0.00  0.00     0.069 A 
HETATM   16 Cl   UNK N   1      24.911  26.947  -5.459  0.00  0.00    -0.081 Cl
HETATM   17  C   UNK N   1      27.546  27.515  -5.169  0.00  0.00     0.052 A 
HETATM   18  C   UNK N   1      28.847  27.272  -4.745  0.00  0.00     0.058 A 
HETATM   19 Cl   UNK N   1      30.052  28.529  -4.995  0.00  0.00    -0.082 Cl
HETATM   20  C   UNK N   1      29.169  26.060  -4.106  0.00  0.00     0.065 A 
HETATM   21 Cl   UNK N   1      30.815  25.833  -3.533  0.00  0.00    -0.082 Cl
BRANCH  14  22
HETATM   22  O   UNK N   1      25.846  24.503  -4.063  0.00  0.00    -0.358 OA
HETATM   23  H   UNK N   1      25.748  24.097  -3.224  0.00  0.00     0.217 HD
ENDBRANCH  14  22
ENDBRANCH   1  13
TORSDOF 4
ENDMDL
MODEL 7
REMARK VINA RESULT:      -6.2     10.050     13.104
REMARK  4 active torsions:
REMARK  status: ('A' for Active; 'I' for Inactive)
REMARK    1  A    between atoms: O_7  and  C_12 
REMARK    2  A    between atoms: O_8  and  C_13 
REMARK    3  A    between atoms: C_9  and  C_10 
REMARK    4  A    between atoms: C_9  and  C_11 
ROOT
HETATM    1  C   UNK N   1      28.521  23.793  -3.146  0.00  0.00     0.086 C 
ENDROOT
BRANCH   1   2
HETATM    2  C   UNK N   1      28.124  25.109  -3.822  0.00  0.00     0.004 A 
HETATM    3  C   UNK N   1      26.803  25.347  -4.276  0.00  0.00     0.095 A 
HETATM    4  C   UNK N   1      26.485  26.535  -4.952  0.00  0.00     0.069 A 
HETATM    5 Cl   UNK N   1      24.858  26.827  -5.546  0.00  0.00    -0.081 Cl
HETATM    6  C   UNK N   1      27.465  27.490  -5.190  0.00  0.00     0.052 A 
HETATM    7  C   UNK N   1      28.773  27.273  -4.778  0.00  0.00     0.058 A 
HETATM    8 Cl   UNK N   1      29.977  28.501  -5.147  0.00  0.00    -0.082 Cl
HETATM    9  C   UNK N   1      29.117  26.085  -4.104  0.00  0.00     0.065 A 
HETATM   10 Cl   UNK N   1      30.802  25.826  -3.673  0.00  0.00    -0.082 Cl
BRANCH   3  11
HETATM   11  O   UNK N   1      25.840  24.431  -4.105  0.00  0.00    -0.358 OA
HETATM   12  H   UNK N   1      25.414  24.052  -4.848  0.00  0.00     0.217 HD
ENDBRANCH   3  11
ENDBRANCH   1   2
BRANCH   1  13
HETATM   13  C   UNK N   1      29.640  22.925  -3.726  0.00  0.00     0.004 A 
HETATM   14  C   UNK N   1      30.738  22.511  -2.934  0.00  0.00     0.095 A 
HETATM   15  C   UNK N   1      31.720  21.662  -3.467  0.00  0.00     0.069 A 
HETATM   16 Cl   UNK N   1      33.080  21.133  -2.492  0.00  0.00    -0.081 Cl
HETATM   17  C   UNK N   1      31.612  21.196  -4.771  0.00  0.00     0.052 A 
HETATM   18  C   UNK N   1      30.528  21.559  -5.560  0.00  0.00     0.058 A 
HETATM   19 Cl   UNK N   1      30.418  20.890  -7.183  0.00  0.00    -0.082 Cl
HETATM   20  C   UNK N   1      29.534  22.416  -5.049  0.00  0.00     0.065 A 
HETATM   21 Cl   UNK N   1      28.152  22.790  -6.068  0.00  0.00    -0.082 Cl
BRANCH  14  22
HETATM   22  O   UNK N   1      30.842  22.888  -1.652  0.00  0.00    -0.358 OA
HETATM   23  H   UNK N   1      30.734  22.274  -0.952  0.00  0.00     0.217 HD
ENDBRANCH  14  22
ENDBRANCH   1  13
TORSDOF 4
ENDMDL
MODEL 8
REMARK VINA RESULT:      -6.1      3.630      8.090
REMARK  4 active torsions:
REMARK  status: ('A' for Active; 'I' for Inactive)
REMARK    1  A    between atoms: O_7  and  C_12 
REMARK    2  A    between atoms: O_8  and  C_13 
REMARK    3  A    between atoms: C_9  and  C_10 
REMARK    4  A    between atoms: C_9  and  C_11 
ROOT
HETATM    1  C   UNK N   1      33.931  17.469   7.065  0.00  0.00     0.086 C 
ENDROOT
BRANCH   1   2
HETATM    2  C   UNK N   1      32.419  17.408   6.826  0.00  0.00     0.004 A 
HETATM    3  C   UNK N   1      31.492  17.415   7.899  0.00  0.00     0.095 A 
HETATM    4  C   UNK N   1      30.116  17.292   7.652  0.00  0.00     0.069 A 
HETATM    5 Cl   UNK N   1      28.962  17.267   8.975  0.00  0.00    -0.081 Cl
HETATM    6  C   UNK N   1      29.647  17.153   6.353  0.00  0.00     0.052 A 
HETATM    7  C   UNK N   1      30.533  17.119   5.284  0.00  0.00     0.058 A 
HETATM    8 Cl   UNK N   1      29.879  16.899   3.666  0.00  0.00    -0.082 Cl
HETATM    9  C   UNK N   1      31.919  17.234   5.508  0.00  0.00     0.065 A 
HETATM   10 Cl   UNK N   1      33.002  17.107   4.129  0.00  0.00    -0.082 Cl
BRANCH   3  11
HETATM   11  O   UNK N   1      31.909  17.501   9.168  0.00  0.00    -0.358 OA
HETATM   12  H   UNK N   1      32.774  17.223   9.400  0.00  0.00     0.217 HD
ENDBRANCH   3  11
ENDBRANCH   1   2
BRANCH   1  13
HETATM   13  C   UNK N   1      34.646  16.344   7.817  0.00  0.00     0.004 A 
HETATM   14  C   UNK N   1      34.883  16.424   9.211  0.00  0.00     0.095 A 
HETATM   15  C   UNK N   1      35.481  15.354   9.894  0.00  0.00     0.069 A 
HETATM   16 Cl   UNK N   1      35.771  15.437  11.623  0.00  0.00    -0.081 Cl
HETATM   17  C   UNK N   1      35.825  14.192   9.214  0.00  0.00     0.052 A 
HETATM   18  C   UNK N   1      35.572  14.073   7.854  0.00  0.00     0.058 A 
HETATM   19 Cl   UNK N   1      35.977  12.555   7.062  0.00  0.00    -0.082 Cl
HETATM   20  C   UNK N   1      34.980  15.137   7.147  0.00  0.00     0.065 A 
HETATM   21 Cl   UNK N   1      34.624  14.907   5.441  0.00  0.00    -0.082 Cl
BRANCH  14  22
HETATM   22  O   UNK N   1      34.507  17.503   9.912  0.00  0.00    -0.358 OA
HETATM   23  H   UNK N   1      34.935  18.331   9.801  0.00  0.00     0.217 HD
ENDBRANCH  14  22
ENDBRANCH   1  13
TORSDOF 4
ENDMDL
MODEL 9
REMARK VINA RESULT:      -6.1      5.222      9.408
REMARK  4 active torsions:
REMARK  status: ('A' for Active; 'I' for Inactive)
REMARK    1  A    between atoms: O_7  and  C_12 
REMARK    2  A    between atoms: O_8  and  C_13 
REMARK    3  A    between atoms: C_9  and  C_10 
REMARK    4  A    between atoms: C_9  and  C_11 
ROOT
HETATM    1  C   UNK N   1      33.474  13.780   8.969  0.00  0.00     0.086 C 
ENDROOT
BRANCH   1   2
HETATM    2  C   UNK N   1      32.936  15.125   8.470  0.00  0.00     0.004 A 
HETATM    3  C   UNK N   1      31.894  15.810   9.144  0.00  0.00     0.095 A 
HETATM    4  C   UNK N   1      31.377  17.007   8.627  0.00  0.00     0.069 A 
HETATM    5 Cl   UNK N   1      30.065  17.848   9.438  0.00  0.00    -0.081 Cl
HETATM    6  C   UNK N   1      31.875  17.531   7.441  0.00  0.00     0.052 A 
HETATM    7  C   UNK N   1      32.879  16.869   6.747  0.00  0.00     0.058 A 
HETATM    8 Cl   UNK N   1      33.437  17.563   5.230  0.00  0.00    -0.082 Cl
HETATM    9  C   UNK N   1      33.409  15.663   7.243  0.00  0.00     0.065 A 
HETATM   10 Cl   UNK N   1      34.622  14.826   6.285  0.00  0.00    -0.082 Cl
BRANCH   3  11
HETATM   11  O   UNK N   1      31.357  15.312  10.266  0.00  0.00    -0.358 OA
HETATM   12  H   UNK N   1      30.550  15.658  10.595  0.00  0.00     0.217 HD
ENDBRANCH   3  11
ENDBRANCH   1   2
BRANCH   1  13
HETATM   13  C   UNK N   1      34.774  13.712   9.773  0.00  0.00     0.004 A 
HETATM   14  C   UNK N   1      34.864  14.253  11.079  0.00  0.00     0.095 A 
HETATM   15  C   UNK N   1      36.045  14.122  11.824  0.00  0.00     0.069 A 
HETATM   16 Cl   UNK N   1      36.164  14.780  13.447  0.00  0.00    -0.081 Cl
HETATM   17  C   UNK N   1      37.134  13.438  11.299  0.00  0.00     0.052 A 
HETATM   18  C   UNK N   1      37.062  12.867  10.035  0.00  0.00     0.058 A 
HETATM   19 Cl   UNK N   1      38.453  11.962   9.450  0.00  0.00    -0.082 Cl
HETATM   20  C   UNK N   1      35.889  12.992   9.266  0.00  0.00     0.065 A 
HETATM   21 Cl   UNK N   1      35.831  12.196   7.700  0.00  0.00    -0.082 Cl
BRANCH  14  22
HETATM   22  O   UNK N   1      33.813  14.865  11.642  0.00  0.00    -0.358 OA
HETATM   23  H   UNK N   1      33.093  14.377  11.994  0.00  0.00     0.217 HD
ENDBRANCH  14  22
ENDBRANCH   1  13
TORSDOF 4
ENDMDL
