MODEL 1
REMARK VINA RESULT:      -8.8      0.000      0.000
REMARK WARNING: 32 MAX_TORS EXCEEDED!!!
REMARK  40 active torsions:
REMARK  status: ('A' for Active; 'I' for Inactive)
REMARK    1  A    between atoms: C_13  and  C_8 
REMARK    2  A    between atoms: C_13  and  C_11 
REMARK    3  A    between atoms: C_15  and  C_11 
REMARK    4  A    between atoms: C_11  and  N_12 
REMARK       I    between atoms: C_102  and  N_12 
REMARK       I    between atoms: C_15  and  N_14 
REMARK    5  A    between atoms: C_16  and  N_14 
REMARK    6  A    between atoms: C_16  and  C_19 
REMARK    7  A    between atoms: C_17  and  C_16 
REMARK       I    between atoms: N_21  and  C_17 
REMARK    8  A    between atoms: C_20  and  C_19 
REMARK    9  A    between atoms: C_27  and  N_21 
REMARK   10  A    between atoms: C_29  and  C_27 
REMARK   11  A    between atoms: C_27  and  C_28 
REMARK   12  A    between atoms: C_31  and  C_28 
REMARK       I    between atoms: N_30  and  C_29 
REMARK   13  A    between atoms: C_38  and  N_30 
REMARK   14  A    between atoms: C_39  and  C_38 
REMARK   15  A    between atoms: C_38  and  C_50 
REMARK       I    between atoms: N_41  and  C_39 
REMARK   16  A    between atoms: C_42  and  N_41 
REMARK   17  A    between atoms: C_44  and  C_42 
REMARK   18  A    between atoms: C_42  and  C_43 
REMARK   19  A    between atoms: C_46  and  C_43 
REMARK       I    between atoms: N_45  and  C_44 
REMARK   20  A    between atoms: C_59  and  N_45 
REMARK   21  A    between atoms: O_51  and  C_50 
REMARK   22  A    between atoms: O_58  and  C_54 
REMARK   23  A    between atoms: C_60  and  C_59 
REMARK   24  A    between atoms: C_59  and  C_74 
REMARK       I    between atoms: N_62  and  C_60 
REMARK   25  A    between atoms: C_63  and  N_62 
REMARK   26  A    between atoms: C_65  and  C_63 
REMARK   27  A    between atoms: C_63  and  C_64 
REMARK   28  A    between atoms: C_73  and  C_64 
REMARK       I    between atoms: N_66  and  C_65 
REMARK   29  A    between atoms: C_67  and  N_66 
REMARK   30  A    between atoms: C_68  and  C_67 
REMARK   31  A    between atoms: C_67  and  C_82 
REMARK       I    between atoms: N_70  and  C_68 
REMARK   32  A    between atoms: C_90  and  C_72 
REMARK       I    between atoms: N_94  and  C_72 
REMARK   33  A    between atoms: C_75  and  C_74 
REMARK   34  A    between atoms: C_76  and  C_75 
REMARK   35  A    between atoms: N_77  and  C_76 
REMARK       I    between atoms: C_78  and  N_77 
REMARK       I    between atoms: N_80  and  C_78 
REMARK   36  A    between atoms: C_83  and  C_82 
REMARK   37  A    between atoms: C_84  and  C_83 
REMARK   38  A    between atoms: N_85  and  C_84 
REMARK       I    between atoms: C_86  and  N_85 
REMARK       I    between atoms: N_89  and  C_86 
REMARK   39  A    between atoms: C_95  and  N_94 
REMARK   40  A    between atoms: C_96  and  C_95 
REMARK       I    between atoms: N_99  and  C_96 
ROOT
HETATM    1  C   UNK N   1      28.640  16.113   4.927  0.00  0.00     0.180 C 
ENDROOT
BRANCH   1   2
HETATM    2  N   UNK N   1      29.526  15.154   4.308  0.00  0.00    -0.346 N 
HETATM    3  C   UNK N   1      30.421  14.335   4.950  0.00  0.00     0.243 C 
HETATM    4  O   UNK N   1      30.474  14.252   6.167  0.00  0.00    -0.271 OA
HETATM    5  H   UNK N   1      29.484  15.081   3.326  0.00  0.00     0.163 HD
BRANCH   3   6
HETATM    6  C   UNK N   1      31.199  13.376   4.136  0.00  0.00     0.200 C 
BRANCH   6   7
HETATM    7  N   UNK N   1      32.503  13.499   4.714  0.00  0.00    -0.344 N 
HETATM    8  C   UNK N   1      33.373  14.390   4.179  0.00  0.00     0.241 C 
HETATM    9  O   UNK N   1      33.277  14.724   3.004  0.00  0.00    -0.271 OA
HETATM   10  H   UNK N   1      32.764  12.945   5.484  0.00  0.00     0.163 HD
BRANCH   8  11
HETATM   11  C   UNK N   1      34.171  15.225   5.120  0.00  0.00     0.180 C 
BRANCH  11  12
HETATM   12  N   UNK N   1      35.503  14.782   5.467  0.00  0.00    -0.346 N 
HETATM   13  C   UNK N   1      35.903  14.377   6.696  0.00  0.00     0.241 C 
HETATM   14  O   UNK N   1      37.048  13.979   6.837  0.00  0.00    -0.271 OA
HETATM   15  H   UNK N   1      36.177  14.776   4.749  0.00  0.00     0.163 HD
BRANCH  13  16
HETATM   16  C   UNK N   1      34.950  14.344   7.867  0.00  0.00     0.180 C 
BRANCH  16  17
HETATM   17  N   UNK N   1      34.730  12.991   8.308  0.00  0.00    -0.346 N 
HETATM   18  C   UNK N   1      33.539  12.351   8.213  0.00  0.00     0.241 C 
HETATM   19  O   UNK N   1      32.565  12.894   7.713  0.00  0.00    -0.271 OA
HETATM   20  H   UNK N   1      35.489  12.503   8.701  0.00  0.00     0.163 HD
BRANCH  18  21
HETATM   21  C   UNK N   1      33.442  10.949   8.716  0.00  0.00     0.180 C 
BRANCH  21  22
HETATM   22  C   UNK N   1      34.836  10.341   8.961  0.00  0.00     0.073 C 
BRANCH  22  23
HETATM   23  C   UNK N   1      35.150  10.030  10.406  0.00  0.00    -0.055 A 
HETATM   24  C   UNK N   1      34.347  10.583  11.411  0.00  0.00     0.019 A 
HETATM   25  C   UNK N   1      34.569  10.251  12.752  0.00  0.00    -0.025 A 
HETATM   26  C   UNK N   1      33.775  10.809  13.757  0.00  0.00     0.012 A 
HETATM   27  C   UNK N   1      35.596   9.339  13.093  0.00  0.00    -0.026 A 
HETATM   28  C   UNK N   1      33.993  10.461  15.095  0.00  0.00     0.001 A 
HETATM   29  C   UNK N   1      35.001   9.549  15.429  0.00  0.00     0.001 A 
HETATM   30  C   UNK N   1      35.802   8.990  14.430  0.00  0.00     0.012 A 
HETATM   31  C   UNK N   1      36.402   8.796  12.093  0.00  0.00     0.013 A 
HETATM   32  C   UNK N   1      36.186   9.146  10.758  0.00  0.00     0.008 A 
ENDBRANCH  22  23
ENDBRANCH  21  22
BRANCH  21  33
HETATM   33  N   UNK N   1      32.699  10.149   7.764  0.00  0.00    -0.348 N 
HETATM   34  C   UNK N   1      31.864   9.139   8.132  0.00  0.00     0.214 C 
HETATM   35  O   UNK N   1      31.222   8.550   7.280  0.00  0.00    -0.274 OA
HETATM   36  C   UNK N   1      31.712   8.728   9.566  0.00  0.00     0.117 C 
HETATM   37  H   UNK N   1      32.803  10.345   6.804  0.00  0.00     0.163 HD
ENDBRANCH  21  33
ENDBRANCH  18  21
ENDBRANCH  16  17
BRANCH  16  38
HETATM   38  C   UNK N   1      35.361  15.242   9.039  0.00  0.00     0.073 C 
BRANCH  38  39
HETATM   39  C   UNK N   1      35.827  14.497  10.254  0.00  0.00    -0.056 A 
HETATM   40  C   UNK N   1      35.078  14.592  11.432  0.00  0.00     0.009 A 
HETATM   41  C   UNK N   1      35.500  13.934  12.591  0.00  0.00     0.024 A 
HETATM   42  C   UNK N   1      36.672  13.174  12.578  0.00  0.00     0.034 A 
HETATM   43  C   UNK N   1      37.434  13.086  11.407  0.00  0.00     0.024 A 
HETATM   44 Cl   UNK N   1      37.173  12.317  14.020  0.00  0.00    -0.084 Cl
HETATM   45  C   UNK N   1      37.020  13.757  10.250  0.00  0.00     0.009 A 
ENDBRANCH  38  39
ENDBRANCH  16  38
ENDBRANCH  13  16
ENDBRANCH  11  12
BRANCH  11  46
HETATM   46  C   UNK N   1      33.952  16.735   5.102  0.00  0.00     0.074 C 
BRANCH  46  47
HETATM   47  C   UNK N   1      33.202  17.218   6.310  0.00  0.00    -0.040 A 
HETATM   48  C   UNK N   1      31.834  16.963   6.411  0.00  0.00     0.094 A 
HETATM   49  N   UNK N   1      31.137  17.385   7.500  0.00  0.00    -0.375 N 
HETATM   50  C   UNK N   1      31.741  18.059   8.516  0.00  0.00     0.087 A 
ATOM     51  HN  UNK N   1      30.136  17.193   7.556  1.00  0.00     0.164 HD
HETATM   52  C   UNK N   1      33.108  18.330   8.461  0.00  0.00     0.018 A 
HETATM   53  C   UNK N   1      33.840  17.904   7.353  0.00  0.00     0.010 A 
ENDBRANCH  46  47
ENDBRANCH  11  46
ENDBRANCH   8  11
ENDBRANCH   6   7
BRANCH   6  54
HETATM   54  C   UNK N   1      30.625  11.981   4.334  0.00  0.00     0.199 C 
BRANCH  54  55
HETATM   55  O   UNK N   1      31.165  11.402   5.488  0.00  0.00    -0.398 OA
HETATM   56  H   UNK N   1      31.283  10.447   5.602  0.00  0.00     0.209 HD
ENDBRANCH  54  55
ENDBRANCH   6  54
ENDBRANCH   3   6
ENDBRANCH   1   2
BRANCH   1  57
HETATM   57  C   UNK N   1      27.269  15.582   4.846  0.00  0.00     0.241 C 
HETATM   58  N   UNK N   1      26.447  16.163   3.943  0.00  0.00    -0.346 N 
HETATM   59  H   UNK N   1      26.882  16.677   3.225  0.00  0.00     0.163 HD
HETATM   60  O   UNK N   1      26.886  14.716   5.618  0.00  0.00    -0.271 OA
BRANCH  58  61
HETATM   61  C   UNK N   1      25.032  16.118   3.909  0.00  0.00     0.176 C 
BRANCH  61  62
HETATM   62  C   UNK N   1      24.682  15.094   2.907  0.00  0.00     0.241 C 
HETATM   63  N   UNK N   1      23.598  14.333   3.149  0.00  0.00    -0.346 N 
HETATM   64  H   UNK N   1      22.738  14.747   3.394  0.00  0.00     0.163 HD
HETATM   65  O   UNK N   1      25.444  14.836   1.988  0.00  0.00    -0.271 OA
BRANCH  63  66
HETATM   66  C   UNK N   1      23.717  12.931   3.043  0.00  0.00     0.177 C 
BRANCH  66  67
HETATM   67  C   UNK N   1      23.864  12.439   4.450  0.00  0.00     0.241 C 
HETATM   68  N   UNK N   1      22.830  12.536   5.326  0.00  0.00    -0.346 N 
HETATM   69  H   UNK N   1      22.219  13.307   5.271  0.00  0.00     0.163 HD
HETATM   70  O   UNK N   1      24.868  11.807   4.746  0.00  0.00    -0.271 OA
BRANCH  68  71
HETATM   71  C   UNK N   1      22.610  11.525   6.335  0.00  0.00     0.176 C 
BRANCH  71  72
HETATM   72  C   UNK N   1      21.661  12.136   7.337  0.00  0.00     0.243 C 
HETATM   73  N   UNK N   1      21.899  12.123   8.663  0.00  0.00    -0.337 N 
HETATM   74  C   UNK N   1      21.045  12.815   9.577  0.00  0.00     0.179 A 
HETATM   75  C   UNK N   1      23.032  11.463   9.249  0.00  0.00     0.127 A 
HETATM   76  C   UNK N   1      21.605  12.517  10.951  0.00  0.00     0.037 A 
HETATM   77  C   UNK N   1      22.918  11.761  10.734  0.00  0.00     0.022 A 
HETATM   78  O   UNK N   1      20.654  12.727   6.937  0.00  0.00    -0.271 OA
BRANCH  74  79
HETATM   79  C   UNK N   1      21.072  14.297   9.287  0.00  0.00     0.241 C 
HETATM   80  O   UNK N   1      22.128  14.913   9.368  0.00  0.00    -0.271 OA
HETATM   81  N   UNK N   1      19.933  14.933   8.916  0.00  0.00    -0.346 N 
HETATM   82  H   UNK N   1      19.115  14.405   8.773  0.00  0.00     0.163 HD
BRANCH  81  83
HETATM   83  C   UNK N   1      19.887  16.366   8.724  0.00  0.00     0.172 C 
HETATM   84  C   UNK N   1      20.180  16.701   7.269  0.00  0.00     0.042 C 
BRANCH  83  85
HETATM   85  C   UNK N   1      18.539  16.882   9.169  0.00  0.00     0.237 C 
HETATM   86  O   UNK N   1      17.582  16.126   9.190  0.00  0.00    -0.271 OA
HETATM   87  N   UNK N   1      18.372  18.172   9.526  0.00  0.00    -0.368 N 
HETATM   88  H   UNK N   1      19.080  18.819   9.744  0.00  0.00     0.159 HD
HETATM   89  H   UNK N   1      17.444  18.500   9.573  0.00  0.00     0.159 HD
ENDBRANCH  83  85
ENDBRANCH  81  83
ENDBRANCH  74  79
ENDBRANCH  71  72
BRANCH  71  90
HETATM   90  C   UNK N   1      22.020  10.221   5.798  0.00  0.00     0.036 C 
BRANCH  90  91
HETATM   91  C   UNK N   1      22.845   8.991   6.127  0.00  0.00     0.023 C 
BRANCH  91  92
HETATM   92  C   UNK N   1      23.602   8.562   4.876  0.00  0.00     0.138 C 
BRANCH  92  93
HETATM   93  N   UNK N   1      25.021   8.750   5.066  0.00  0.00    -0.227 N 
HETATM   94  C   UNK N   1      25.896   7.669   5.345  0.00  0.00     0.665 C 
HETATM   95  N   UNK N   1      25.437   6.486   5.530  0.00  0.00    -0.235 N 
HETATM   96  N   UNK N   1      27.290   7.891   5.368  0.00  0.00    -0.235 N 
HETATM   97  H   UNK N   1      25.747   5.573   5.726  0.00  0.00     0.174 HD
ATOM     98  HN  UNK N   1      24.420   6.494   5.449  1.00  0.00     0.174 HD
HETATM   99  H   UNK N   1      27.723   8.411   4.654  0.00  0.00     0.174 HD
HETATM  100  H   UNK N   1      27.831   7.522   6.102  0.00  0.00     0.174 HD
HETATM  101  H   UNK N   1      25.394   9.659   5.000  0.00  0.00     0.177 HD
ENDBRANCH  92  93
ENDBRANCH  91  92
ENDBRANCH  90  91
ENDBRANCH  71  90
ENDBRANCH  68  71
ENDBRANCH  66  67
BRANCH  66 102
HETATM  102  C   UNK N   1      22.536  12.295   2.326  0.00  0.00     0.038 C 
BRANCH 102 103
HETATM  103  C   UNK N   1      22.243  13.036   1.027  0.00  0.00    -0.020 C 
HETATM  104  C   UNK N   1      23.233  12.681  -0.069  0.00  0.00     0.009 C 
HETATM  105  C   UNK N   1      20.850  12.676   0.557  0.00  0.00     0.009 C 
ENDBRANCH 102 103
ENDBRANCH  66 102
ENDBRANCH  63  66
ENDBRANCH  61  62
BRANCH  61 106
HETATM  106  C   UNK N   1      24.422  17.478   3.555  0.00  0.00     0.036 C 
BRANCH 106 107
HETATM  107  C   UNK N   1      23.932  18.189   4.799  0.00  0.00     0.022 C 
BRANCH 107 108
HETATM  108  C   UNK N   1      22.450  18.507   4.670  0.00  0.00     0.124 C 
BRANCH 108 109
HETATM  109  N   UNK N   1      22.124  18.993   3.348  0.00  0.00    -0.343 N 
HETATM  110  C   UNK N   1      21.154  19.916   3.128  0.00  0.00     0.313 C 
HETATM  111  O   UNK N   1      20.494  20.360   4.055  0.00  0.00    -0.248 OA
HETATM  112  N   UNK N   1      20.925  20.359   1.877  0.00  0.00    -0.352 N 
HETATM  113  H   UNK N   1      21.035  19.752   1.110  0.00  0.00     0.160 HD
HETATM  114  H   UNK N   1      20.648  21.292   1.730  0.00  0.00     0.160 HD
HETATM  115  H   UNK N   1      22.625  18.641   2.577  0.00  0.00     0.164 HD
ENDBRANCH 108 109
ENDBRANCH 107 108
ENDBRANCH 106 107
ENDBRANCH  61 106
ENDBRANCH  58  61
ENDBRANCH   1  57
BRANCH   1 116
HETATM  116  C   UNK N   1      28.695  17.466   4.193  0.00  0.00     0.073 C 
BRANCH 116 117
HETATM  117  C   UNK N   1      28.062  18.639   4.904  0.00  0.00    -0.056 A 
HETATM  118  C   UNK N   1      27.439  19.635   4.140  0.00  0.00     0.010 A 
HETATM  119  C   UNK N   1      26.856  20.745   4.761  0.00  0.00     0.037 A 
HETATM  120  C   UNK N   1      26.901  20.873   6.151  0.00  0.00     0.065 A 
HETATM  121  C   UNK N   1      27.524  19.886   6.922  0.00  0.00     0.037 A 
HETATM  122  C   UNK N   1      28.101  18.772   6.302  0.00  0.00     0.010 A 
BRANCH 120 123
HETATM  123  O   UNK N   1      26.346  21.942   6.747  0.00  0.00    -0.361 OA
HETATM  124  H   UNK N   1      26.764  22.778   6.699  0.00  0.00     0.217 HD
ENDBRANCH 120 123
ENDBRANCH 116 117
ENDBRANCH   1 116
TORSDOF 40
ENDMDL
MODEL 2
REMARK VINA RESULT:      -8.4      2.606      5.674
REMARK WARNING: 32 MAX_TORS EXCEEDED!!!
REMARK  40 active torsions:
REMARK  status: ('A' for Active; 'I' for Inactive)
REMARK    1  A    between atoms: C_13  and  C_8 
REMARK    2  A    between atoms: C_13  and  C_11 
REMARK    3  A    between atoms: C_15  and  C_11 
REMARK    4  A    between atoms: C_11  and  N_12 
REMARK       I    between atoms: C_102  and  N_12 
REMARK       I    between atoms: C_15  and  N_14 
REMARK    5  A    between atoms: C_16  and  N_14 
REMARK    6  A    between atoms: C_16  and  C_19 
REMARK    7  A    between atoms: C_17  and  C_16 
REMARK       I    between atoms: N_21  and  C_17 
REMARK    8  A    between atoms: C_20  and  C_19 
REMARK    9  A    between atoms: C_27  and  N_21 
REMARK   10  A    between atoms: C_29  and  C_27 
REMARK   11  A    between atoms: C_27  and  C_28 
REMARK   12  A    between atoms: C_31  and  C_28 
REMARK       I    between atoms: N_30  and  C_29 
REMARK   13  A    between atoms: C_38  and  N_30 
REMARK   14  A    between atoms: C_39  and  C_38 
REMARK   15  A    between atoms: C_38  and  C_50 
REMARK       I    between atoms: N_41  and  C_39 
REMARK   16  A    between atoms: C_42  and  N_41 
REMARK   17  A    between atoms: C_44  and  C_42 
REMARK   18  A    between atoms: C_42  and  C_43 
REMARK   19  A    between atoms: C_46  and  C_43 
REMARK       I    between atoms: N_45  and  C_44 
REMARK   20  A    between atoms: C_59  and  N_45 
REMARK   21  A    between atoms: O_51  and  C_50 
REMARK   22  A    between atoms: O_58  and  C_54 
REMARK   23  A    between atoms: C_60  and  C_59 
REMARK   24  A    between atoms: C_59  and  C_74 
REMARK       I    between atoms: N_62  and  C_60 
REMARK   25  A    between atoms: C_63  and  N_62 
REMARK   26  A    between atoms: C_65  and  C_63 
REMARK   27  A    between atoms: C_63  and  C_64 
REMARK   28  A    between atoms: C_73  and  C_64 
REMARK       I    between atoms: N_66  and  C_65 
REMARK   29  A    between atoms: C_67  and  N_66 
REMARK   30  A    between atoms: C_68  and  C_67 
REMARK   31  A    between atoms: C_67  and  C_82 
REMARK       I    between atoms: N_70  and  C_68 
REMARK   32  A    between atoms: C_90  and  C_72 
REMARK       I    between atoms: N_94  and  C_72 
REMARK   33  A    between atoms: C_75  and  C_74 
REMARK   34  A    between atoms: C_76  and  C_75 
REMARK   35  A    between atoms: N_77  and  C_76 
REMARK       I    between atoms: C_78  and  N_77 
REMARK       I    between atoms: N_80  and  C_78 
REMARK   36  A    between atoms: C_83  and  C_82 
REMARK   37  A    between atoms: C_84  and  C_83 
REMARK   38  A    between atoms: N_85  and  C_84 
REMARK       I    between atoms: C_86  and  N_85 
REMARK       I    between atoms: N_89  and  C_86 
REMARK   39  A    between atoms: C_95  and  N_94 
REMARK   40  A    between atoms: C_96  and  C_95 
REMARK       I    between atoms: N_99  and  C_96 
ROOT
HETATM    1  C   UNK N   1      26.680  17.041   4.639  0.00  0.00     0.180 C 
ENDROOT
BRANCH   1   2
HETATM    2  N   UNK N   1      27.248  17.022   5.967  0.00  0.00    -0.346 N 
HETATM    3  C   UNK N   1      28.351  17.719   6.393  0.00  0.00     0.243 C 
HETATM    4  O   UNK N   1      28.912  18.547   5.693  0.00  0.00    -0.271 OA
HETATM    5  H   UNK N   1      26.801  16.451   6.633  0.00  0.00     0.163 HD
BRANCH   3   6
HETATM    6  C   UNK N   1      28.740  17.608   7.816  0.00  0.00     0.200 C 
BRANCH   6   7
HETATM    7  N   UNK N   1      30.158  17.796   7.743  0.00  0.00    -0.344 N 
HETATM    8  C   UNK N   1      30.955  17.087   8.578  0.00  0.00     0.241 C 
HETATM    9  O   UNK N   1      30.526  16.683   9.653  0.00  0.00    -0.271 OA
HETATM   10  H   UNK N   1      30.546  18.430   7.098  0.00  0.00     0.163 HD
BRANCH   8  11
HETATM   11  C   UNK N   1      32.195  16.490   8.008  0.00  0.00     0.180 C 
BRANCH  11  12
HETATM   12  N   UNK N   1      32.235  15.059   7.802  0.00  0.00    -0.346 N 
HETATM   13  C   UNK N   1      33.076  14.197   8.422  0.00  0.00     0.241 C 
HETATM   14  O   UNK N   1      32.966  13.004   8.191  0.00  0.00    -0.271 OA
HETATM   15  H   UNK N   1      31.596  14.679   7.155  0.00  0.00     0.163 HD
BRANCH  13  16
HETATM   16  C   UNK N   1      34.091  14.673   9.434  0.00  0.00     0.180 C 
BRANCH  16  17
HETATM   17  N   UNK N   1      34.391  13.632  10.383  0.00  0.00    -0.346 N 
HETATM   18  C   UNK N   1      34.739  13.864  11.672  0.00  0.00     0.241 C 
HETATM   19  O   UNK N   1      34.796  15.000  12.120  0.00  0.00    -0.271 OA
HETATM   20  H   UNK N   1      34.342  12.698  10.077  0.00  0.00     0.163 HD
BRANCH  18  21
HETATM   21  C   UNK N   1      35.034  12.695  12.552  0.00  0.00     0.180 C 
BRANCH  21  22
HETATM   22  C   UNK N   1      36.293  12.937  13.406  0.00  0.00     0.073 C 
BRANCH  22  23
HETATM   23  C   UNK N   1      36.228  12.376  14.809  0.00  0.00    -0.055 A 
HETATM   24  C   UNK N   1      35.757  13.190  15.846  0.00  0.00     0.019 A 
HETATM   25  C   UNK N   1      35.615  12.672  17.138  0.00  0.00    -0.025 A 
HETATM   26  C   UNK N   1      35.154  13.485  18.177  0.00  0.00     0.012 A 
HETATM   27  C   UNK N   1      35.931  11.317  17.394  0.00  0.00    -0.026 A 
HETATM   28  C   UNK N   1      35.001  12.957  19.463  0.00  0.00     0.001 A 
HETATM   29  C   UNK N   1      35.301  11.613  19.712  0.00  0.00     0.001 A 
HETATM   30  C   UNK N   1      35.767  10.794  18.679  0.00  0.00     0.012 A 
HETATM   31  C   UNK N   1      36.409  10.509  16.363  0.00  0.00     0.013 A 
HETATM   32  C   UNK N   1      36.565  11.037  15.080  0.00  0.00     0.008 A 
ENDBRANCH  22  23
ENDBRANCH  21  22
BRANCH  21  33
HETATM   33  N   UNK N   1      35.195  11.509  11.735  0.00  0.00    -0.348 N 
HETATM   34  C   UNK N   1      34.521  10.350  11.967  0.00  0.00     0.214 C 
HETATM   35  O   UNK N   1      34.658   9.412  11.201  0.00  0.00    -0.274 OA
HETATM   36  C   UNK N   1      33.609  10.192  13.146  0.00  0.00     0.117 C 
HETATM   37  H   UNK N   1      35.822  11.543  10.976  0.00  0.00     0.163 HD
ENDBRANCH  21  33
ENDBRANCH  18  21
ENDBRANCH  16  17
BRANCH  16  38
HETATM   38  C   UNK N   1      35.375  15.240   8.819  0.00  0.00     0.073 C 
BRANCH  38  39
HETATM   39  C   UNK N   1      36.528  14.282   8.803  0.00  0.00    -0.056 A 
HETATM   40  C   UNK N   1      37.530  14.415   9.771  0.00  0.00     0.009 A 
HETATM   41  C   UNK N   1      38.634  13.557   9.766  0.00  0.00     0.024 A 
HETATM   42  C   UNK N   1      38.740  12.559   8.794  0.00  0.00     0.034 A 
HETATM   43  C   UNK N   1      37.750  12.429   7.814  0.00  0.00     0.024 A 
HETATM   44 Cl   UNK N   1      40.103  11.459   8.819  0.00  0.00    -0.084 Cl
HETATM   45  C   UNK N   1      36.651  13.297   7.810  0.00  0.00     0.009 A 
ENDBRANCH  38  39
ENDBRANCH  16  38
ENDBRANCH  13  16
ENDBRANCH  11  12
BRANCH  11  46
HETATM   46  C   UNK N   1      33.010  17.329   7.029  0.00  0.00     0.074 C 
BRANCH  46  47
HETATM   47  C   UNK N   1      32.956  16.789   5.630  0.00  0.00    -0.040 A 
HETATM   48  C   UNK N   1      33.902  15.847   5.225  0.00  0.00     0.094 A 
HETATM   49  N   UNK N   1      33.867  15.339   3.963  0.00  0.00    -0.375 N 
HETATM   50  C   UNK N   1      32.919  15.724   3.065  0.00  0.00     0.087 A 
ATOM     51  HN  UNK N   1      34.568  14.654   3.682  1.00  0.00     0.164 HD
HETATM   52  C   UNK N   1      31.949  16.658   3.429  0.00  0.00     0.018 A 
HETATM   53  C   UNK N   1      31.968  17.189   4.718  0.00  0.00     0.010 A 
ENDBRANCH  46  47
ENDBRANCH  11  46
ENDBRANCH   8  11
ENDBRANCH   6   7
BRANCH   6  54
HETATM   54  C   UNK N   1      28.065  18.722   8.601  0.00  0.00     0.199 C 
BRANCH  54  55
HETATM   55  O   UNK N   1      27.272  19.496   7.746  0.00  0.00    -0.398 OA
HETATM   56  H   UNK N   1      27.440  20.433   7.563  0.00  0.00     0.209 HD
ENDBRANCH  54  55
ENDBRANCH   6  54
ENDBRANCH   3   6
ENDBRANCH   1   2
BRANCH   1  57
HETATM   57  C   UNK N   1      27.550  16.239   3.762  0.00  0.00     0.241 C 
HETATM   58  N   UNK N   1      27.424  14.895   3.849  0.00  0.00    -0.346 N 
HETATM   59  H   UNK N   1      26.591  14.562   4.254  0.00  0.00     0.163 HD
HETATM   60  O   UNK N   1      28.393  16.774   3.057  0.00  0.00    -0.271 OA
BRANCH  58  61
HETATM   61  C   UNK N   1      28.350  13.913   3.424  0.00  0.00     0.176 C 
BRANCH  61  62
HETATM   62  C   UNK N   1      27.602  13.010   2.528  0.00  0.00     0.241 C 
HETATM   63  N   UNK N   1      26.428  13.452   2.040  0.00  0.00    -0.346 N 
HETATM   64  H   UNK N   1      26.362  14.338   1.615  0.00  0.00     0.163 HD
HETATM   65  O   UNK N   1      27.954  11.850   2.378  0.00  0.00    -0.271 OA
BRANCH  63  66
HETATM   66  C   UNK N   1      25.293  12.620   2.150  0.00  0.00     0.177 C 
BRANCH  66  67
HETATM   67  C   UNK N   1      24.380  13.321   3.108  0.00  0.00     0.241 C 
HETATM   68  N   UNK N   1      23.832  12.649   4.154  0.00  0.00    -0.346 N 
HETATM   69  H   UNK N   1      23.590  11.701   4.048  0.00  0.00     0.163 HD
HETATM   70  O   UNK N   1      24.268  14.535   3.025  0.00  0.00    -0.271 OA
BRANCH  68  71
HETATM   71  C   UNK N   1      23.600  13.305   5.421  0.00  0.00     0.176 C 
BRANCH  71  72
HETATM   72  C   UNK N   1      22.109  13.520   5.513  0.00  0.00     0.243 C 
HETATM   73  N   UNK N   1      21.567  14.620   6.072  0.00  0.00    -0.337 N 
HETATM   74  C   UNK N   1      20.157  14.853   6.035  0.00  0.00     0.179 A 
HETATM   75  C   UNK N   1      22.351  15.648   6.697  0.00  0.00     0.127 A 
HETATM   76  C   UNK N   1      19.945  16.139   6.803  0.00  0.00     0.037 A 
HETATM   77  C   UNK N   1      21.335  16.695   7.121  0.00  0.00     0.022 A 
HETATM   78  O   UNK N   1      21.345  12.693   5.007  0.00  0.00    -0.271 OA
BRANCH  74  79
HETATM   79  C   UNK N   1      19.694  14.991   4.603  0.00  0.00     0.241 C 
HETATM   80  O   UNK N   1      18.642  14.470   4.252  0.00  0.00    -0.271 OA
HETATM   81  N   UNK N   1      20.431  15.711   3.722  0.00  0.00    -0.346 N 
HETATM   82  H   UNK N   1      21.227  16.193   4.046  0.00  0.00     0.163 HD
BRANCH  81  83
HETATM   83  C   UNK N   1      20.084  15.789   2.321  0.00  0.00     0.172 C 
HETATM   84  C   UNK N   1      20.305  17.207   1.814  0.00  0.00     0.042 C 
BRANCH  83  85
HETATM   85  C   UNK N   1      20.895  14.775   1.551  0.00  0.00     0.237 C 
HETATM   86  O   UNK N   1      21.550  15.135   0.587  0.00  0.00    -0.271 OA
HETATM   87  N   UNK N   1      20.891  13.472   1.899  0.00  0.00    -0.368 N 
HETATM   88  H   UNK N   1      20.579  13.091   2.752  0.00  0.00     0.159 HD
HETATM   89  H   UNK N   1      21.237  12.835   1.232  0.00  0.00     0.159 HD
ENDBRANCH  83  85
ENDBRANCH  81  83
ENDBRANCH  74  79
ENDBRANCH  71  72
BRANCH  71  90
HETATM   90  C   UNK N   1      24.079  12.510   6.636  0.00  0.00     0.036 C 
BRANCH  90  91
HETATM   91  C   UNK N   1      23.109  11.435   7.089  0.00  0.00     0.023 C 
BRANCH  91  92
HETATM   92  C   UNK N   1      23.331  11.171   8.573  0.00  0.00     0.138 C 
BRANCH  92  93
HETATM   93  N   UNK N   1      24.431  11.970   9.061  0.00  0.00    -0.227 N 
HETATM   94  C   UNK N   1      24.376  12.657  10.300  0.00  0.00     0.665 C 
HETATM   95  N   UNK N   1      23.299  12.665  10.996  0.00  0.00    -0.235 N 
HETATM   96  N   UNK N   1      25.535  13.293  10.794  0.00  0.00    -0.235 N 
HETATM   97  H   UNK N   1      22.946  13.018  11.844  0.00  0.00     0.174 HD
ATOM     98  HN  UNK N   1      22.573  12.136  10.514  1.00  0.00     0.174 HD
HETATM   99  H   UNK N   1      26.402  12.829  10.782  0.00  0.00     0.174 HD
HETATM  100  H   UNK N   1      25.474  14.207  11.154  0.00  0.00     0.174 HD
HETATM  101  H   UNK N   1      25.247  12.040   8.514  0.00  0.00     0.177 HD
ENDBRANCH  92  93
ENDBRANCH  91  92
ENDBRANCH  90  91
ENDBRANCH  71  90
ENDBRANCH  68  71
ENDBRANCH  66  67
BRANCH  66 102
HETATM  102  C   UNK N   1      24.632  12.351   0.807  0.00  0.00     0.038 C 
BRANCH 102 103
HETATM  103  C   UNK N   1      24.134  10.912   0.740  0.00  0.00    -0.020 C 
HETATM  104  C   UNK N   1      23.573  10.565  -0.630  0.00  0.00     0.009 C 
HETATM  105  C   UNK N   1      25.284   9.977   1.043  0.00  0.00     0.009 C 
ENDBRANCH 102 103
ENDBRANCH  66 102
ENDBRANCH  63  66
ENDBRANCH  61  62
BRANCH  61 106
HETATM  106  C   UNK N   1      28.961  13.150   4.604  0.00  0.00     0.036 C 
BRANCH 106 107
HETATM  107  C   UNK N   1      30.358  13.652   4.905  0.00  0.00     0.022 C 
BRANCH 107 108
HETATM  108  C   UNK N   1      31.392  12.670   4.374  0.00  0.00     0.124 C 
BRANCH 108 109
HETATM  109  N   UNK N   1      32.223  12.148   5.436  0.00  0.00    -0.343 N 
HETATM  110  C   UNK N   1      32.498  10.826   5.565  0.00  0.00     0.313 C 
HETATM  111  O   UNK N   1      32.024  10.012   4.788  0.00  0.00    -0.248 OA
HETATM  112  N   UNK N   1      33.313  10.407   6.552  0.00  0.00    -0.352 N 
HETATM  113  H   UNK N   1      33.315  10.869   7.421  0.00  0.00     0.160 HD
HETATM  114  H   UNK N   1      33.908   9.637   6.403  0.00  0.00     0.160 HD
HETATM  115  H   UNK N   1      32.606  12.777   6.090  0.00  0.00     0.164 HD
ENDBRANCH 108 109
ENDBRANCH 107 108
ENDBRANCH 106 107
ENDBRANCH  61 106
ENDBRANCH  58  61
ENDBRANCH   1  57
BRANCH   1 116
HETATM  116  C   UNK N   1      26.611  18.480   4.091  0.00  0.00     0.073 C 
BRANCH 116 117
HETATM  117  C   UNK N   1      25.231  19.012   3.781  0.00  0.00    -0.056 A 
HETATM  118  C   UNK N   1      25.116  20.195   3.039  0.00  0.00     0.010 A 
HETATM  119  C   UNK N   1      23.856  20.728   2.745  0.00  0.00     0.037 A 
HETATM  120  C   UNK N   1      22.702  20.087   3.200  0.00  0.00     0.065 A 
HETATM  121  C   UNK N   1      22.807  18.907   3.945  0.00  0.00     0.037 A 
HETATM  122  C   UNK N   1      24.066  18.370   4.232  0.00  0.00     0.010 A 
BRANCH 120 123
HETATM  123  O   UNK N   1      21.492  20.602   2.923  0.00  0.00    -0.361 OA
HETATM  124  H   UNK N   1      21.284  21.480   3.174  0.00  0.00     0.217 HD
ENDBRANCH 120 123
ENDBRANCH 116 117
ENDBRANCH   1 116
TORSDOF 40
ENDMDL
MODEL 3
REMARK VINA RESULT:      -8.4      1.859      4.685
REMARK WARNING: 32 MAX_TORS EXCEEDED!!!
REMARK  40 active torsions:
REMARK  status: ('A' for Active; 'I' for Inactive)
REMARK    1  A    between atoms: C_13  and  C_8 
REMARK    2  A    between atoms: C_13  and  C_11 
REMARK    3  A    between atoms: C_15  and  C_11 
REMARK    4  A    between atoms: C_11  and  N_12 
REMARK       I    between atoms: C_102  and  N_12 
REMARK       I    between atoms: C_15  and  N_14 
REMARK    5  A    between atoms: C_16  and  N_14 
REMARK    6  A    between atoms: C_16  and  C_19 
REMARK    7  A    between atoms: C_17  and  C_16 
REMARK       I    between atoms: N_21  and  C_17 
REMARK    8  A    between atoms: C_20  and  C_19 
REMARK    9  A    between atoms: C_27  and  N_21 
REMARK   10  A    between atoms: C_29  and  C_27 
REMARK   11  A    between atoms: C_27  and  C_28 
REMARK   12  A    between atoms: C_31  and  C_28 
REMARK       I    between atoms: N_30  and  C_29 
REMARK   13  A    between atoms: C_38  and  N_30 
REMARK   14  A    between atoms: C_39  and  C_38 
REMARK   15  A    between atoms: C_38  and  C_50 
REMARK       I    between atoms: N_41  and  C_39 
REMARK   16  A    between atoms: C_42  and  N_41 
REMARK   17  A    between atoms: C_44  and  C_42 
REMARK   18  A    between atoms: C_42  and  C_43 
REMARK   19  A    between atoms: C_46  and  C_43 
REMARK       I    between atoms: N_45  and  C_44 
REMARK   20  A    between atoms: C_59  and  N_45 
REMARK   21  A    between atoms: O_51  and  C_50 
REMARK   22  A    between atoms: O_58  and  C_54 
REMARK   23  A    between atoms: C_60  and  C_59 
REMARK   24  A    between atoms: C_59  and  C_74 
REMARK       I    between atoms: N_62  and  C_60 
REMARK   25  A    between atoms: C_63  and  N_62 
REMARK   26  A    between atoms: C_65  and  C_63 
REMARK   27  A    between atoms: C_63  and  C_64 
REMARK   28  A    between atoms: C_73  and  C_64 
REMARK       I    between atoms: N_66  and  C_65 
REMARK   29  A    between atoms: C_67  and  N_66 
REMARK   30  A    between atoms: C_68  and  C_67 
REMARK   31  A    between atoms: C_67  and  C_82 
REMARK       I    between atoms: N_70  and  C_68 
REMARK   32  A    between atoms: C_90  and  C_72 
REMARK       I    between atoms: N_94  and  C_72 
REMARK   33  A    between atoms: C_75  and  C_74 
REMARK   34  A    between atoms: C_76  and  C_75 
REMARK   35  A    between atoms: N_77  and  C_76 
REMARK       I    between atoms: C_78  and  N_77 
REMARK       I    between atoms: N_80  and  C_78 
REMARK   36  A    between atoms: C_83  and  C_82 
REMARK   37  A    between atoms: C_84  and  C_83 
REMARK   38  A    between atoms: N_85  and  C_84 
REMARK       I    between atoms: C_86  and  N_85 
REMARK       I    between atoms: N_89  and  C_86 
REMARK   39  A    between atoms: C_95  and  N_94 
REMARK   40  A    between atoms: C_96  and  C_95 
REMARK       I    between atoms: N_99  and  C_96 
ROOT
HETATM    1  C   UNK N   1      28.393  16.108   4.394  0.00  0.00     0.180 C 
ENDROOT
BRANCH   1   2
HETATM    2  N   UNK N   1      29.321  15.181   3.789  0.00  0.00    -0.346 N 
HETATM    3  C   UNK N   1      30.133  14.291   4.448  0.00  0.00     0.243 C 
HETATM    4  O   UNK N   1      30.060  14.108   5.652  0.00  0.00    -0.271 OA
HETATM    5  H   UNK N   1      29.379  15.190   2.806  0.00  0.00     0.163 HD
BRANCH   3   6
HETATM    6  C   UNK N   1      30.974  13.383   3.638  0.00  0.00     0.200 C 
BRANCH   6   7
HETATM    7  N   UNK N   1      32.241  13.501   4.296  0.00  0.00    -0.344 N 
HETATM    8  C   UNK N   1      33.147  14.384   3.813  0.00  0.00     0.241 C 
HETATM    9  O   UNK N   1      33.128  14.713   2.633  0.00  0.00    -0.271 OA
HETATM   10  H   UNK N   1      32.449  12.948   5.083  0.00  0.00     0.163 HD
BRANCH   8  11
HETATM   11  C   UNK N   1      33.891  15.218   4.798  0.00  0.00     0.180 C 
BRANCH  11  12
HETATM   12  N   UNK N   1      35.232  14.817   5.163  0.00  0.00    -0.346 N 
HETATM   13  C   UNK N   1      35.619  14.382   6.386  0.00  0.00     0.241 C 
HETATM   14  O   UNK N   1      36.775  14.026   6.540  0.00  0.00    -0.271 OA
HETATM   15  H   UNK N   1      35.922  14.863   4.461  0.00  0.00     0.163 HD
BRANCH  13  16
HETATM   16  C   UNK N   1      34.641  14.269   7.530  0.00  0.00     0.180 C 
BRANCH  16  17
HETATM   17  N   UNK N   1      34.541  12.905   7.982  0.00  0.00    -0.346 N 
HETATM   18  C   UNK N   1      33.530  12.069   7.641  0.00  0.00     0.241 C 
HETATM   19  O   UNK N   1      32.635  12.430   6.890  0.00  0.00    -0.271 OA
HETATM   20  H   UNK N   1      35.247  12.560   8.574  0.00  0.00     0.163 HD
BRANCH  18  21
HETATM   21  C   UNK N   1      33.540  10.680   8.184  0.00  0.00     0.180 C 
BRANCH  21  22
HETATM   22  C   UNK N   1      34.906  10.326   8.801  0.00  0.00     0.073 C 
BRANCH  22  23
HETATM   23  C   UNK N   1      34.887  10.077  10.292  0.00  0.00    -0.055 A 
HETATM   24  C   UNK N   1      36.052   9.622  10.921  0.00  0.00     0.019 A 
HETATM   25  C   UNK N   1      36.083   9.456  12.310  0.00  0.00    -0.025 A 
HETATM   26  C   UNK N   1      37.242   8.994  12.939  0.00  0.00     0.012 A 
HETATM   27  C   UNK N   1      34.941   9.766  13.084  0.00  0.00    -0.026 A 
HETATM   28  C   UNK N   1      37.272   8.845  14.329  0.00  0.00     0.001 A 
HETATM   29  C   UNK N   1      36.144   9.164  15.095  0.00  0.00     0.001 A 
HETATM   30  C   UNK N   1      34.979   9.623  14.473  0.00  0.00     0.012 A 
HETATM   31  C   UNK N   1      33.776  10.210  12.456  0.00  0.00     0.013 A 
HETATM   32  C   UNK N   1      33.747  10.356  11.068  0.00  0.00     0.008 A 
ENDBRANCH  22  23
ENDBRANCH  21  22
BRANCH  21  33
HETATM   33  N   UNK N   1      33.204   9.749   7.126  0.00  0.00    -0.348 N 
HETATM   34  C   UNK N   1      32.247   8.789   7.256  0.00  0.00     0.214 C 
HETATM   35  O   UNK N   1      31.974   8.082   6.302  0.00  0.00    -0.274 OA
HETATM   36  C   UNK N   1      31.517   8.576   8.548  0.00  0.00     0.117 C 
HETATM   37  H   UNK N   1      33.691   9.813   6.272  0.00  0.00     0.163 HD
ENDBRANCH  21  33
ENDBRANCH  18  21
ENDBRANCH  16  17
BRANCH  16  38
HETATM   38  C   UNK N   1      34.930  15.213   8.702  0.00  0.00     0.073 C 
BRANCH  38  39
HETATM   39  C   UNK N   1      35.464  14.534   9.926  0.00  0.00    -0.056 A 
HETATM   40  C   UNK N   1      34.636  14.414  11.048  0.00  0.00     0.009 A 
HETATM   41  C   UNK N   1      35.112  13.812  12.216  0.00  0.00     0.024 A 
HETATM   42  C   UNK N   1      36.420  13.323  12.269  0.00  0.00     0.034 A 
HETATM   43  C   UNK N   1      37.259  13.452  11.156  0.00  0.00     0.024 A 
HETATM   44 Cl   UNK N   1      36.998  12.531  13.719  0.00  0.00    -0.084 Cl
HETATM   45  C   UNK N   1      36.787  14.068   9.990  0.00  0.00     0.009 A 
ENDBRANCH  38  39
ENDBRANCH  16  38
ENDBRANCH  13  16
ENDBRANCH  11  12
BRANCH  11  46
HETATM   46  C   UNK N   1      33.612  16.718   4.824  0.00  0.00     0.074 C 
BRANCH  46  47
HETATM   47  C   UNK N   1      33.002  17.164   6.121  0.00  0.00    -0.040 A 
HETATM   48  C   UNK N   1      33.763  17.931   7.004  0.00  0.00     0.094 A 
HETATM   49  N   UNK N   1      33.228  18.352   8.182  0.00  0.00    -0.375 N 
HETATM   50  C   UNK N   1      31.949  18.047   8.534  0.00  0.00     0.087 A 
ATOM     51  HN  UNK N   1      33.799  18.909   8.818  1.00  0.00     0.164 HD
HETATM   52  C   UNK N   1      31.149  17.289   7.678  0.00  0.00     0.018 A 
HETATM   53  C   UNK N   1      31.680  16.849   6.466  0.00  0.00     0.010 A 
ENDBRANCH  46  47
ENDBRANCH  11  46
ENDBRANCH   8  11
ENDBRANCH   6   7
BRANCH   6  54
HETATM   54  C   UNK N   1      30.416  11.971   3.741  0.00  0.00     0.199 C 
BRANCH  54  55
HETATM   55  O   UNK N   1      29.040  12.018   3.992  0.00  0.00    -0.398 OA
HETATM   56  H   UNK N   1      28.389  12.324   3.342  0.00  0.00     0.209 HD
ENDBRANCH  54  55
ENDBRANCH   6  54
ENDBRANCH   3   6
ENDBRANCH   1   2
BRANCH   1  57
HETATM   57  C   UNK N   1      27.028  15.639   4.101  0.00  0.00     0.241 C 
HETATM   58  N   UNK N   1      26.845  14.300   4.051  0.00  0.00    -0.346 N 
HETATM   59  H   UNK N   1      27.536  13.750   4.486  0.00  0.00     0.163 HD
HETATM   60  O   UNK N   1      26.136  16.432   3.839  0.00  0.00    -0.271 OA
BRANCH  58  61
HETATM   61  C   UNK N   1      25.777  13.597   3.445  0.00  0.00     0.176 C 
BRANCH  61  62
HETATM   62  C   UNK N   1      25.327  12.605   4.440  0.00  0.00     0.241 C 
HETATM   63  N   UNK N   1      24.007  12.530   4.690  0.00  0.00    -0.346 N 
HETATM   64  H   UNK N   1      23.359  12.455   3.952  0.00  0.00     0.163 HD
HETATM   65  O   UNK N   1      26.137  12.002   5.127  0.00  0.00    -0.271 OA
BRANCH  63  66
HETATM   66  C   UNK N   1      23.570  12.560   6.032  0.00  0.00     0.177 C 
BRANCH  66  67
HETATM   67  C   UNK N   1      23.344  14.008   6.342  0.00  0.00     0.241 C 
HETATM   68  N   UNK N   1      22.231  14.644   5.891  0.00  0.00    -0.346 N 
HETATM   69  H   UNK N   1      21.851  14.394   5.018  0.00  0.00     0.163 HD
HETATM   70  O   UNK N   1      24.092  14.558   7.137  0.00  0.00    -0.271 OA
BRANCH  68  71
HETATM   71  C   UNK N   1      21.595  15.679   6.674  0.00  0.00     0.176 C 
BRANCH  71  72
HETATM   72  C   UNK N   1      20.965  16.625   5.681  0.00  0.00     0.243 C 
HETATM   73  N   UNK N   1      21.677  17.549   5.008  0.00  0.00    -0.337 N 
HETATM   74  C   UNK N   1      21.076  18.349   3.985  0.00  0.00     0.179 A 
HETATM   75  C   UNK N   1      23.079  17.771   5.227  0.00  0.00     0.127 A 
HETATM   76  C   UNK N   1      22.169  19.286   3.519  0.00  0.00     0.037 A 
HETATM   77  C   UNK N   1      23.455  18.845   4.221  0.00  0.00     0.022 A 
HETATM   78  O   UNK N   1      19.763  16.519   5.421  0.00  0.00    -0.271 OA
BRANCH  74  79
HETATM   79  C   UNK N   1      20.596  17.467   2.857  0.00  0.00     0.241 C 
HETATM   80  O   UNK N   1      19.699  17.858   2.120  0.00  0.00    -0.271 OA
HETATM   81  N   UNK N   1      21.177  16.259   2.650  0.00  0.00    -0.346 N 
HETATM   82  H   UNK N   1      21.954  16.002   3.198  0.00  0.00     0.163 HD
BRANCH  81  83
HETATM   83  C   UNK N   1      20.688  15.339   1.648  0.00  0.00     0.172 C 
HETATM   84  C   UNK N   1      21.853  14.565   1.046  0.00  0.00     0.042 C 
BRANCH  83  85
HETATM   85  C   UNK N   1      19.659  14.427   2.273  0.00  0.00     0.237 C 
HETATM   86  O   UNK N   1      18.678  14.097   1.628  0.00  0.00    -0.271 OA
HETATM   87  N   UNK N   1      19.798  13.986   3.540  0.00  0.00    -0.368 N 
HETATM   88  H   UNK N   1      20.617  14.009   4.085  0.00  0.00     0.159 HD
HETATM   89  H   UNK N   1      18.996  13.601   3.963  0.00  0.00     0.159 HD
ENDBRANCH  83  85
ENDBRANCH  81  83
ENDBRANCH  74  79
ENDBRANCH  71  72
BRANCH  71  90
HETATM   90  C   UNK N   1      20.528  15.167   7.642  0.00  0.00     0.036 C 
BRANCH  90  91
HETATM   91  C   UNK N   1      21.020  15.000   9.067  0.00  0.00     0.023 C 
BRANCH  91  92
HETATM   92  C   UNK N   1      21.258  13.518   9.331  0.00  0.00     0.138 C 
BRANCH  92  93
HETATM   93  N   UNK N   1      22.510  13.332  10.028  0.00  0.00    -0.227 N 
HETATM   94  C   UNK N   1      22.644  12.432  11.116  0.00  0.00     0.665 C 
HETATM   95  N   UNK N   1      21.622  11.814  11.582  0.00  0.00    -0.235 N 
HETATM   96  N   UNK N   1      23.923  12.179  11.655  0.00  0.00    -0.235 N 
HETATM   97  H   UNK N   1      21.382  11.162  12.280  0.00  0.00     0.174 HD
ATOM     98  HN  UNK N   1      20.787  12.084  11.063  1.00  0.00     0.174 HD
HETATM   99  H   UNK N   1      24.688  12.001  11.062  0.00  0.00     0.174 HD
HETATM  100  H   UNK N   1      24.050  12.182  12.631  0.00  0.00     0.174 HD
HETATM  101  H   UNK N   1      23.296  13.847   9.737  0.00  0.00     0.177 HD
ENDBRANCH  92  93
ENDBRANCH  91  92
ENDBRANCH  90  91
ENDBRANCH  71  90
ENDBRANCH  68  71
ENDBRANCH  66  67
BRANCH  66 102
HETATM  102  C   UNK N   1      22.325  11.716   6.262  0.00  0.00     0.038 C 
BRANCH 102 103
HETATM  103  C   UNK N   1      22.681  10.442   7.017  0.00  0.00    -0.020 C 
HETATM  104  C   UNK N   1      23.101   9.320   6.081  0.00  0.00     0.009 C 
HETATM  105  C   UNK N   1      23.823  10.733   7.966  0.00  0.00     0.009 C 
ENDBRANCH 102 103
ENDBRANCH  66 102
ENDBRANCH  63  66
ENDBRANCH  61  62
BRANCH  61 106
HETATM  106  C   UNK N   1      26.200  12.924   2.135  0.00  0.00     0.036 C 
BRANCH 106 107
HETATM  107  C   UNK N   1      24.989  12.559   1.301  0.00  0.00     0.022 C 
BRANCH 107 108
HETATM  108  C   UNK N   1      25.004  11.072   0.981  0.00  0.00     0.124 C 
BRANCH 108 109
HETATM  109  N   UNK N   1      23.963  10.720   0.042  0.00  0.00    -0.343 N 
HETATM  110  C   UNK N   1      23.072   9.725   0.279  0.00  0.00     0.313 C 
HETATM  111  O   UNK N   1      23.133   9.064   1.305  0.00  0.00    -0.248 OA
HETATM  112  N   UNK N   1      22.099   9.472  -0.616  0.00  0.00    -0.352 N 
HETATM  113  H   UNK N   1      22.271   9.588  -1.579  0.00  0.00     0.160 HD
HETATM  114  H   UNK N   1      21.214   9.170  -0.309  0.00  0.00     0.160 HD
HETATM  115  H   UNK N   1      23.898  11.222  -0.803  0.00  0.00     0.164 HD
ENDBRANCH 108 109
ENDBRANCH 107 108
ENDBRANCH 106 107
ENDBRANCH  61 106
ENDBRANCH  58  61
ENDBRANCH   1  57
BRANCH   1 116
HETATM  116  C   UNK N   1      28.570  17.523   3.811  0.00  0.00     0.073 C 
BRANCH 116 117
HETATM  117  C   UNK N   1      28.010  18.661   4.634  0.00  0.00    -0.056 A 
HETATM  118  C   UNK N   1      28.184  18.636   6.024  0.00  0.00     0.010 A 
HETATM  119  C   UNK N   1      27.666  19.663   6.822  0.00  0.00     0.037 A 
HETATM  120  C   UNK N   1      26.962  20.716   6.236  0.00  0.00     0.065 A 
HETATM  121  C   UNK N   1      26.781  20.748   4.849  0.00  0.00     0.037 A 
HETATM  122  C   UNK N   1      27.305  19.725   4.050  0.00  0.00     0.010 A 
BRANCH 120 123
HETATM  123  O   UNK N   1      26.460  21.700   7.002  0.00  0.00    -0.361 OA
HETATM  124  H   UNK N   1      26.049  22.442   6.606  0.00  0.00     0.217 HD
ENDBRANCH 120 123
ENDBRANCH 116 117
ENDBRANCH   1 116
TORSDOF 40
ENDMDL
MODEL 4
REMARK VINA RESULT:      -8.2      3.674     12.055
REMARK WARNING: 32 MAX_TORS EXCEEDED!!!
REMARK  40 active torsions:
REMARK  status: ('A' for Active; 'I' for Inactive)
REMARK    1  A    between atoms: C_13  and  C_8 
REMARK    2  A    between atoms: C_13  and  C_11 
REMARK    3  A    between atoms: C_15  and  C_11 
REMARK    4  A    between atoms: C_11  and  N_12 
REMARK       I    between atoms: C_102  and  N_12 
REMARK       I    between atoms: C_15  and  N_14 
REMARK    5  A    between atoms: C_16  and  N_14 
REMARK    6  A    between atoms: C_16  and  C_19 
REMARK    7  A    between atoms: C_17  and  C_16 
REMARK       I    between atoms: N_21  and  C_17 
REMARK    8  A    between atoms: C_20  and  C_19 
REMARK    9  A    between atoms: C_27  and  N_21 
REMARK   10  A    between atoms: C_29  and  C_27 
REMARK   11  A    between atoms: C_27  and  C_28 
REMARK   12  A    between atoms: C_31  and  C_28 
REMARK       I    between atoms: N_30  and  C_29 
REMARK   13  A    between atoms: C_38  and  N_30 
REMARK   14  A    between atoms: C_39  and  C_38 
REMARK   15  A    between atoms: C_38  and  C_50 
REMARK       I    between atoms: N_41  and  C_39 
REMARK   16  A    between atoms: C_42  and  N_41 
REMARK   17  A    between atoms: C_44  and  C_42 
REMARK   18  A    between atoms: C_42  and  C_43 
REMARK   19  A    between atoms: C_46  and  C_43 
REMARK       I    between atoms: N_45  and  C_44 
REMARK   20  A    between atoms: C_59  and  N_45 
REMARK   21  A    between atoms: O_51  and  C_50 
REMARK   22  A    between atoms: O_58  and  C_54 
REMARK   23  A    between atoms: C_60  and  C_59 
REMARK   24  A    between atoms: C_59  and  C_74 
REMARK       I    between atoms: N_62  and  C_60 
REMARK   25  A    between atoms: C_63  and  N_62 
REMARK   26  A    between atoms: C_65  and  C_63 
REMARK   27  A    between atoms: C_63  and  C_64 
REMARK   28  A    between atoms: C_73  and  C_64 
REMARK       I    between atoms: N_66  and  C_65 
REMARK   29  A    between atoms: C_67  and  N_66 
REMARK   30  A    between atoms: C_68  and  C_67 
REMARK   31  A    between atoms: C_67  and  C_82 
REMARK       I    between atoms: N_70  and  C_68 
REMARK   32  A    between atoms: C_90  and  C_72 
REMARK       I    between atoms: N_94  and  C_72 
REMARK   33  A    between atoms: C_75  and  C_74 
REMARK   34  A    between atoms: C_76  and  C_75 
REMARK   35  A    between atoms: N_77  and  C_76 
REMARK       I    between atoms: C_78  and  N_77 
REMARK       I    between atoms: N_80  and  C_78 
REMARK   36  A    between atoms: C_83  and  C_82 
REMARK   37  A    between atoms: C_84  and  C_83 
REMARK   38  A    between atoms: N_85  and  C_84 
REMARK       I    between atoms: C_86  and  N_85 
REMARK       I    between atoms: N_89  and  C_86 
REMARK   39  A    between atoms: C_95  and  N_94 
REMARK   40  A    between atoms: C_96  and  C_95 
REMARK       I    between atoms: N_99  and  C_96 
ROOT
HETATM    1  C   UNK N   1      24.291  14.975   6.337  0.00  0.00     0.180 C 
ENDROOT
BRANCH   1   2
HETATM    2  N   UNK N   1      22.876  14.750   6.525  0.00  0.00    -0.346 N 
HETATM    3  C   UNK N   1      21.935  15.696   6.850  0.00  0.00     0.243 C 
HETATM    4  O   UNK N   1      22.196  16.887   6.898  0.00  0.00    -0.271 OA
HETATM    5  H   UNK N   1      22.555  13.827   6.411  0.00  0.00     0.163 HD
BRANCH   3   6
HETATM    6  C   UNK N   1      20.522  15.271   6.941  0.00  0.00     0.200 C 
BRANCH   6   7
HETATM    7  N   UNK N   1      20.376  14.492   5.748  0.00  0.00    -0.344 N 
HETATM    8  C   UNK N   1      19.541  14.934   4.778  0.00  0.00     0.241 C 
HETATM    9  O   UNK N   1      18.597  15.663   5.054  0.00  0.00    -0.271 OA
HETATM   10  H   UNK N   1      20.874  13.650   5.637  0.00  0.00     0.163 HD
BRANCH   8  11
HETATM   11  C   UNK N   1      20.011  14.839   3.367  0.00  0.00     0.180 C 
BRANCH  11  12
HETATM   12  N   UNK N   1      19.037  14.553   2.337  0.00  0.00    -0.346 N 
HETATM   13  C   UNK N   1      18.719  13.321   1.873  0.00  0.00     0.241 C 
HETATM   14  O   UNK N   1      17.838  13.221   1.036  0.00  0.00    -0.271 OA
HETATM   15  H   UNK N   1      18.563  15.321   1.940  0.00  0.00     0.163 HD
BRANCH  13  16
HETATM   16  C   UNK N   1      19.381  12.078   2.416  0.00  0.00     0.180 C 
BRANCH  16  17
HETATM   17  N   UNK N   1      20.799  12.282   2.573  0.00  0.00    -0.346 N 
HETATM   18  C   UNK N   1      21.741  11.456   2.056  0.00  0.00     0.241 C 
HETATM   19  O   UNK N   1      21.433  10.479   1.390  0.00  0.00    -0.271 OA
HETATM   20  H   UNK N   1      21.100  13.066   3.086  0.00  0.00     0.163 HD
BRANCH  18  21
HETATM   21  C   UNK N   1      23.179  11.777   2.298  0.00  0.00     0.180 C 
BRANCH  21  22
HETATM   22  C   UNK N   1      23.552  11.603   3.783  0.00  0.00     0.073 C 
BRANCH  22  23
HETATM   23  C   UNK N   1      24.001  10.211   4.168  0.00  0.00    -0.055 A 
HETATM   24  C   UNK N   1      23.868   9.172   3.239  0.00  0.00     0.019 A 
HETATM   25  C   UNK N   1      24.344   7.892   3.542  0.00  0.00    -0.025 A 
HETATM   26  C   UNK N   1      24.204   6.851   2.621  0.00  0.00     0.012 A 
HETATM   27  C   UNK N   1      24.980   7.651   4.783  0.00  0.00    -0.026 A 
HETATM   28  C   UNK N   1      24.696   5.578   2.924  0.00  0.00     0.001 A 
HETATM   29  C   UNK N   1      25.336   5.344   4.146  0.00  0.00     0.001 A 
HETATM   30  C   UNK N   1      25.477   6.378   5.075  0.00  0.00     0.012 A 
HETATM   31  C   UNK N   1      25.104   8.684   5.712  0.00  0.00     0.013 A 
HETATM   32  C   UNK N   1      24.609   9.954   5.410  0.00  0.00     0.008 A 
ENDBRANCH  22  23
ENDBRANCH  21  22
BRANCH  21  33
HETATM   33  N   UNK N   1      23.447  13.132   1.862  0.00  0.00    -0.348 N 
HETATM   34  C   UNK N   1      23.627  13.470   0.556  0.00  0.00     0.214 C 
HETATM   35  O   UNK N   1      23.787  14.641   0.256  0.00  0.00    -0.274 OA
HETATM   36  C   UNK N   1      23.635  12.438  -0.531  0.00  0.00     0.117 C 
HETATM   37  H   UNK N   1      23.503  13.841   2.542  0.00  0.00     0.163 HD
ENDBRANCH  21  33
ENDBRANCH  18  21
ENDBRANCH  16  17
BRANCH  16  38
HETATM   38  C   UNK N   1      18.759  11.547   3.712  0.00  0.00     0.073 C 
BRANCH  38  39
HETATM   39  C   UNK N   1      19.503  10.403   4.332  0.00  0.00    -0.056 A 
HETATM   40  C   UNK N   1      20.323  10.652   5.439  0.00  0.00     0.009 A 
HETATM   41  C   UNK N   1      21.055   9.614   6.023  0.00  0.00     0.024 A 
HETATM   42  C   UNK N   1      20.967   8.319   5.506  0.00  0.00     0.034 A 
HETATM   43  C   UNK N   1      20.160   8.065   4.391  0.00  0.00     0.024 A 
HETATM   44 Cl   UNK N   1      21.851   7.014   6.268  0.00  0.00    -0.084 Cl
HETATM   45  C   UNK N   1      19.439   9.107   3.797  0.00  0.00     0.009 A 
ENDBRANCH  38  39
ENDBRANCH  16  38
ENDBRANCH  13  16
ENDBRANCH  11  12
BRANCH  11  46
HETATM   46  C   UNK N   1      21.194  15.705   2.946  0.00  0.00     0.074 C 
BRANCH  46  47
HETATM   47  C   UNK N   1      20.877  17.172   3.002  0.00  0.00    -0.040 A 
HETATM   48  C   UNK N   1      19.887  17.689   2.166  0.00  0.00     0.094 A 
HETATM   49  N   UNK N   1      19.580  19.013   2.205  0.00  0.00    -0.375 N 
HETATM   50  C   UNK N   1      20.215  19.868   3.052  0.00  0.00     0.087 A 
ATOM     51  HN  UNK N   1      18.855  19.375   1.585  1.00  0.00     0.164 HD
HETATM   52  C   UNK N   1      21.207  19.394   3.911  0.00  0.00     0.018 A 
HETATM   53  C   UNK N   1      21.536  18.039   3.885  0.00  0.00     0.010 A 
ENDBRANCH  46  47
ENDBRANCH  11  46
ENDBRANCH   8  11
ENDBRANCH   6   7
BRANCH   6  54
HETATM   54  C   UNK N   1      20.341  14.424   8.192  0.00  0.00     0.199 C 
BRANCH  54  55
HETATM   55  O   UNK N   1      21.349  14.717   9.117  0.00  0.00    -0.398 OA
HETATM   56  H   UNK N   1      21.697  14.072   9.751  0.00  0.00     0.209 HD
ENDBRANCH  54  55
ENDBRANCH   6  54
ENDBRANCH   3   6
ENDBRANCH   1   2
BRANCH   1  57
HETATM   57  C   UNK N   1      24.539  15.110   4.891  0.00  0.00     0.241 C 
HETATM   58  N   UNK N   1      25.772  15.529   4.525  0.00  0.00    -0.346 N 
HETATM   59  H   UNK N   1      26.482  15.435   5.201  0.00  0.00     0.163 HD
HETATM   60  O   UNK N   1      23.642  14.928   4.082  0.00  0.00    -0.271 OA
BRANCH  58  61
HETATM   61  C   UNK N   1      26.161  16.088   3.284  0.00  0.00     0.176 C 
BRANCH  61  62
HETATM   62  C   UNK N   1      26.781  14.989   2.520  0.00  0.00     0.241 C 
HETATM   63  N   UNK N   1      27.328  13.977   3.220  0.00  0.00    -0.346 N 
HETATM   64  H   UNK N   1      26.822  13.530   3.937  0.00  0.00     0.163 HD
HETATM   65  O   UNK N   1      26.939  15.081   1.313  0.00  0.00    -0.271 OA
BRANCH  63  66
HETATM   66  C   UNK N   1      28.643  13.571   2.906  0.00  0.00     0.177 C 
BRANCH  66  67
HETATM   67  C   UNK N   1      29.419  13.722   4.179  0.00  0.00     0.241 C 
HETATM   68  N   UNK N   1      29.700  14.957   4.671  0.00  0.00    -0.346 N 
HETATM   69  H   UNK N   1      29.875  15.698   4.048  0.00  0.00     0.163 HD
HETATM   70  O   UNK N   1      29.649  12.723   4.844  0.00  0.00    -0.271 OA
BRANCH  68  71
HETATM   71  C   UNK N   1      29.746  15.198   6.096  0.00  0.00     0.176 C 
BRANCH  71  72
HETATM   72  C   UNK N   1      31.203  15.126   6.484  0.00  0.00     0.243 C 
HETATM   73  N   UNK N   1      32.115  16.016   6.046  0.00  0.00    -0.337 N 
HETATM   74  C   UNK N   1      33.462  15.995   6.527  0.00  0.00     0.179 A 
HETATM   75  C   UNK N   1      31.804  17.062   5.113  0.00  0.00     0.127 A 
HETATM   76  C   UNK N   1      34.174  17.093   5.767  0.00  0.00     0.037 A 
HETATM   77  C   UNK N   1      33.103  17.835   4.963  0.00  0.00     0.022 A 
HETATM   78  O   UNK N   1      31.576  14.261   7.281  0.00  0.00    -0.271 OA
BRANCH  74  79
HETATM   79  C   UNK N   1      33.483  16.259   8.014  0.00  0.00     0.241 C 
HETATM   80  O   UNK N   1      32.897  17.236   8.466  0.00  0.00    -0.271 OA
HETATM   81  N   UNK N   1      34.128  15.401   8.843  0.00  0.00    -0.346 N 
HETATM   82  H   UNK N   1      34.518  14.577   8.469  0.00  0.00     0.163 HD
BRANCH  81  83
HETATM   83  C   UNK N   1      34.261  15.663  10.258  0.00  0.00     0.172 C 
HETATM   84  C   UNK N   1      34.184  14.355  11.034  0.00  0.00     0.042 C 
BRANCH  83  85
HETATM   85  C   UNK N   1      35.557  16.398  10.508  0.00  0.00     0.237 C 
HETATM   86  O   UNK N   1      35.629  17.590  10.259  0.00  0.00    -0.271 OA
HETATM   87  N   UNK N   1      36.642  15.754  10.982  0.00  0.00    -0.368 N 
HETATM   88  H   UNK N   1      36.662  14.865  11.404  0.00  0.00     0.159 HD
HETATM   89  H   UNK N   1      37.505  16.221  10.897  0.00  0.00     0.159 HD
ENDBRANCH  83  85
ENDBRANCH  81  83
ENDBRANCH  74  79
ENDBRANCH  71  72
BRANCH  71  90
HETATM   90  C   UNK N   1      29.168  16.548   6.522  0.00  0.00     0.036 C 
BRANCH  90  91
HETATM   91  C   UNK N   1      27.701  16.495   6.901  0.00  0.00     0.023 C 
BRANCH  91  92
HETATM   92  C   UNK N   1      27.578  16.688   8.408  0.00  0.00     0.138 C 
BRANCH  92  93
HETATM   93  N   UNK N   1      28.290  17.876   8.816  0.00  0.00    -0.227 N 
HETATM   94  C   UNK N   1      29.292  17.851   9.819  0.00  0.00     0.665 C 
HETATM   95  N   UNK N   1      29.540  16.774  10.469  0.00  0.00    -0.235 N 
HETATM   96  N   UNK N   1      30.058  19.010  10.066  0.00  0.00    -0.235 N 
HETATM   97  H   UNK N   1      30.131  16.434  11.179  0.00  0.00     0.174 HD
ATOM     98  HN  UNK N   1      28.924  16.027  10.148  1.00  0.00     0.174 HD
HETATM   99  H   UNK N   1      30.438  19.525   9.319  0.00  0.00     0.174 HD
HETATM  100  H   UNK N   1      30.214  19.304  10.992  0.00  0.00     0.174 HD
HETATM  101  H   UNK N   1      28.071  18.733   8.384  0.00  0.00     0.177 HD
ENDBRANCH  92  93
ENDBRANCH  91  92
ENDBRANCH  90  91
ENDBRANCH  71  90
ENDBRANCH  68  71
ENDBRANCH  66  67
BRANCH  66 102
HETATM  102  C   UNK N   1      28.703  12.155   2.354  0.00  0.00     0.038 C 
BRANCH 102 103
HETATM  103  C   UNK N   1      27.382  11.436   2.595  0.00  0.00    -0.020 C 
HETATM  104  C   UNK N   1      26.695  11.051   1.295  0.00  0.00     0.009 C 
HETATM  105  C   UNK N   1      27.642  10.179   3.395  0.00  0.00     0.009 C 
ENDBRANCH 102 103
ENDBRANCH  66 102
ENDBRANCH  63  66
ENDBRANCH  61  62
BRANCH  61 106
HETATM  106  C   UNK N   1      27.129  17.262   3.459  0.00  0.00     0.036 C 
BRANCH 106 107
HETATM  107  C   UNK N   1      26.378  18.531   3.807  0.00  0.00     0.022 C 
BRANCH 107 108
HETATM  108  C   UNK N   1      27.359  19.629   4.193  0.00  0.00     0.124 C 
BRANCH 108 109
HETATM  109  N   UNK N   1      26.727  20.647   5.002  0.00  0.00    -0.343 N 
HETATM  110  C   UNK N   1      26.960  20.772   6.332  0.00  0.00     0.313 C 
HETATM  111  O   UNK N   1      27.710  19.999   6.909  0.00  0.00    -0.248 OA
HETATM  112  N   UNK N   1      26.372  21.767   7.023  0.00  0.00    -0.352 N 
HETATM  113  H   UNK N   1      25.468  22.070   6.779  0.00  0.00     0.160 HD
HETATM  114  H   UNK N   1      26.847  22.191   7.773  0.00  0.00     0.160 HD
HETATM  115  H   UNK N   1      26.103  21.274   4.570  0.00  0.00     0.164 HD
ENDBRANCH 108 109
ENDBRANCH 107 108
ENDBRANCH 106 107
ENDBRANCH  61 106
ENDBRANCH  58  61
ENDBRANCH   1  57
BRANCH   1 116
HETATM  116  C   UNK N   1      25.113  13.788   6.874  0.00  0.00     0.073 C 
BRANCH 116 117
HETATM  117  C   UNK N   1      24.535  13.059   8.065  0.00  0.00    -0.056 A 
HETATM  118  C   UNK N   1      23.508  12.130   7.853  0.00  0.00     0.010 A 
HETATM  119  C   UNK N   1      22.935  11.447   8.932  0.00  0.00     0.037 A 
HETATM  120  C   UNK N   1      23.379  11.696  10.233  0.00  0.00     0.065 A 
HETATM  121  C   UNK N   1      24.402  12.625  10.454  0.00  0.00     0.037 A 
HETATM  122  C   UNK N   1      24.979  13.303   9.375  0.00  0.00     0.010 A 
BRANCH 120 123
HETATM  123  O   UNK N   1      22.827  11.044  11.269  0.00  0.00    -0.361 OA
HETATM  124  H   UNK N   1      23.235  10.275  11.615  0.00  0.00     0.217 HD
ENDBRANCH 120 123
ENDBRANCH 116 117
ENDBRANCH   1 116
TORSDOF 40
ENDMDL
MODEL 5
REMARK VINA RESULT:      -8.1      2.291      4.989
REMARK WARNING: 32 MAX_TORS EXCEEDED!!!
REMARK  40 active torsions:
REMARK  status: ('A' for Active; 'I' for Inactive)
REMARK    1  A    between atoms: C_13  and  C_8 
REMARK    2  A    between atoms: C_13  and  C_11 
REMARK    3  A    between atoms: C_15  and  C_11 
REMARK    4  A    between atoms: C_11  and  N_12 
REMARK       I    between atoms: C_102  and  N_12 
REMARK       I    between atoms: C_15  and  N_14 
REMARK    5  A    between atoms: C_16  and  N_14 
REMARK    6  A    between atoms: C_16  and  C_19 
REMARK    7  A    between atoms: C_17  and  C_16 
REMARK       I    between atoms: N_21  and  C_17 
REMARK    8  A    between atoms: C_20  and  C_19 
REMARK    9  A    between atoms: C_27  and  N_21 
REMARK   10  A    between atoms: C_29  and  C_27 
REMARK   11  A    between atoms: C_27  and  C_28 
REMARK   12  A    between atoms: C_31  and  C_28 
REMARK       I    between atoms: N_30  and  C_29 
REMARK   13  A    between atoms: C_38  and  N_30 
REMARK   14  A    between atoms: C_39  and  C_38 
REMARK   15  A    between atoms: C_38  and  C_50 
REMARK       I    between atoms: N_41  and  C_39 
REMARK   16  A    between atoms: C_42  and  N_41 
REMARK   17  A    between atoms: C_44  and  C_42 
REMARK   18  A    between atoms: C_42  and  C_43 
REMARK   19  A    between atoms: C_46  and  C_43 
REMARK       I    between atoms: N_45  and  C_44 
REMARK   20  A    between atoms: C_59  and  N_45 
REMARK   21  A    between atoms: O_51  and  C_50 
REMARK   22  A    between atoms: O_58  and  C_54 
REMARK   23  A    between atoms: C_60  and  C_59 
REMARK   24  A    between atoms: C_59  and  C_74 
REMARK       I    between atoms: N_62  and  C_60 
REMARK   25  A    between atoms: C_63  and  N_62 
REMARK   26  A    between atoms: C_65  and  C_63 
REMARK   27  A    between atoms: C_63  and  C_64 
REMARK   28  A    between atoms: C_73  and  C_64 
REMARK       I    between atoms: N_66  and  C_65 
REMARK   29  A    between atoms: C_67  and  N_66 
REMARK   30  A    between atoms: C_68  and  C_67 
REMARK   31  A    between atoms: C_67  and  C_82 
REMARK       I    between atoms: N_70  and  C_68 
REMARK   32  A    between atoms: C_90  and  C_72 
REMARK       I    between atoms: N_94  and  C_72 
REMARK   33  A    between atoms: C_75  and  C_74 
REMARK   34  A    between atoms: C_76  and  C_75 
REMARK   35  A    between atoms: N_77  and  C_76 
REMARK       I    between atoms: C_78  and  N_77 
REMARK       I    between atoms: N_80  and  C_78 
REMARK   36  A    between atoms: C_83  and  C_82 
REMARK   37  A    between atoms: C_84  and  C_83 
REMARK   38  A    between atoms: N_85  and  C_84 
REMARK       I    between atoms: C_86  and  N_85 
REMARK       I    between atoms: N_89  and  C_86 
REMARK   39  A    between atoms: C_95  and  N_94 
REMARK   40  A    between atoms: C_96  and  C_95 
REMARK       I    between atoms: N_99  and  C_96 
ROOT
HETATM    1  C   UNK N   1      27.571  17.596   5.481  0.00  0.00     0.180 C 
ENDROOT
BRANCH   1   2
HETATM    2  N   UNK N   1      28.737  17.431   6.317  0.00  0.00    -0.346 N 
HETATM    3  C   UNK N   1      28.762  17.411   7.689  0.00  0.00     0.243 C 
HETATM    4  O   UNK N   1      27.743  17.415   8.361  0.00  0.00    -0.271 OA
HETATM    5  H   UNK N   1      29.601  17.322   5.857  0.00  0.00     0.163 HD
BRANCH   3   6
HETATM    6  C   UNK N   1      30.057  17.171   8.361  0.00  0.00     0.200 C 
BRANCH   6   7
HETATM    7  N   UNK N   1      30.917  16.910   7.246  0.00  0.00    -0.344 N 
HETATM    8  C   UNK N   1      31.876  15.961   7.368  0.00  0.00     0.241 C 
HETATM    9  O   UNK N   1      32.331  15.676   8.469  0.00  0.00    -0.271 OA
HETATM   10  H   UNK N   1      30.813  17.413   6.406  0.00  0.00     0.163 HD
BRANCH   8  11
HETATM   11  C   UNK N   1      32.072  15.026   6.224  0.00  0.00     0.180 C 
BRANCH  11  12
HETATM   12  N   UNK N   1      31.909  13.609   6.461  0.00  0.00    -0.346 N 
HETATM   13  C   UNK N   1      32.912  12.729   6.696  0.00  0.00     0.241 C 
HETATM   14  O   UNK N   1      32.627  11.567   6.932  0.00  0.00    -0.271 OA
HETATM   15  H   UNK N   1      30.990  13.253   6.451  0.00  0.00     0.163 HD
BRANCH  13  16
HETATM   16  C   UNK N   1      34.356  13.170   6.737  0.00  0.00     0.180 C 
BRANCH  16  17
HETATM   17  N   UNK N   1      34.915  12.963   8.048  0.00  0.00    -0.346 N 
HETATM   18  C   UNK N   1      35.443  13.953   8.808  0.00  0.00     0.241 C 
HETATM   19  O   UNK N   1      35.453  15.113   8.421  0.00  0.00    -0.271 OA
HETATM   20  H   UNK N   1      34.913  12.049   8.413  0.00  0.00     0.163 HD
BRANCH  18  21
HETATM   21  C   UNK N   1      35.998  13.603  10.148  0.00  0.00     0.180 C 
BRANCH  21  22
HETATM   22  C   UNK N   1      35.367  14.461  11.261  0.00  0.00     0.073 C 
BRANCH  22  23
HETATM   23  C   UNK N   1      35.451  13.868  12.648  0.00  0.00    -0.055 A 
HETATM   24  C   UNK N   1      34.742  12.694  12.930  0.00  0.00     0.019 A 
HETATM   25  C   UNK N   1      34.862  12.082  14.182  0.00  0.00    -0.025 A 
HETATM   26  C   UNK N   1      34.147  10.916  14.469  0.00  0.00     0.012 A 
HETATM   27  C   UNK N   1      35.717  12.640  15.162  0.00  0.00    -0.026 A 
HETATM   28  C   UNK N   1      34.284  10.301  15.718  0.00  0.00     0.001 A 
HETATM   29  C   UNK N   1      35.140  10.847  16.681  0.00  0.00     0.001 A 
HETATM   30  C   UNK N   1      35.855  12.016  16.404  0.00  0.00     0.012 A 
HETATM   31  C   UNK N   1      36.416  13.815  14.884  0.00  0.00     0.013 A 
HETATM   32  C   UNK N   1      36.277  14.430  13.638  0.00  0.00     0.008 A 
ENDBRANCH  22  23
ENDBRANCH  21  22
BRANCH  21  33
HETATM   33  N   UNK N   1      37.437  13.773  10.129  0.00  0.00    -0.348 N 
HETATM   34  C   UNK N   1      38.310  12.740  10.286  0.00  0.00     0.214 C 
HETATM   35  O   UNK N   1      39.507  12.947  10.196  0.00  0.00    -0.274 OA
HETATM   36  C   UNK N   1      37.837  11.346  10.569  0.00  0.00     0.117 C 
HETATM   37  H   UNK N   1      37.801  14.678   9.998  0.00  0.00     0.163 HD
ENDBRANCH  21  33
ENDBRANCH  18  21
ENDBRANCH  16  17
BRANCH  16  38
HETATM   38  C   UNK N   1      35.239  12.533   5.659  0.00  0.00     0.073 C 
BRANCH  38  39
HETATM   39  C   UNK N   1      36.682  12.933   5.727  0.00  0.00    -0.056 A 
HETATM   40  C   UNK N   1      37.598  12.059   6.322  0.00  0.00     0.009 A 
HETATM   41  C   UNK N   1      38.946  12.414   6.429  0.00  0.00     0.024 A 
HETATM   42  C   UNK N   1      39.387  13.645   5.937  0.00  0.00     0.034 A 
HETATM   43  C   UNK N   1      38.474  14.531   5.353  0.00  0.00     0.024 A 
HETATM   44 Cl   UNK N   1      41.084  14.066   6.033  0.00  0.00    -0.084 Cl
HETATM   45  C   UNK N   1      37.121  14.182   5.259  0.00  0.00     0.009 A 
ENDBRANCH  38  39
ENDBRANCH  16  38
ENDBRANCH  13  16
ENDBRANCH  11  12
BRANCH  11  46
HETATM   46  C   UNK N   1      31.705  15.517   4.827  0.00  0.00     0.074 C 
BRANCH  46  47
HETATM   47  C   UNK N   1      32.480  14.811   3.752  0.00  0.00    -0.040 A 
HETATM   48  C   UNK N   1      31.834  13.868   2.952  0.00  0.00     0.094 A 
HETATM   49  N   UNK N   1      32.515  13.222   1.968  0.00  0.00    -0.375 N 
HETATM   50  C   UNK N   1      33.832  13.472   1.729  0.00  0.00     0.087 A 
ATOM     51  HN  UNK N   1      32.028  12.533   1.395  1.00  0.00     0.164 HD
HETATM   52  C   UNK N   1      34.516  14.413   2.499  0.00  0.00     0.018 A 
HETATM   53  C   UNK N   1      33.834  15.085   3.513  0.00  0.00     0.010 A 
ENDBRANCH  46  47
ENDBRANCH  11  46
ENDBRANCH   8  11
ENDBRANCH   6   7
BRANCH   6  54
HETATM   54  C   UNK N   1      30.469  18.432   9.106  0.00  0.00     0.199 C 
BRANCH  54  55
HETATM   55  O   UNK N   1      29.687  18.584  10.256  0.00  0.00    -0.398 OA
HETATM   56  H   UNK N   1      28.731  18.423  10.279  0.00  0.00     0.209 HD
ENDBRANCH  54  55
ENDBRANCH   6  54
ENDBRANCH   3   6
ENDBRANCH   1   2
BRANCH   1  57
HETATM   57  C   UNK N   1      27.734  16.732   4.300  0.00  0.00     0.241 C 
HETATM   58  N   UNK N   1      26.851  15.716   4.166  0.00  0.00    -0.346 N 
HETATM   59  H   UNK N   1      26.015  15.795   4.680  0.00  0.00     0.163 HD
HETATM   60  O   UNK N   1      28.673  16.888   3.533  0.00  0.00    -0.271 OA
BRANCH  58  61
HETATM   61  C   UNK N   1      26.988  14.552   3.372  0.00  0.00     0.176 C 
BRANCH  61  62
HETATM   62  C   UNK N   1      25.764  14.472   2.554  0.00  0.00     0.241 C 
HETATM   63  N   UNK N   1      24.645  15.030   3.052  0.00  0.00    -0.346 N 
HETATM   64  H   UNK N   1      24.655  15.953   3.398  0.00  0.00     0.163 HD
HETATM   65  O   UNK N   1      25.731  13.779   1.548  0.00  0.00    -0.271 OA
BRANCH  63  66
HETATM   66  C   UNK N   1      23.457  14.268   3.069  0.00  0.00     0.177 C 
BRANCH  66  67
HETATM   67  C   UNK N   1      23.348  13.737   4.466  0.00  0.00     0.241 C 
HETATM   68  N   UNK N   1      22.527  12.691   4.743  0.00  0.00    -0.346 N 
HETATM   69  H   UNK N   1      21.680  12.596   4.250  0.00  0.00     0.163 HD
HETATM   70  O   UNK N   1      24.126  14.154   5.311  0.00  0.00    -0.271 OA
BRANCH  68  71
HETATM   71  C   UNK N   1      22.877  11.714   5.749  0.00  0.00     0.176 C 
BRANCH  71  72
HETATM   72  C   UNK N   1      21.981  11.993   6.931  0.00  0.00     0.243 C 
HETATM   73  N   UNK N   1      22.460  12.378   8.130  0.00  0.00    -0.337 N 
HETATM   74  C   UNK N   1      21.582  12.753   9.195  0.00  0.00     0.179 A 
HETATM   75  C   UNK N   1      23.864  12.482   8.416  0.00  0.00     0.127 A 
HETATM   76  C   UNK N   1      22.486  13.059  10.369  0.00  0.00     0.037 A 
HETATM   77  C   UNK N   1      23.922  12.997   9.844  0.00  0.00     0.022 A 
HETATM   78  O   UNK N   1      20.757  11.931   6.791  0.00  0.00    -0.271 OA
BRANCH  74  79
HETATM   79  C   UNK N   1      20.777  13.968   8.796  0.00  0.00     0.241 C 
HETATM   80  O   UNK N   1      19.656  14.133   9.261  0.00  0.00    -0.271 OA
HETATM   81  N   UNK N   1      21.310  14.881   7.946  0.00  0.00    -0.346 N 
HETATM   82  H   UNK N   1      22.244  14.773   7.653  0.00  0.00     0.163 HD
BRANCH  81  83
HETATM   83  C   UNK N   1      20.545  16.006   7.457  0.00  0.00     0.172 C 
HETATM   84  C   UNK N   1      20.323  17.007   8.582  0.00  0.00     0.042 C 
BRANCH  83  85
HETATM   85  C   UNK N   1      21.263  16.620   6.279  0.00  0.00     0.237 C 
HETATM   86  O   UNK N   1      22.477  16.740   6.311  0.00  0.00    -0.271 OA
HETATM   87  N   UNK N   1      20.583  17.057   5.200  0.00  0.00    -0.368 N 
HETATM   88  H   UNK N   1      19.652  16.842   4.964  0.00  0.00     0.159 HD
HETATM   89  H   UNK N   1      21.068  17.654   4.584  0.00  0.00     0.159 HD
ENDBRANCH  83  85
ENDBRANCH  81  83
ENDBRANCH  74  79
ENDBRANCH  71  72
BRANCH  71  90
HETATM   90  C   UNK N   1      22.701  10.263   5.303  0.00  0.00     0.036 C 
BRANCH  90  91
HETATM   91  C   UNK N   1      23.810   9.758   4.401  0.00  0.00     0.023 C 
BRANCH  91  92
HETATM   92  C   UNK N   1      25.110   9.727   5.195  0.00  0.00     0.138 C 
BRANCH  92  93
HETATM   93  N   UNK N   1      25.864   8.539   4.867  0.00  0.00    -0.227 N 
HETATM   94  C   UNK N   1      25.933   7.422   5.738  0.00  0.00     0.665 C 
HETATM   95  N   UNK N   1      25.396   7.466   6.902  0.00  0.00    -0.235 N 
HETATM   96  N   UNK N   1      26.555   6.234   5.299  0.00  0.00    -0.235 N 
HETATM   97  H   UNK N   1      25.266   6.905   7.700  0.00  0.00     0.174 HD
ATOM     98  HN  UNK N   1      24.964   8.378   7.049  1.00  0.00     0.174 HD
HETATM   99  H   UNK N   1      26.357   5.869   4.407  0.00  0.00     0.174 HD
HETATM  100  H   UNK N   1      27.191   5.769   5.888  0.00  0.00     0.174 HD
HETATM  101  H   UNK N   1      26.346   8.504   4.010  0.00  0.00     0.177 HD
ENDBRANCH  92  93
ENDBRANCH  91  92
ENDBRANCH  90  91
ENDBRANCH  71  90
ENDBRANCH  68  71
ENDBRANCH  66  67
BRANCH  66 102
HETATM  102  C   UNK N   1      22.236  15.076   2.658  0.00  0.00     0.038 C 
BRANCH 102 103
HETATM  103  C   UNK N   1      21.865  14.776   1.211  0.00  0.00    -0.020 C 
HETATM  104  C   UNK N   1      22.329  13.395   0.776  0.00  0.00     0.009 C 
HETATM  105  C   UNK N   1      20.361  14.851   1.061  0.00  0.00     0.009 C 
ENDBRANCH 102 103
ENDBRANCH  66 102
ENDBRANCH  63  66
ENDBRANCH  61  62
BRANCH  61 106
HETATM  106  C   UNK N   1      27.174  13.293   4.225  0.00  0.00     0.036 C 
BRANCH 106 107
HETATM  107  C   UNK N   1      28.616  13.149   4.666  0.00  0.00     0.022 C 
BRANCH 107 108
HETATM  108  C   UNK N   1      29.220  11.885   4.073  0.00  0.00     0.124 C 
BRANCH 108 109
HETATM  109  N   UNK N   1      29.994  11.155   5.052  0.00  0.00    -0.343 N 
HETATM  110  C   UNK N   1      29.731   9.864   5.375  0.00  0.00     0.313 C 
HETATM  111  O   UNK N   1      28.799   9.269   4.856  0.00  0.00    -0.248 OA
HETATM  112  N   UNK N   1      30.513   9.226   6.265  0.00  0.00    -0.352 N 
HETATM  113  H   UNK N   1      30.907   9.720   7.020  0.00  0.00     0.160 HD
HETATM  114  H   UNK N   1      30.691   8.263   6.162  0.00  0.00     0.160 HD
HETATM  115  H   UNK N   1      30.741  11.612   5.502  0.00  0.00     0.164 HD
ENDBRANCH 108 109
ENDBRANCH 107 108
ENDBRANCH 106 107
ENDBRANCH  61 106
ENDBRANCH  58  61
ENDBRANCH   1  57
BRANCH   1 116
HETATM  116  C   UNK N   1      27.432  19.057   5.013  0.00  0.00     0.073 C 
BRANCH 116 117
HETATM  117  C   UNK N   1      26.137  19.419   4.323  0.00  0.00    -0.056 A 
HETATM  118  C   UNK N   1      26.171  20.338   3.265  0.00  0.00     0.010 A 
HETATM  119  C   UNK N   1      24.991  20.711   2.612  0.00  0.00     0.037 A 
HETATM  120  C   UNK N   1      23.767  20.175   3.018  0.00  0.00     0.065 A 
HETATM  121  C   UNK N   1      23.724  19.260   4.075  0.00  0.00     0.037 A 
HETATM  122  C   UNK N   1      24.904  18.881   4.724  0.00  0.00     0.010 A 
BRANCH 120 123
HETATM  123  O   UNK N   1      22.634  20.537   2.394  0.00  0.00    -0.361 OA
HETATM  124  H   UNK N   1      22.555  21.390   2.016  0.00  0.00     0.217 HD
ENDBRANCH 120 123
ENDBRANCH 116 117
ENDBRANCH   1 116
TORSDOF 40
ENDMDL
MODEL 6
REMARK VINA RESULT:      -8.0      1.580      4.437
REMARK WARNING: 32 MAX_TORS EXCEEDED!!!
REMARK  40 active torsions:
REMARK  status: ('A' for Active; 'I' for Inactive)
REMARK    1  A    between atoms: C_13  and  C_8 
REMARK    2  A    between atoms: C_13  and  C_11 
REMARK    3  A    between atoms: C_15  and  C_11 
REMARK    4  A    between atoms: C_11  and  N_12 
REMARK       I    between atoms: C_102  and  N_12 
REMARK       I    between atoms: C_15  and  N_14 
REMARK    5  A    between atoms: C_16  and  N_14 
REMARK    6  A    between atoms: C_16  and  C_19 
REMARK    7  A    between atoms: C_17  and  C_16 
REMARK       I    between atoms: N_21  and  C_17 
REMARK    8  A    between atoms: C_20  and  C_19 
REMARK    9  A    between atoms: C_27  and  N_21 
REMARK   10  A    between atoms: C_29  and  C_27 
REMARK   11  A    between atoms: C_27  and  C_28 
REMARK   12  A    between atoms: C_31  and  C_28 
REMARK       I    between atoms: N_30  and  C_29 
REMARK   13  A    between atoms: C_38  and  N_30 
REMARK   14  A    between atoms: C_39  and  C_38 
REMARK   15  A    between atoms: C_38  and  C_50 
REMARK       I    between atoms: N_41  and  C_39 
REMARK   16  A    between atoms: C_42  and  N_41 
REMARK   17  A    between atoms: C_44  and  C_42 
REMARK   18  A    between atoms: C_42  and  C_43 
REMARK   19  A    between atoms: C_46  and  C_43 
REMARK       I    between atoms: N_45  and  C_44 
REMARK   20  A    between atoms: C_59  and  N_45 
REMARK   21  A    between atoms: O_51  and  C_50 
REMARK   22  A    between atoms: O_58  and  C_54 
REMARK   23  A    between atoms: C_60  and  C_59 
REMARK   24  A    between atoms: C_59  and  C_74 
REMARK       I    between atoms: N_62  and  C_60 
REMARK   25  A    between atoms: C_63  and  N_62 
REMARK   26  A    between atoms: C_65  and  C_63 
REMARK   27  A    between atoms: C_63  and  C_64 
REMARK   28  A    between atoms: C_73  and  C_64 
REMARK       I    between atoms: N_66  and  C_65 
REMARK   29  A    between atoms: C_67  and  N_66 
REMARK   30  A    between atoms: C_68  and  C_67 
REMARK   31  A    between atoms: C_67  and  C_82 
REMARK       I    between atoms: N_70  and  C_68 
REMARK   32  A    between atoms: C_90  and  C_72 
REMARK       I    between atoms: N_94  and  C_72 
REMARK   33  A    between atoms: C_75  and  C_74 
REMARK   34  A    between atoms: C_76  and  C_75 
REMARK   35  A    between atoms: N_77  and  C_76 
REMARK       I    between atoms: C_78  and  N_77 
REMARK       I    between atoms: N_80  and  C_78 
REMARK   36  A    between atoms: C_83  and  C_82 
REMARK   37  A    between atoms: C_84  and  C_83 
REMARK   38  A    between atoms: N_85  and  C_84 
REMARK       I    between atoms: C_86  and  N_85 
REMARK       I    between atoms: N_89  and  C_86 
REMARK   39  A    between atoms: C_95  and  N_94 
REMARK   40  A    between atoms: C_96  and  C_95 
REMARK       I    between atoms: N_99  and  C_96 
ROOT
HETATM    1  C   UNK N   1      27.595  15.732   4.802  0.00  0.00     0.180 C 
ENDROOT
BRANCH   1   2
HETATM    2  N   UNK N   1      28.622  14.908   4.207  0.00  0.00    -0.346 N 
HETATM    3  C   UNK N   1      29.753  14.438   4.828  0.00  0.00     0.243 C 
HETATM    4  O   UNK N   1      29.950  14.582   6.023  0.00  0.00    -0.271 OA
HETATM    5  H   UNK N   1      28.499  14.658   3.262  0.00  0.00     0.163 HD
BRANCH   3   6
HETATM    6  C   UNK N   1      30.656  13.556   4.057  0.00  0.00     0.200 C 
BRANCH   6   7
HETATM    7  N   UNK N   1      31.852  13.610   4.843  0.00  0.00    -0.344 N 
HETATM    8  C   UNK N   1      32.987  14.080   4.272  0.00  0.00     0.241 C 
HETATM    9  O   UNK N   1      33.150  14.008   3.060  0.00  0.00    -0.271 OA
HETATM   10  H   UNK N   1      31.849  13.310   5.780  0.00  0.00     0.163 HD
BRANCH   8  11
HETATM   11  C   UNK N   1      33.829  15.011   5.074  0.00  0.00     0.180 C 
BRANCH  11  12
HETATM   12  N   UNK N   1      35.198  14.635   5.347  0.00  0.00    -0.346 N 
HETATM   13  C   UNK N   1      35.699  14.313   6.564  0.00  0.00     0.241 C 
HETATM   14  O   UNK N   1      36.865  13.963   6.643  0.00  0.00    -0.271 OA
HETATM   15  H   UNK N   1      35.820  14.610   4.583  0.00  0.00     0.163 HD
BRANCH  13  16
HETATM   16  C   UNK N   1      34.833  14.315   7.801  0.00  0.00     0.180 C 
BRANCH  16  17
HETATM   17  N   UNK N   1      34.630  12.972   8.283  0.00  0.00    -0.346 N 
HETATM   18  C   UNK N   1      33.481  12.276   8.112  0.00  0.00     0.241 C 
HETATM   19  O   UNK N   1      32.534  12.752   7.502  0.00  0.00    -0.271 OA
HETATM   20  H   UNK N   1      35.369  12.536   8.765  0.00  0.00     0.163 HD
BRANCH  18  21
HETATM   21  C   UNK N   1      33.396  10.893   8.668  0.00  0.00     0.180 C 
BRANCH  21  22
HETATM   22  C   UNK N   1      34.796  10.298   8.913  0.00  0.00     0.073 C 
BRANCH  22  23
HETATM   23  C   UNK N   1      35.124  10.016  10.361  0.00  0.00    -0.055 A 
HETATM   24  C   UNK N   1      34.313  10.565  11.362  0.00  0.00     0.019 A 
HETATM   25  C   UNK N   1      34.549  10.258  12.706  0.00  0.00    -0.025 A 
HETATM   26  C   UNK N   1      33.747  10.812  13.707  0.00  0.00     0.012 A 
HETATM   27  C   UNK N   1      35.598   9.375  13.055  0.00  0.00    -0.026 A 
HETATM   28  C   UNK N   1      33.979  10.489  15.048  0.00  0.00     0.001 A 
HETATM   29  C   UNK N   1      35.009   9.606  15.391  0.00  0.00     0.001 A 
HETATM   30  C   UNK N   1      35.819   9.050  14.396  0.00  0.00     0.012 A 
HETATM   31  C   UNK N   1      36.412   8.835  12.059  0.00  0.00     0.013 A 
HETATM   32  C   UNK N   1      36.181   9.161  10.721  0.00  0.00     0.008 A 
ENDBRANCH  22  23
ENDBRANCH  21  22
BRANCH  21  33
HETATM   33  N   UNK N   1      32.640  10.057   7.759  0.00  0.00    -0.348 N 
HETATM   34  C   UNK N   1      31.835   9.041   8.178  0.00  0.00     0.214 C 
HETATM   35  O   UNK N   1      31.179   8.419   7.361  0.00  0.00    -0.274 OA
HETATM   36  C   UNK N   1      31.733   8.664   9.625  0.00  0.00     0.117 C 
HETATM   37  H   UNK N   1      32.711  10.230   6.792  0.00  0.00     0.163 HD
ENDBRANCH  21  33
ENDBRANCH  18  21
ENDBRANCH  16  17
BRANCH  16  38
HETATM   38  C   UNK N   1      35.338  15.228   8.923  0.00  0.00     0.073 C 
BRANCH  38  39
HETATM   39  C   UNK N   1      35.800  14.502  10.150  0.00  0.00    -0.056 A 
HETATM   40  C   UNK N   1      35.031  14.589  11.316  0.00  0.00     0.009 A 
HETATM   41  C   UNK N   1      35.448  13.949  12.486  0.00  0.00     0.024 A 
HETATM   42  C   UNK N   1      36.636  13.214  12.497  0.00  0.00     0.034 A 
HETATM   43  C   UNK N   1      37.418  13.134  11.339  0.00  0.00     0.024 A 
HETATM   44 Cl   UNK N   1      37.132  12.378  13.953  0.00  0.00    -0.084 Cl
HETATM   45  C   UNK N   1      37.008  13.788  10.170  0.00  0.00     0.009 A 
ENDBRANCH  38  39
ENDBRANCH  16  38
ENDBRANCH  13  16
ENDBRANCH  11  12
BRANCH  11  46
HETATM   46  C   UNK N   1      33.559  16.508   4.952  0.00  0.00     0.074 C 
BRANCH  46  47
HETATM   47  C   UNK N   1      32.945  17.081   6.196  0.00  0.00    -0.040 A 
HETATM   48  C   UNK N   1      31.572  16.944   6.405  0.00  0.00     0.094 A 
HETATM   49  N   UNK N   1      30.996  17.451   7.528  0.00  0.00    -0.375 N 
HETATM   50  C   UNK N   1      31.728  18.096   8.477  0.00  0.00     0.087 A 
ATOM     51  HN  UNK N   1      29.990  17.344   7.663  1.00  0.00     0.164 HD
HETATM   52  C   UNK N   1      33.105  18.250   8.313  0.00  0.00     0.018 A 
HETATM   53  C   UNK N   1      33.713  17.737   7.168  0.00  0.00     0.010 A 
ENDBRANCH  46  47
ENDBRANCH  11  46
ENDBRANCH   8  11
ENDBRANCH   6   7
BRANCH   6  54
HETATM   54  C   UNK N   1      30.067  12.153   4.026  0.00  0.00     0.199 C 
BRANCH  54  55
HETATM   55  O   UNK N   1      28.991  12.067   4.917  0.00  0.00    -0.398 OA
HETATM   56  H   UNK N   1      28.319  12.759   5.012  0.00  0.00     0.209 HD
ENDBRANCH  54  55
ENDBRANCH   6  54
ENDBRANCH   3   6
ENDBRANCH   1   2
BRANCH   1  57
HETATM   57  C   UNK N   1      26.399  14.896   4.998  0.00  0.00     0.241 C 
HETATM   58  N   UNK N   1      25.212  15.448   4.658  0.00  0.00    -0.346 N 
HETATM   59  H   UNK N   1      25.250  16.223   4.052  0.00  0.00     0.163 HD
HETATM   60  O   UNK N   1      26.484  13.794   5.518  0.00  0.00    -0.271 OA
BRANCH  58  61
HETATM   61  C   UNK N   1      23.921  15.040   5.071  0.00  0.00     0.176 C 
BRANCH  61  62
HETATM   62  C   UNK N   1      23.127  14.892   3.837  0.00  0.00     0.241 C 
HETATM   63  N   UNK N   1      21.849  14.488   3.964  0.00  0.00    -0.346 N 
HETATM   64  H   UNK N   1      21.242  14.933   4.600  0.00  0.00     0.163 HD
HETATM   65  O   UNK N   1      23.660  14.968   2.740  0.00  0.00    -0.271 OA
BRANCH  63  66
HETATM   66  C   UNK N   1      21.396  13.414   3.168  0.00  0.00     0.177 C 
BRANCH  66  67
HETATM   67  C   UNK N   1      21.356  12.231   4.085  0.00  0.00     0.241 C 
HETATM   68  N   UNK N   1      22.481  11.817   4.725  0.00  0.00    -0.346 N 
HETATM   69  H   UNK N   1      23.352  11.900   4.275  0.00  0.00     0.163 HD
HETATM   70  O   UNK N   1      20.269  11.750   4.371  0.00  0.00    -0.271 OA
BRANCH  68  71
HETATM   71  C   UNK N   1      22.418  11.259   6.057  0.00  0.00     0.176 C 
BRANCH  71  72
HETATM   72  C   UNK N   1      23.472  10.179   6.106  0.00  0.00     0.243 C 
HETATM   73  N   UNK N   1      23.176   8.871   5.975  0.00  0.00    -0.337 N 
HETATM   74  C   UNK N   1      24.206   7.881   5.904  0.00  0.00     0.179 A 
HETATM   75  C   UNK N   1      21.832   8.379   5.856  0.00  0.00     0.127 A 
HETATM   76  C   UNK N   1      23.480   6.556   5.818  0.00  0.00     0.037 A 
HETATM   77  C   UNK N   1      21.991   6.880   5.675  0.00  0.00     0.022 A 
HETATM   78  O   UNK N   1      24.660  10.495   6.208  0.00  0.00    -0.271 OA
BRANCH  74  79
HETATM   79  C   UNK N   1      25.061   8.114   4.680  0.00  0.00     0.241 C 
HETATM   80  O   UNK N   1      24.599   7.896   3.566  0.00  0.00    -0.271 OA
HETATM   81  N   UNK N   1      26.324   8.587   4.819  0.00  0.00    -0.346 N 
HETATM   82  H   UNK N   1      26.645   8.838   5.716  0.00  0.00     0.163 HD
BRANCH  81  83
HETATM   83  C   UNK N   1      27.214   8.731   3.689  0.00  0.00     0.172 C 
HETATM   84  C   UNK N   1      26.974  10.073   3.013  0.00  0.00     0.042 C 
BRANCH  83  85
HETATM   85  C   UNK N   1      28.641   8.575   4.158  0.00  0.00     0.237 C 
HETATM   86  O   UNK N   1      29.555   8.737   3.366  0.00  0.00    -0.271 OA
HETATM   87  N   UNK N   1      28.922   8.241   5.434  0.00  0.00    -0.368 N 
HETATM   88  H   UNK N   1      28.307   8.280   6.202  0.00  0.00     0.159 HD
HETATM   89  H   UNK N   1      29.837   7.924   5.616  0.00  0.00     0.159 HD
ENDBRANCH  83  85
ENDBRANCH  81  83
ENDBRANCH  74  79
ENDBRANCH  71  72
BRANCH  71  90
HETATM   90  C   UNK N   1      22.670  12.272   7.174  0.00  0.00     0.036 C 
BRANCH  90  91
HETATM   91  C   UNK N   1      21.436  12.607   7.989  0.00  0.00     0.023 C 
BRANCH  91  92
HETATM   92  C   UNK N   1      21.861  13.414   9.211  0.00  0.00     0.138 C 
BRANCH  92  93
HETATM   93  N   UNK N   1      21.703  12.622  10.408  0.00  0.00    -0.227 N 
HETATM   94  C   UNK N   1      22.803  12.267  11.230  0.00  0.00     0.665 C 
HETATM   95  N   UNK N   1      24.001  12.564  10.884  0.00  0.00    -0.235 N 
HETATM   96  N   UNK N   1      22.569  11.625  12.465  0.00  0.00    -0.235 N 
HETATM   97  H   UNK N   1      24.928  12.474  11.203  0.00  0.00     0.174 HD
ATOM     98  HN  UNK N   1      23.991  13.050   9.988  1.00  0.00     0.174 HD
HETATM   99  H   UNK N   1      21.872  11.957  13.075  0.00  0.00     0.174 HD
HETATM  100  H   UNK N   1      23.106  10.840  12.717  0.00  0.00     0.174 HD
HETATM  101  H   UNK N   1      20.802  12.318  10.662  0.00  0.00     0.177 HD
ENDBRANCH  92  93
ENDBRANCH  91  92
ENDBRANCH  90  91
ENDBRANCH  71  90
ENDBRANCH  68  71
ENDBRANCH  66  67
BRANCH  66 102
HETATM  102  C   UNK N   1      20.048  13.693   2.520  0.00  0.00     0.038 C 
BRANCH 102 103
HETATM  103  C   UNK N   1      20.198  13.795   1.007  0.00  0.00    -0.020 C 
HETATM  104  C   UNK N   1      19.361  12.757   0.278  0.00  0.00     0.009 C 
HETATM  105  C   UNK N   1      19.759  15.172   0.560  0.00  0.00     0.009 C 
ENDBRANCH 102 103
ENDBRANCH  66 102
ENDBRANCH  63  66
ENDBRANCH  61  62
BRANCH  61 106
HETATM  106  C   UNK N   1      23.279  16.047   6.031  0.00  0.00     0.036 C 
BRANCH 106 107
HETATM  107  C   UNK N   1      23.093  17.391   5.356  0.00  0.00     0.022 C 
BRANCH 107 108
HETATM  108  C   UNK N   1      21.908  18.122   5.968  0.00  0.00     0.124 C 
BRANCH 108 109
HETATM  109  N   UNK N   1      21.112  17.245   6.798  0.00  0.00    -0.343 N 
HETATM  110  C   UNK N   1      20.386  17.696   7.851  0.00  0.00     0.313 C 
HETATM  111  O   UNK N   1      20.397  18.879   8.155  0.00  0.00    -0.248 OA
HETATM  112  N   UNK N   1      19.633  16.834   8.560  0.00  0.00    -0.352 N 
HETATM  113  H   UNK N   1      19.935  15.907   8.694  0.00  0.00     0.160 HD
HETATM  114  H   UNK N   1      18.778  17.133   8.947  0.00  0.00     0.160 HD
HETATM  115  H   UNK N   1      21.097  16.282   6.590  0.00  0.00     0.164 HD
ENDBRANCH 108 109
ENDBRANCH 107 108
ENDBRANCH 106 107
ENDBRANCH  61 106
ENDBRANCH  58  61
ENDBRANCH   1  57
BRANCH   1 116
HETATM  116  C   UNK N   1      27.233  16.911   3.878  0.00  0.00     0.073 C 
BRANCH 116 117
HETATM  117  C   UNK N   1      27.240  18.283   4.511  0.00  0.00    -0.056 A 
HETATM  118  C   UNK N   1      27.775  18.430   5.798  0.00  0.00     0.010 A 
HETATM  119  C   UNK N   1      27.783  19.681   6.424  0.00  0.00     0.037 A 
HETATM  120  C   UNK N   1      27.248  20.794   5.772  0.00  0.00     0.065 A 
HETATM  121  C   UNK N   1      26.709  20.656   4.488  0.00  0.00     0.037 A 
HETATM  122  C   UNK N   1      26.707  19.407   3.859  0.00  0.00     0.010 A 
BRANCH 120 123
HETATM  123  O   UNK N   1      27.252  21.994   6.375  0.00  0.00    -0.361 OA
HETATM  124  H   UNK N   1      28.037  22.506   6.402  0.00  0.00     0.217 HD
ENDBRANCH 120 123
ENDBRANCH 116 117
ENDBRANCH   1 116
TORSDOF 40
ENDMDL
MODEL 7
REMARK VINA RESULT:      -8.0      3.390     11.963
REMARK WARNING: 32 MAX_TORS EXCEEDED!!!
REMARK  40 active torsions:
REMARK  status: ('A' for Active; 'I' for Inactive)
REMARK    1  A    between atoms: C_13  and  C_8 
REMARK    2  A    between atoms: C_13  and  C_11 
REMARK    3  A    between atoms: C_15  and  C_11 
REMARK    4  A    between atoms: C_11  and  N_12 
REMARK       I    between atoms: C_102  and  N_12 
REMARK       I    between atoms: C_15  and  N_14 
REMARK    5  A    between atoms: C_16  and  N_14 
REMARK    6  A    between atoms: C_16  and  C_19 
REMARK    7  A    between atoms: C_17  and  C_16 
REMARK       I    between atoms: N_21  and  C_17 
REMARK    8  A    between atoms: C_20  and  C_19 
REMARK    9  A    between atoms: C_27  and  N_21 
REMARK   10  A    between atoms: C_29  and  C_27 
REMARK   11  A    between atoms: C_27  and  C_28 
REMARK   12  A    between atoms: C_31  and  C_28 
REMARK       I    between atoms: N_30  and  C_29 
REMARK   13  A    between atoms: C_38  and  N_30 
REMARK   14  A    between atoms: C_39  and  C_38 
REMARK   15  A    between atoms: C_38  and  C_50 
REMARK       I    between atoms: N_41  and  C_39 
REMARK   16  A    between atoms: C_42  and  N_41 
REMARK   17  A    between atoms: C_44  and  C_42 
REMARK   18  A    between atoms: C_42  and  C_43 
REMARK   19  A    between atoms: C_46  and  C_43 
REMARK       I    between atoms: N_45  and  C_44 
REMARK   20  A    between atoms: C_59  and  N_45 
REMARK   21  A    between atoms: O_51  and  C_50 
REMARK   22  A    between atoms: O_58  and  C_54 
REMARK   23  A    between atoms: C_60  and  C_59 
REMARK   24  A    between atoms: C_59  and  C_74 
REMARK       I    between atoms: N_62  and  C_60 
REMARK   25  A    between atoms: C_63  and  N_62 
REMARK   26  A    between atoms: C_65  and  C_63 
REMARK   27  A    between atoms: C_63  and  C_64 
REMARK   28  A    between atoms: C_73  and  C_64 
REMARK       I    between atoms: N_66  and  C_65 
REMARK   29  A    between atoms: C_67  and  N_66 
REMARK   30  A    between atoms: C_68  and  C_67 
REMARK   31  A    between atoms: C_67  and  C_82 
REMARK       I    between atoms: N_70  and  C_68 
REMARK   32  A    between atoms: C_90  and  C_72 
REMARK       I    between atoms: N_94  and  C_72 
REMARK   33  A    between atoms: C_75  and  C_74 
REMARK   34  A    between atoms: C_76  and  C_75 
REMARK   35  A    between atoms: N_77  and  C_76 
REMARK       I    between atoms: C_78  and  N_77 
REMARK       I    between atoms: N_80  and  C_78 
REMARK   36  A    between atoms: C_83  and  C_82 
REMARK   37  A    between atoms: C_84  and  C_83 
REMARK   38  A    between atoms: N_85  and  C_84 
REMARK       I    between atoms: C_86  and  N_85 
REMARK       I    between atoms: N_89  and  C_86 
REMARK   39  A    between atoms: C_95  and  N_94 
REMARK   40  A    between atoms: C_96  and  C_95 
REMARK       I    between atoms: N_99  and  C_96 
ROOT
HETATM    1  C   UNK N   1      24.565  15.186   6.270  0.00  0.00     0.180 C 
ENDROOT
BRANCH   1   2
HETATM    2  N   UNK N   1      23.144  14.924   6.272  0.00  0.00    -0.346 N 
HETATM    3  C   UNK N   1      22.149  15.815   6.589  0.00  0.00     0.243 C 
HETATM    4  O   UNK N   1      22.373  16.997   6.797  0.00  0.00    -0.271 OA
HETATM    5  H   UNK N   1      22.860  14.015   6.021  0.00  0.00     0.163 HD
BRANCH   3   6
HETATM    6  C   UNK N   1      20.745  15.365   6.473  0.00  0.00     0.200 C 
BRANCH   6   7
HETATM    7  N   UNK N   1      20.596  15.247   5.054  0.00  0.00    -0.344 N 
HETATM    8  C   UNK N   1      19.530  15.833   4.458  0.00  0.00     0.241 C 
HETATM    9  O   UNK N   1      18.498  16.031   5.087  0.00  0.00    -0.271 OA
HETATM   10  H   UNK N   1      21.256  14.747   4.522  0.00  0.00     0.163 HD
BRANCH   8  11
HETATM   11  C   UNK N   1      19.769  16.566   3.183  0.00  0.00     0.180 C 
BRANCH  11  12
HETATM   12  N   UNK N   1      19.412  15.915   1.942  0.00  0.00    -0.346 N 
HETATM   13  C   UNK N   1      20.094  14.900   1.360  0.00  0.00     0.241 C 
HETATM   14  O   UNK N   1      19.650  14.408   0.335  0.00  0.00    -0.271 OA
HETATM   15  H   UNK N   1      18.604  16.238   1.480  0.00  0.00     0.163 HD
BRANCH  13  16
HETATM   16  C   UNK N   1      21.344  14.327   1.985  0.00  0.00     0.180 C 
BRANCH  16  17
HETATM   17  N   UNK N   1      21.170  12.928   2.281  0.00  0.00    -0.346 N 
HETATM   18  C   UNK N   1      21.614  12.337   3.417  0.00  0.00     0.241 C 
HETATM   19  O   UNK N   1      22.181  12.981   4.288  0.00  0.00    -0.271 OA
HETATM   20  H   UNK N   1      20.702  12.369   1.620  0.00  0.00     0.163 HD
BRANCH  18  21
HETATM   21  C   UNK N   1      21.376  10.875   3.598  0.00  0.00     0.180 C 
BRANCH  21  22
HETATM   22  C   UNK N   1      22.480  10.037   2.926  0.00  0.00     0.073 C 
BRANCH  22  23
HETATM   23  C   UNK N   1      23.390   9.298   3.881  0.00  0.00    -0.055 A 
HETATM   24  C   UNK N   1      22.840   8.708   5.025  0.00  0.00     0.019 A 
HETATM   25  C   UNK N   1      23.647   7.955   5.885  0.00  0.00    -0.025 A 
HETATM   26  C   UNK N   1      23.102   7.373   7.033  0.00  0.00     0.012 A 
HETATM   27  C   UNK N   1      25.018   7.773   5.589  0.00  0.00    -0.026 A 
HETATM   28  C   UNK N   1      23.911   6.609   7.881  0.00  0.00     0.001 A 
HETATM   29  C   UNK N   1      25.264   6.419   7.579  0.00  0.00     0.001 A 
HETATM   30  C   UNK N   1      25.818   7.001   6.435  0.00  0.00     0.012 A 
HETATM   31  C   UNK N   1      25.568   8.369   4.453  0.00  0.00     0.013 A 
HETATM   32  C   UNK N   1      24.760   9.134   3.609  0.00  0.00     0.008 A 
ENDBRANCH  22  23
ENDBRANCH  21  22
BRANCH  21  33
HETATM   33  N   UNK N   1      20.077  10.530   3.059  0.00  0.00    -0.348 N 
HETATM   34  C   UNK N   1      19.106   9.918   3.791  0.00  0.00     0.214 C 
HETATM   35  O   UNK N   1      18.014   9.715   3.289  0.00  0.00    -0.274 OA
HETATM   36  C   UNK N   1      19.343   9.485   5.206  0.00  0.00     0.117 C 
HETATM   37  H   UNK N   1      19.887  10.747   2.117  0.00  0.00     0.163 HD
ENDBRANCH  21  33
ENDBRANCH  18  21
ENDBRANCH  16  17
BRANCH  16  38
HETATM   38  C   UNK N   1      22.620  14.559   1.168  0.00  0.00     0.073 C 
BRANCH  38  39
HETATM   39  C   UNK N   1      23.433  13.323   0.928  0.00  0.00    -0.056 A 
HETATM   40  C   UNK N   1      24.617  13.142   1.651  0.00  0.00     0.009 A 
HETATM   41  C   UNK N   1      25.414  12.015   1.430  0.00  0.00     0.024 A 
HETATM   42  C   UNK N   1      25.029  11.060   0.486  0.00  0.00     0.034 A 
HETATM   43  C   UNK N   1      23.854  11.240  -0.251  0.00  0.00     0.024 A 
HETATM   44 Cl   UNK N   1      26.008   9.628   0.244  0.00  0.00    -0.084 Cl
HETATM   45  C   UNK N   1      23.062  12.376  -0.041  0.00  0.00     0.009 A 
ENDBRANCH  38  39
ENDBRANCH  16  38
ENDBRANCH  13  16
ENDBRANCH  11  12
BRANCH  11  46
HETATM   46  C   UNK N   1      19.655  18.087   3.197  0.00  0.00     0.074 C 
BRANCH  46  47
HETATM   47  C   UNK N   1      20.996  18.761   3.185  0.00  0.00    -0.040 A 
HETATM   48  C   UNK N   1      21.143  19.975   2.513  0.00  0.00     0.094 A 
HETATM   49  N   UNK N   1      22.348  20.607   2.495  0.00  0.00    -0.375 N 
HETATM   50  C   UNK N   1      23.436  20.086   3.126  0.00  0.00     0.087 A 
ATOM     51  HN  UNK N   1      22.439  21.492   1.996  1.00  0.00     0.164 HD
HETATM   52  C   UNK N   1      23.333  18.878   3.816  0.00  0.00     0.018 A 
HETATM   53  C   UNK N   1      22.106  18.216   3.846  0.00  0.00     0.010 A 
ENDBRANCH  46  47
ENDBRANCH  11  46
ENDBRANCH   8  11
ENDBRANCH   6   7
BRANCH   6  54
HETATM   54  C   UNK N   1      20.600  14.019   7.168  0.00  0.00     0.199 C 
BRANCH  54  55
HETATM   55  O   UNK N   1      21.206  14.065   8.428  0.00  0.00    -0.398 OA
HETATM   56  H   UNK N   1      20.758  13.803   9.247  0.00  0.00     0.209 HD
ENDBRANCH  54  55
ENDBRANCH   6  54
ENDBRANCH   3   6
ENDBRANCH   1   2
BRANCH   1  57
HETATM   57  C   UNK N   1      24.976  15.444   4.880  0.00  0.00     0.241 C 
HETATM   58  N   UNK N   1      26.300  15.610   4.661  0.00  0.00    -0.346 N 
HETATM   59  H   UNK N   1      26.903  15.268   5.360  0.00  0.00     0.163 HD
HETATM   60  O   UNK N   1      24.144  15.580   3.995  0.00  0.00    -0.271 OA
BRANCH  58  61
HETATM   61  C   UNK N   1      26.921  16.218   3.543  0.00  0.00     0.176 C 
BRANCH  61  62
HETATM   62  C   UNK N   1      27.476  15.115   2.737  0.00  0.00     0.241 C 
HETATM   63  N   UNK N   1      27.946  14.039   3.396  0.00  0.00    -0.346 N 
HETATM   64  H   UNK N   1      27.401  13.595   4.086  0.00  0.00     0.163 HD
HETATM   65  O   UNK N   1      27.657  15.250   1.537  0.00  0.00    -0.271 OA
BRANCH  63  66
HETATM   66  C   UNK N   1      29.235  13.559   3.078  0.00  0.00     0.177 C 
BRANCH  66  67
HETATM   67  C   UNK N   1      29.998  13.591   4.366  0.00  0.00     0.241 C 
HETATM   68  N   UNK N   1      30.866  14.603   4.628  0.00  0.00    -0.346 N 
HETATM   69  H   UNK N   1      31.380  15.003   3.890  0.00  0.00     0.163 HD
HETATM   70  O   UNK N   1      29.706  12.785   5.238  0.00  0.00    -0.271 OA
BRANCH  68  71
HETATM   71  C   UNK N   1      31.044  15.102   5.973  0.00  0.00     0.176 C 
BRANCH  71  72
HETATM   72  C   UNK N   1      32.198  14.324   6.556  0.00  0.00     0.243 C 
HETATM   73  N   UNK N   1      33.370  14.169   5.909  0.00  0.00    -0.337 N 
HETATM   74  C   UNK N   1      34.486  13.532   6.537  0.00  0.00     0.179 A 
HETATM   75  C   UNK N   1      33.602  14.660   4.580  0.00  0.00     0.127 A 
HETATM   76  C   UNK N   1      35.572  13.502   5.484  0.00  0.00     0.037 A 
HETATM   77  C   UNK N   1      35.052  14.312   4.294  0.00  0.00     0.022 A 
HETATM   78  O   UNK N   1      32.101  13.858   7.695  0.00  0.00    -0.271 OA
BRANCH  74  79
HETATM   79  C   UNK N   1      34.920  14.326   7.746  0.00  0.00     0.241 C 
HETATM   80  O   UNK N   1      35.264  15.494   7.614  0.00  0.00    -0.271 OA
HETATM   81  N   UNK N   1      34.903  13.750   8.974  0.00  0.00    -0.346 N 
HETATM   82  H   UNK N   1      34.541  12.838   9.070  0.00  0.00     0.163 HD
BRANCH  81  83
HETATM   83  C   UNK N   1      35.402  14.434  10.145  0.00  0.00     0.172 C 
HETATM   84  C   UNK N   1      34.237  14.963  10.970  0.00  0.00     0.042 C 
BRANCH  83  85
HETATM   85  C   UNK N   1      36.279  13.491  10.935  0.00  0.00     0.237 C 
HETATM   86  O   UNK N   1      35.834  12.412  11.291  0.00  0.00    -0.271 OA
HETATM   87  N   UNK N   1      37.540  13.831  11.271  0.00  0.00    -0.368 N 
HETATM   88  H   UNK N   1      38.076  14.561  10.886  0.00  0.00     0.159 HD
HETATM   89  H   UNK N   1      37.970  13.292  11.975  0.00  0.00     0.159 HD
ENDBRANCH  83  85
ENDBRANCH  81  83
ENDBRANCH  74  79
ENDBRANCH  71  72
BRANCH  71  90
HETATM   90  C   UNK N   1      31.344  16.599   6.052  0.00  0.00     0.036 C 
BRANCH  90  91
HETATM   91  C   UNK N   1      32.095  17.011   7.304  0.00  0.00     0.023 C 
BRANCH  91  92
HETATM   92  C   UNK N   1      31.165  17.840   8.181  0.00  0.00     0.138 C 
BRANCH  92  93
HETATM   93  N   UNK N   1      30.930  17.163   9.435  0.00  0.00    -0.227 N 
HETATM   94  C   UNK N   1      29.635  17.046  10.000  0.00  0.00     0.665 C 
HETATM   95  N   UNK N   1      28.628  17.624   9.456  0.00  0.00    -0.235 N 
HETATM   96  N   UNK N   1      29.446  16.243  11.146  0.00  0.00    -0.235 N 
HETATM   97  H   UNK N   1      27.659  17.737   9.580  0.00  0.00     0.174 HD
ATOM     98  HN  UNK N   1      28.931  18.134   8.625  1.00  0.00     0.174 HD
HETATM   99  H   UNK N   1      29.844  15.344  11.195  0.00  0.00     0.174 HD
HETATM  100  H   UNK N   1      28.913  16.584  11.899  0.00  0.00     0.174 HD
HETATM  101  H   UNK N   1      31.695  16.769   9.913  0.00  0.00     0.177 HD
ENDBRANCH  92  93
ENDBRANCH  91  92
ENDBRANCH  90  91
ENDBRANCH  71  90
ENDBRANCH  68  71
ENDBRANCH  66  67
BRANCH  66 102
HETATM  102  C   UNK N   1      29.206  12.173   2.453  0.00  0.00     0.038 C 
BRANCH 102 103
HETATM  103  C   UNK N   1      29.868  12.195   1.081  0.00  0.00    -0.020 C 
HETATM  104  C   UNK N   1      31.329  11.781   1.144  0.00  0.00     0.009 C 
HETATM  105  C   UNK N   1      29.133  11.243   0.163  0.00  0.00     0.009 C 
ENDBRANCH 102 103
ENDBRANCH  66 102
ENDBRANCH  63  66
ENDBRANCH  61  62
BRANCH  61 106
HETATM  106  C   UNK N   1      28.011  17.210   3.959  0.00  0.00     0.036 C 
BRANCH 106 107
HETATM  107  C   UNK N   1      27.400  18.492   4.486  0.00  0.00     0.022 C 
BRANCH 107 108
HETATM  108  C   UNK N   1      28.111  18.925   5.760  0.00  0.00     0.124 C 
BRANCH 108 109
HETATM  109  N   UNK N   1      27.173  19.353   6.773  0.00  0.00    -0.343 N 
HETATM  110  C   UNK N   1      26.890  20.660   7.002  0.00  0.00     0.313 C 
HETATM  111  O   UNK N   1      27.447  21.539   6.361  0.00  0.00    -0.248 OA
HETATM  112  N   UNK N   1      25.976  20.993   7.932  0.00  0.00    -0.352 N 
HETATM  113  H   UNK N   1      25.880  20.449   8.747  0.00  0.00     0.160 HD
HETATM  114  H   UNK N   1      25.403  21.782   7.797  0.00  0.00     0.160 HD
HETATM  115  H   UNK N   1      26.721  18.669   7.319  0.00  0.00     0.164 HD
ENDBRANCH 108 109
ENDBRANCH 107 108
ENDBRANCH 106 107
ENDBRANCH  61 106
ENDBRANCH  58  61
ENDBRANCH   1  57
BRANCH   1 116
HETATM  116  C   UNK N   1      25.348  13.973   6.804  0.00  0.00     0.073 C 
BRANCH 116 117
HETATM  117  C   UNK N   1      24.652  13.134   7.850  0.00  0.00    -0.056 A 
HETATM  118  C   UNK N   1      24.733  13.526   9.193  0.00  0.00     0.010 A 
HETATM  119  C   UNK N   1      24.115  12.766  10.193  0.00  0.00     0.037 A 
HETATM  120  C   UNK N   1      23.419  11.603   9.857  0.00  0.00     0.065 A 
HETATM  121  C   UNK N   1      23.336  11.201   8.520  0.00  0.00     0.037 A 
HETATM  122  C   UNK N   1      23.948  11.965   7.519  0.00  0.00     0.010 A 
BRANCH 120 123
HETATM  123  O   UNK N   1      22.830  10.870  10.818  0.00  0.00    -0.361 OA
HETATM  124  H   UNK N   1      23.093  10.966  11.711  0.00  0.00     0.217 HD
ENDBRANCH 120 123
ENDBRANCH 116 117
ENDBRANCH   1 116
TORSDOF 40
ENDMDL
MODEL 8
REMARK VINA RESULT:      -8.0      2.662      5.705
REMARK WARNING: 32 MAX_TORS EXCEEDED!!!
REMARK  40 active torsions:
REMARK  status: ('A' for Active; 'I' for Inactive)
REMARK    1  A    between atoms: C_13  and  C_8 
REMARK    2  A    between atoms: C_13  and  C_11 
REMARK    3  A    between atoms: C_15  and  C_11 
REMARK    4  A    between atoms: C_11  and  N_12 
REMARK       I    between atoms: C_102  and  N_12 
REMARK       I    between atoms: C_15  and  N_14 
REMARK    5  A    between atoms: C_16  and  N_14 
REMARK    6  A    between atoms: C_16  and  C_19 
REMARK    7  A    between atoms: C_17  and  C_16 
REMARK       I    between atoms: N_21  and  C_17 
REMARK    8  A    between atoms: C_20  and  C_19 
REMARK    9  A    between atoms: C_27  and  N_21 
REMARK   10  A    between atoms: C_29  and  C_27 
REMARK   11  A    between atoms: C_27  and  C_28 
REMARK   12  A    between atoms: C_31  and  C_28 
REMARK       I    between atoms: N_30  and  C_29 
REMARK   13  A    between atoms: C_38  and  N_30 
REMARK   14  A    between atoms: C_39  and  C_38 
REMARK   15  A    between atoms: C_38  and  C_50 
REMARK       I    between atoms: N_41  and  C_39 
REMARK   16  A    between atoms: C_42  and  N_41 
REMARK   17  A    between atoms: C_44  and  C_42 
REMARK   18  A    between atoms: C_42  and  C_43 
REMARK   19  A    between atoms: C_46  and  C_43 
REMARK       I    between atoms: N_45  and  C_44 
REMARK   20  A    between atoms: C_59  and  N_45 
REMARK   21  A    between atoms: O_51  and  C_50 
REMARK   22  A    between atoms: O_58  and  C_54 
REMARK   23  A    between atoms: C_60  and  C_59 
REMARK   24  A    between atoms: C_59  and  C_74 
REMARK       I    between atoms: N_62  and  C_60 
REMARK   25  A    between atoms: C_63  and  N_62 
REMARK   26  A    between atoms: C_65  and  C_63 
REMARK   27  A    between atoms: C_63  and  C_64 
REMARK   28  A    between atoms: C_73  and  C_64 
REMARK       I    between atoms: N_66  and  C_65 
REMARK   29  A    between atoms: C_67  and  N_66 
REMARK   30  A    between atoms: C_68  and  C_67 
REMARK   31  A    between atoms: C_67  and  C_82 
REMARK       I    between atoms: N_70  and  C_68 
REMARK   32  A    between atoms: C_90  and  C_72 
REMARK       I    between atoms: N_94  and  C_72 
REMARK   33  A    between atoms: C_75  and  C_74 
REMARK   34  A    between atoms: C_76  and  C_75 
REMARK   35  A    between atoms: N_77  and  C_76 
REMARK       I    between atoms: C_78  and  N_77 
REMARK       I    between atoms: N_80  and  C_78 
REMARK   36  A    between atoms: C_83  and  C_82 
REMARK   37  A    between atoms: C_84  and  C_83 
REMARK   38  A    between atoms: N_85  and  C_84 
REMARK       I    between atoms: C_86  and  N_85 
REMARK       I    between atoms: N_89  and  C_86 
REMARK   39  A    between atoms: C_95  and  N_94 
REMARK   40  A    between atoms: C_96  and  C_95 
REMARK       I    between atoms: N_99  and  C_96 
ROOT
HETATM    1  C   UNK N   1      26.410  15.702   5.735  0.00  0.00     0.180 C 
ENDROOT
BRANCH   1   2
HETATM    2  N   UNK N   1      27.005  16.508   6.776  0.00  0.00    -0.346 N 
HETATM    3  C   UNK N   1      28.175  17.220   6.690  0.00  0.00     0.243 C 
HETATM    4  O   UNK N   1      28.792  17.339   5.643  0.00  0.00    -0.271 OA
HETATM    5  H   UNK N   1      26.523  16.550   7.634  0.00  0.00     0.163 HD
BRANCH   3   6
HETATM    6  C   UNK N   1      28.586  18.033   7.855  0.00  0.00     0.200 C 
BRANCH   6   7
HETATM    7  N   UNK N   1      30.009  18.063   7.699  0.00  0.00    -0.344 N 
HETATM    8  C   UNK N   1      30.771  17.283   8.503  0.00  0.00     0.241 C 
HETATM    9  O   UNK N   1      30.364  16.945   9.608  0.00  0.00    -0.271 OA
HETATM   10  H   UNK N   1      30.426  18.642   7.021  0.00  0.00     0.163 HD
BRANCH   8  11
HETATM   11  C   UNK N   1      31.904  16.546   7.877  0.00  0.00     0.180 C 
BRANCH  11  12
HETATM   12  N   UNK N   1      31.827  15.103   7.806  0.00  0.00    -0.346 N 
HETATM   13  C   UNK N   1      32.660  14.238   8.433  0.00  0.00     0.241 C 
HETATM   14  O   UNK N   1      32.448  13.042   8.327  0.00  0.00    -0.271 OA
HETATM   15  H   UNK N   1      31.109  14.717   7.254  0.00  0.00     0.163 HD
BRANCH  13  16
HETATM   16  C   UNK N   1      33.792  14.724   9.307  0.00  0.00     0.180 C 
BRANCH  16  17
HETATM   17  N   UNK N   1      34.232  13.681  10.198  0.00  0.00    -0.346 N 
HETATM   18  C   UNK N   1      34.643  13.899  11.470  0.00  0.00     0.241 C 
HETATM   19  O   UNK N   1      34.641  15.022  11.954  0.00  0.00    -0.271 OA
HETATM   20  H   UNK N   1      34.234  12.755   9.862  0.00  0.00     0.163 HD
BRANCH  18  21
HETATM   21  C   UNK N   1      35.083  12.730  12.287  0.00  0.00     0.180 C 
BRANCH  21  22
HETATM   22  C   UNK N   1      36.268  13.095  13.200  0.00  0.00     0.073 C 
BRANCH  22  23
HETATM   23  C   UNK N   1      36.205  12.507  14.592  0.00  0.00    -0.055 A 
HETATM   24  C   UNK N   1      35.770  13.312  15.651  0.00  0.00     0.019 A 
HETATM   25  C   UNK N   1      35.630  12.771  16.934  0.00  0.00    -0.025 A 
HETATM   26  C   UNK N   1      35.205  13.575  17.995  0.00  0.00     0.012 A 
HETATM   27  C   UNK N   1      35.911  11.403  17.158  0.00  0.00    -0.026 A 
HETATM   28  C   UNK N   1      35.053  13.024  19.272  0.00  0.00     0.001 A 
HETATM   29  C   UNK N   1      35.318  11.668  19.489  0.00  0.00     0.001 A 
HETATM   30  C   UNK N   1      35.748  10.858  18.434  0.00  0.00     0.012 A 
HETATM   31  C   UNK N   1      36.354  10.604  16.104  0.00  0.00     0.013 A 
HETATM   32  C   UNK N   1      36.508  11.155  14.831  0.00  0.00     0.008 A 
ENDBRANCH  22  23
ENDBRANCH  21  22
BRANCH  21  33
HETATM   33  N   UNK N   1      35.439  11.637  11.406  0.00  0.00    -0.348 N 
HETATM   34  C   UNK N   1      34.849  10.411  11.465  0.00  0.00     0.214 C 
HETATM   35  O   UNK N   1      35.155   9.558  10.651  0.00  0.00    -0.274 OA
HETATM   36  C   UNK N   1      33.829  10.080  12.512  0.00  0.00     0.117 C 
HETATM   37  H   UNK N   1      36.142  11.786  10.732  0.00  0.00     0.163 HD
ENDBRANCH  21  33
ENDBRANCH  18  21
ENDBRANCH  16  17
BRANCH  16  38
HETATM   38  C   UNK N   1      34.974  15.318   8.534  0.00  0.00     0.073 C 
BRANCH  38  39
HETATM   39  C   UNK N   1      35.474  14.458   7.413  0.00  0.00    -0.056 A 
HETATM   40  C   UNK N   1      36.167  13.282   7.721  0.00  0.00     0.009 A 
HETATM   41  C   UNK N   1      36.673  12.473   6.700  0.00  0.00     0.024 A 
HETATM   42  C   UNK N   1      36.486  12.833   5.363  0.00  0.00     0.034 A 
HETATM   43  C   UNK N   1      35.806  14.014   5.047  0.00  0.00     0.024 A 
HETATM   44 Cl   UNK N   1      37.083  11.793   4.087  0.00  0.00    -0.084 Cl
HETATM   45  C   UNK N   1      35.312  14.833   6.070  0.00  0.00     0.009 A 
ENDBRANCH  38  39
ENDBRANCH  16  38
ENDBRANCH  13  16
ENDBRANCH  11  12
BRANCH  11  46
HETATM   46  C   UNK N   1      32.669  17.231   6.749  0.00  0.00     0.074 C 
BRANCH  46  47
HETATM   47  C   UNK N   1      32.150  16.850   5.392  0.00  0.00    -0.040 A 
HETATM   48  C   UNK N   1      32.077  17.820   4.392  0.00  0.00     0.094 A 
HETATM   49  N   UNK N   1      31.617  17.495   3.154  0.00  0.00    -0.375 N 
HETATM   50  C   UNK N   1      31.220  16.229   2.850  0.00  0.00     0.087 A 
ATOM     51  HN  UNK N   1      31.567  18.218   2.436  1.00  0.00     0.164 HD
HETATM   52  C   UNK N   1      31.282  15.225   3.817  0.00  0.00     0.018 A 
HETATM   53  C   UNK N   1      31.752  15.539   5.092  0.00  0.00     0.010 A 
ENDBRANCH  46  47
ENDBRANCH  11  46
ENDBRANCH   8  11
ENDBRANCH   6   7
BRANCH   6  54
HETATM   54  C   UNK N   1      27.976  19.421   7.728  0.00  0.00     0.199 C 
BRANCH  54  55
HETATM   55  O   UNK N   1      27.042  19.439   6.686  0.00  0.00    -0.398 OA
HETATM   56  H   UNK N   1      27.282  19.562   5.755  0.00  0.00     0.209 HD
ENDBRANCH  54  55
ENDBRANCH   6  54
ENDBRANCH   3   6
ENDBRANCH   1   2
BRANCH   1  57
HETATM   57  C   UNK N   1      24.979  15.546   6.045  0.00  0.00     0.241 C 
HETATM   58  N   UNK N   1      24.105  16.035   5.136  0.00  0.00    -0.346 N 
HETATM   59  H   UNK N   1      24.459  16.190   4.231  0.00  0.00     0.163 HD
HETATM   60  O   UNK N   1      24.617  15.069   7.110  0.00  0.00    -0.271 OA
BRANCH  58  61
HETATM   61  C   UNK N   1      22.740  16.352   5.335  0.00  0.00     0.176 C 
BRANCH  61  62
HETATM   62  C   UNK N   1      22.046  15.954   4.095  0.00  0.00     0.241 C 
HETATM   63  N   UNK N   1      20.809  15.435   4.214  0.00  0.00    -0.346 N 
HETATM   64  H   UNK N   1      20.121  15.894   4.749  0.00  0.00     0.163 HD
HETATM   65  O   UNK N   1      22.639  15.937   3.028  0.00  0.00    -0.271 OA
BRANCH  63  66
HETATM   66  C   UNK N   1      20.518  14.221   3.556  0.00  0.00     0.177 C 
BRANCH  66  67
HETATM   67  C   UNK N   1      20.374  13.204   4.647  0.00  0.00     0.241 C 
HETATM   68  N   UNK N   1      21.448  12.482   5.062  0.00  0.00    -0.346 N 
HETATM   69  H   UNK N   1      22.137  12.222   4.409  0.00  0.00     0.163 HD
HETATM   70  O   UNK N   1      19.319  13.154   5.261  0.00  0.00    -0.271 OA
BRANCH  68  71
HETATM   71  C   UNK N   1      21.594  12.093   6.446  0.00  0.00     0.176 C 
BRANCH  71  72
HETATM   72  C   UNK N   1      22.682  11.046   6.471  0.00  0.00     0.243 C 
HETATM   73  N   UNK N   1      22.527   9.826   5.921  0.00  0.00    -0.337 N 
HETATM   74  C   UNK N   1      23.616   8.900   5.853  0.00  0.00     0.179 A 
HETATM   75  C   UNK N   1      21.296   9.382   5.332  0.00  0.00     0.127 A 
HETATM   76  C   UNK N   1      23.036   7.649   5.230  0.00  0.00     0.037 A 
HETATM   77  C   UNK N   1      21.608   7.994   4.801  0.00  0.00     0.022 A 
HETATM   78  O   UNK N   1      23.781  11.327   6.957  0.00  0.00    -0.271 OA
BRANCH  74  79
HETATM   79  C   UNK N   1      24.725   9.470   5.000  0.00  0.00     0.241 C 
HETATM   80  O   UNK N   1      25.893   9.245   5.293  0.00  0.00    -0.271 OA
HETATM   81  N   UNK N   1      24.421  10.205   3.901  0.00  0.00    -0.346 N 
HETATM   82  H   UNK N   1      23.478  10.301   3.635  0.00  0.00     0.163 HD
BRANCH  81  83
HETATM   83  C   UNK N   1      25.443  10.853   3.111  0.00  0.00     0.172 C 
HETATM   84  C   UNK N   1      25.875   9.938   1.975  0.00  0.00     0.042 C 
BRANCH  83  85
HETATM   85  C   UNK N   1      24.917  12.177   2.609  0.00  0.00     0.237 C 
HETATM   86  O   UNK N   1      25.081  12.485   1.440  0.00  0.00    -0.271 OA
HETATM   87  N   UNK N   1      24.286  13.034   3.437  0.00  0.00    -0.368 N 
HETATM   88  H   UNK N   1      23.917  12.829   4.327  0.00  0.00     0.159 HD
HETATM   89  H   UNK N   1      24.182  13.960   3.119  0.00  0.00     0.159 HD
ENDBRANCH  83  85
ENDBRANCH  81  83
ENDBRANCH  74  79
ENDBRANCH  71  72
BRANCH  71  90
HETATM   90  C   UNK N   1      21.964  13.240   7.385  0.00  0.00     0.036 C 
BRANCH  90  91
HETATM   91  C   UNK N   1      20.940  13.498   8.474  0.00  0.00     0.023 C 
BRANCH  91  92
HETATM   92  C   UNK N   1      21.395  12.796   9.748  0.00  0.00     0.138 C 
BRANCH  92  93
HETATM   93  N   UNK N   1      22.809  13.004   9.951  0.00  0.00    -0.227 N 
HETATM   94  C   UNK N   1      23.539  12.312  10.951  0.00  0.00     0.665 C 
HETATM   95  N   UNK N   1      22.941  11.536  11.779  0.00  0.00    -0.235 N 
HETATM   96  N   UNK N   1      24.944  12.440  11.001  0.00  0.00    -0.235 N 
HETATM   97  H   UNK N   1      23.136  10.944  12.540  0.00  0.00     0.174 HD
ATOM     98  HN  UNK N   1      21.940  11.532  11.586  1.00  0.00     0.174 HD
HETATM   99  H   UNK N   1      25.480  12.371  10.179  0.00  0.00     0.174 HD
HETATM  100  H   UNK N   1      25.389  12.600  11.864  0.00  0.00     0.174 HD
HETATM  101  H   UNK N   1      23.283  13.647   9.376  0.00  0.00     0.177 HD
ENDBRANCH  92  93
ENDBRANCH  91  92
ENDBRANCH  90  91
ENDBRANCH  71  90
ENDBRANCH  68  71
ENDBRANCH  66  67
BRANCH  66 102
HETATM  102  C   UNK N   1      19.278  14.312   2.679  0.00  0.00     0.038 C 
BRANCH 102 103
HETATM  103  C   UNK N   1      19.665  14.256   1.207  0.00  0.00    -0.020 C 
HETATM  104  C   UNK N   1      18.569  13.643   0.351  0.00  0.00     0.009 C 
HETATM  105  C   UNK N   1      19.935  15.661   0.713  0.00  0.00     0.009 C 
ENDBRANCH 102 103
ENDBRANCH  66 102
ENDBRANCH  63  66
ENDBRANCH  61  62
BRANCH  61 106
HETATM  106  C   UNK N   1      22.532  17.839   5.639  0.00  0.00     0.036 C 
BRANCH 106 107
HETATM  107  C   UNK N   1      21.128  18.093   6.148  0.00  0.00     0.022 C 
BRANCH 107 108
HETATM  108  C   UNK N   1      20.838  17.203   7.347  0.00  0.00     0.124 C 
BRANCH 108 109
HETATM  109  N   UNK N   1      19.966  17.858   8.297  0.00  0.00    -0.343 N 
HETATM  110  C   UNK N   1      18.812  17.297   8.735  0.00  0.00     0.313 C 
HETATM  111  O   UNK N   1      18.450  16.207   8.317  0.00  0.00    -0.248 OA
HETATM  112  N   UNK N   1      18.063  17.939   9.652  0.00  0.00    -0.352 N 
HETATM  113  H   UNK N   1      18.015  18.922   9.650  0.00  0.00     0.160 HD
HETATM  114  H   UNK N   1      17.562  17.424  10.325  0.00  0.00     0.160 HD
HETATM  115  H   UNK N   1      20.220  18.746   8.639  0.00  0.00     0.164 HD
ENDBRANCH 108 109
ENDBRANCH 107 108
ENDBRANCH 106 107
ENDBRANCH  61 106
ENDBRANCH  58  61
ENDBRANCH   1  57
BRANCH   1 116
HETATM  116  C   UNK N   1      27.063  14.308   5.678  0.00  0.00     0.073 C 
BRANCH 116 117
HETATM  117  C   UNK N   1      27.684  13.914   4.358  0.00  0.00    -0.056 A 
HETATM  118  C   UNK N   1      27.527  14.767   3.257  0.00  0.00     0.010 A 
HETATM  119  C   UNK N   1      28.073  14.429   2.014  0.00  0.00     0.037 A 
HETATM  120  C   UNK N   1      28.771  13.229   1.860  0.00  0.00     0.065 A 
HETATM  121  C   UNK N   1      28.929  12.369   2.952  0.00  0.00     0.037 A 
HETATM  122  C   UNK N   1      28.390  12.711   4.197  0.00  0.00     0.010 A 
BRANCH 120 123
HETATM  123  O   UNK N   1      29.291  12.902   0.665  0.00  0.00    -0.361 OA
HETATM  124  H   UNK N   1      28.953  13.288  -0.118  0.00  0.00     0.217 HD
ENDBRANCH 120 123
ENDBRANCH 116 117
ENDBRANCH   1 116
TORSDOF 40
ENDMDL
MODEL 9
REMARK VINA RESULT:      -7.9      3.117      7.395
REMARK WARNING: 32 MAX_TORS EXCEEDED!!!
REMARK  40 active torsions:
REMARK  status: ('A' for Active; 'I' for Inactive)
REMARK    1  A    between atoms: C_13  and  C_8 
REMARK    2  A    between atoms: C_13  and  C_11 
REMARK    3  A    between atoms: C_15  and  C_11 
REMARK    4  A    between atoms: C_11  and  N_12 
REMARK       I    between atoms: C_102  and  N_12 
REMARK       I    between atoms: C_15  and  N_14 
REMARK    5  A    between atoms: C_16  and  N_14 
REMARK    6  A    between atoms: C_16  and  C_19 
REMARK    7  A    between atoms: C_17  and  C_16 
REMARK       I    between atoms: N_21  and  C_17 
REMARK    8  A    between atoms: C_20  and  C_19 
REMARK    9  A    between atoms: C_27  and  N_21 
REMARK   10  A    between atoms: C_29  and  C_27 
REMARK   11  A    between atoms: C_27  and  C_28 
REMARK   12  A    between atoms: C_31  and  C_28 
REMARK       I    between atoms: N_30  and  C_29 
REMARK   13  A    between atoms: C_38  and  N_30 
REMARK   14  A    between atoms: C_39  and  C_38 
REMARK   15  A    between atoms: C_38  and  C_50 
REMARK       I    between atoms: N_41  and  C_39 
REMARK   16  A    between atoms: C_42  and  N_41 
REMARK   17  A    between atoms: C_44  and  C_42 
REMARK   18  A    between atoms: C_42  and  C_43 
REMARK   19  A    between atoms: C_46  and  C_43 
REMARK       I    between atoms: N_45  and  C_44 
REMARK   20  A    between atoms: C_59  and  N_45 
REMARK   21  A    between atoms: O_51  and  C_50 
REMARK   22  A    between atoms: O_58  and  C_54 
REMARK   23  A    between atoms: C_60  and  C_59 
REMARK   24  A    between atoms: C_59  and  C_74 
REMARK       I    between atoms: N_62  and  C_60 
REMARK   25  A    between atoms: C_63  and  N_62 
REMARK   26  A    between atoms: C_65  and  C_63 
REMARK   27  A    between atoms: C_63  and  C_64 
REMARK   28  A    between atoms: C_73  and  C_64 
REMARK       I    between atoms: N_66  and  C_65 
REMARK   29  A    between atoms: C_67  and  N_66 
REMARK   30  A    between atoms: C_68  and  C_67 
REMARK   31  A    between atoms: C_67  and  C_82 
REMARK       I    between atoms: N_70  and  C_68 
REMARK   32  A    between atoms: C_90  and  C_72 
REMARK       I    between atoms: N_94  and  C_72 
REMARK   33  A    between atoms: C_75  and  C_74 
REMARK   34  A    between atoms: C_76  and  C_75 
REMARK   35  A    between atoms: N_77  and  C_76 
REMARK       I    between atoms: C_78  and  N_77 
REMARK       I    between atoms: N_80  and  C_78 
REMARK   36  A    between atoms: C_83  and  C_82 
REMARK   37  A    between atoms: C_84  and  C_83 
REMARK   38  A    between atoms: N_85  and  C_84 
REMARK       I    between atoms: C_86  and  N_85 
REMARK       I    between atoms: N_89  and  C_86 
REMARK   39  A    between atoms: C_95  and  N_94 
REMARK   40  A    between atoms: C_96  and  C_95 
REMARK       I    between atoms: N_99  and  C_96 
ROOT
HETATM    1  C   UNK N   1      28.630  16.545   4.558  0.00  0.00     0.180 C 
ENDROOT
BRANCH   1   2
HETATM    2  N   UNK N   1      30.048  16.721   4.342  0.00  0.00    -0.346 N 
HETATM    3  C   UNK N   1      31.002  16.921   5.309  0.00  0.00     0.243 C 
HETATM    4  O   UNK N   1      30.749  16.851   6.501  0.00  0.00    -0.271 OA
HETATM    5  H   UNK N   1      30.361  16.695   3.409  0.00  0.00     0.163 HD
BRANCH   3   6
HETATM    6  C   UNK N   1      32.415  17.021   4.884  0.00  0.00     0.200 C 
BRANCH   6   7
HETATM    7  N   UNK N   1      32.859  15.668   5.038  0.00  0.00    -0.344 N 
HETATM    8  C   UNK N   1      33.961  15.423   5.787  0.00  0.00     0.241 C 
HETATM    9  O   UNK N   1      34.821  16.284   5.927  0.00  0.00    -0.271 OA
HETATM   10  H   UNK N   1      32.373  14.930   4.605  0.00  0.00     0.163 HD
BRANCH   8  11
HETATM   11  C   UNK N   1      33.915  14.267   6.725  0.00  0.00     0.180 C 
BRANCH  11  12
HETATM   12  N   UNK N   1      35.052  13.375   6.770  0.00  0.00    -0.346 N 
HETATM   13  C   UNK N   1      35.192  12.239   6.045  0.00  0.00     0.241 C 
HETATM   14  O   UNK N   1      36.230  11.606   6.144  0.00  0.00    -0.271 OA
HETATM   15  H   UNK N   1      35.788  13.614   7.380  0.00  0.00     0.163 HD
BRANCH  13  16
HETATM   16  C   UNK N   1      34.126  11.783   5.078  0.00  0.00     0.180 C 
BRANCH  16  17
HETATM   17  N   UNK N   1      34.618  11.814   3.725  0.00  0.00    -0.346 N 
HETATM   18  C   UNK N   1      34.218  12.717   2.797  0.00  0.00     0.241 C 
HETATM   19  O   UNK N   1      33.412  13.595   3.071  0.00  0.00    -0.271 OA
HETATM   20  H   UNK N   1      35.284  11.140   3.458  0.00  0.00     0.163 HD
BRANCH  18  21
HETATM   21  C   UNK N   1      34.801  12.635   1.425  0.00  0.00     0.180 C 
BRANCH  21  22
HETATM   22  C   UNK N   1      34.451  11.299   0.744  0.00  0.00     0.073 C 
BRANCH  22  23
HETATM   23  C   UNK N   1      32.974  10.985   0.676  0.00  0.00    -0.055 A 
HETATM   24  C   UNK N   1      32.510   9.777   1.209  0.00  0.00     0.019 A 
HETATM   25  C   UNK N   1      31.139   9.496   1.228  0.00  0.00    -0.025 A 
HETATM   26  C   UNK N   1      30.675   8.286   1.751  0.00  0.00     0.012 A 
HETATM   27  C   UNK N   1      30.217  10.443   0.725  0.00  0.00    -0.026 A 
HETATM   28  C   UNK N   1      29.302   8.018   1.781  0.00  0.00     0.001 A 
HETATM   29  C   UNK N   1      28.391   8.962   1.294  0.00  0.00     0.001 A 
HETATM   30  C   UNK N   1      28.847  10.173   0.766  0.00  0.00     0.012 A 
HETATM   31  C   UNK N   1      30.680  11.644   0.185  0.00  0.00     0.013 A 
HETATM   32  C   UNK N   1      32.051  11.909   0.153  0.00  0.00     0.008 A 
ENDBRANCH  22  23
ENDBRANCH  21  22
BRANCH  21  33
HETATM   33  N   UNK N   1      36.237  12.805   1.504  0.00  0.00    -0.348 N 
HETATM   34  C   UNK N   1      36.939  13.609   0.659  0.00  0.00     0.214 C 
HETATM   35  O   UNK N   1      38.138  13.753   0.825  0.00  0.00    -0.274 OA
HETATM   36  C   UNK N   1      36.274  14.327  -0.476  0.00  0.00     0.117 C 
HETATM   37  H   UNK N   1      36.730  12.314   2.202  0.00  0.00     0.163 HD
ENDBRANCH  21  33
ENDBRANCH  18  21
ENDBRANCH  16  17
BRANCH  16  38
HETATM   38  C   UNK N   1      33.519  10.415   5.408  0.00  0.00     0.073 C 
BRANCH  38  39
HETATM   39  C   UNK N   1      32.039  10.326   5.186  0.00  0.00    -0.056 A 
HETATM   40  C   UNK N   1      31.374   9.145   5.536  0.00  0.00     0.009 A 
HETATM   41  C   UNK N   1      30.000   9.017   5.316  0.00  0.00     0.024 A 
HETATM   42  C   UNK N   1      29.281  10.072   4.747  0.00  0.00     0.034 A 
HETATM   43  C   UNK N   1      29.942  11.250   4.381  0.00  0.00     0.024 A 
HETATM   44 Cl   UNK N   1      27.552   9.923   4.513  0.00  0.00    -0.084 Cl
HETATM   45  C   UNK N   1      31.321  11.373   4.589  0.00  0.00     0.009 A 
ENDBRANCH  38  39
ENDBRANCH  16  38
ENDBRANCH  13  16
ENDBRANCH  11  12
BRANCH  11  46
HETATM   46  C   UNK N   1      33.144  14.433   8.031  0.00  0.00     0.074 C 
BRANCH  46  47
HETATM   47  C   UNK N   1      33.967  15.092   9.100  0.00  0.00    -0.040 A 
HETATM   48  C   UNK N   1      33.932  16.481   9.229  0.00  0.00     0.094 A 
HETATM   49  N   UNK N   1      34.664  17.099  10.195  0.00  0.00    -0.375 N 
HETATM   50  C   UNK N   1      35.443  16.393  11.061  0.00  0.00     0.087 A 
ATOM     51  HN  UNK N   1      34.629  18.115  10.273  1.00  0.00     0.164 HD
HETATM   52  C   UNK N   1      35.502  15.002  10.973  0.00  0.00     0.018 A 
HETATM   53  C   UNK N   1      34.758  14.351   9.989  0.00  0.00     0.010 A 
ENDBRANCH  46  47
ENDBRANCH  11  46
ENDBRANCH   8  11
ENDBRANCH   6   7
BRANCH   6  54
HETATM   54  C   UNK N   1      32.464  17.467   3.431  0.00  0.00     0.199 C 
BRANCH  54  55
HETATM   55  O   UNK N   1      32.616  16.356   2.595  0.00  0.00    -0.398 OA
HETATM   56  H   UNK N   1      33.463  16.093   2.203  0.00  0.00     0.209 HD
ENDBRANCH  54  55
ENDBRANCH   6  54
ENDBRANCH   3   6
ENDBRANCH   1   2
BRANCH   1  57
HETATM   57  C   UNK N   1      28.238  15.256   3.964  0.00  0.00     0.241 C 
HETATM   58  N   UNK N   1      26.962  14.856   4.172  0.00  0.00    -0.346 N 
HETATM   59  H   UNK N   1      26.325  15.557   4.440  0.00  0.00     0.163 HD
HETATM   60  O   UNK N   1      29.057  14.558   3.385  0.00  0.00    -0.271 OA
BRANCH  58  61
HETATM   61  C   UNK N   1      26.437  13.548   4.050  0.00  0.00     0.176 C 
BRANCH  61  62
HETATM   62  C   UNK N   1      25.633  13.547   2.813  0.00  0.00     0.241 C 
HETATM   63  N   UNK N   1      24.642  14.452   2.716  0.00  0.00    -0.346 N 
HETATM   64  H   UNK N   1      24.810  15.404   2.904  0.00  0.00     0.163 HD
HETATM   65  O   UNK N   1      25.755  12.651   1.991  0.00  0.00    -0.271 OA
BRANCH  63  66
HETATM   66  C   UNK N   1      23.355  14.009   2.338  0.00  0.00     0.177 C 
BRANCH  66  67
HETATM   67  C   UNK N   1      22.405  14.755   3.223  0.00  0.00     0.241 C 
HETATM   68  N   UNK N   1      22.759  15.084   4.493  0.00  0.00    -0.346 N 
HETATM   69  H   UNK N   1      23.335  14.474   5.008  0.00  0.00     0.163 HD
HETATM   70  O   UNK N   1      21.377  15.200   2.732  0.00  0.00    -0.271 OA
BRANCH  68  71
HETATM   71  C   UNK N   1      22.307  16.317   5.097  0.00  0.00     0.176 C 
BRANCH  71  72
HETATM   72  C   UNK N   1      22.173  16.032   6.574  0.00  0.00     0.243 C 
HETATM   73  N   UNK N   1      21.019  16.211   7.245  0.00  0.00    -0.337 N 
HETATM   74  C   UNK N   1      20.889  15.818   8.614  0.00  0.00     0.179 A 
HETATM   75  C   UNK N   1      19.837  16.759   6.641  0.00  0.00     0.127 A 
HETATM   76  C   UNK N   1      19.489  16.229   9.016  0.00  0.00     0.037 A 
HETATM   77  C   UNK N   1      18.793  16.717   7.743  0.00  0.00     0.022 A 
HETATM   78  O   UNK N   1      23.132  15.559   7.189  0.00  0.00    -0.271 OA
BRANCH  74  79
HETATM   79  C   UNK N   1      21.075  14.324   8.742  0.00  0.00     0.241 C 
HETATM   80  O   UNK N   1      20.369  13.565   8.089  0.00  0.00    -0.271 OA
HETATM   81  N   UNK N   1      22.040  13.832   9.558  0.00  0.00    -0.346 N 
HETATM   82  H   UNK N   1      22.654  14.459  10.006  0.00  0.00     0.163 HD
BRANCH  81  83
HETATM   83  C   UNK N   1      22.193  12.413   9.791  0.00  0.00     0.172 C 
HETATM   84  C   UNK N   1      23.648  12.013   9.595  0.00  0.00     0.042 C 
BRANCH  83  85
HETATM   85  C   UNK N   1      21.691  12.081  11.175  0.00  0.00     0.237 C 
HETATM   86  O   UNK N   1      20.512  12.245  11.443  0.00  0.00    -0.271 OA
HETATM   87  N   UNK N   1      22.528  11.623  12.128  0.00  0.00    -0.368 N 
HETATM   88  H   UNK N   1      23.434  11.262  11.992  0.00  0.00     0.159 HD
HETATM   89  H   UNK N   1      22.200  11.653  13.056  0.00  0.00     0.159 HD
ENDBRANCH  83  85
ENDBRANCH  81  83
ENDBRANCH  74  79
ENDBRANCH  71  72
BRANCH  71  90
HETATM   90  C   UNK N   1      23.249  17.502   4.887  0.00  0.00     0.036 C 
BRANCH  90  91
HETATM   91  C   UNK N   1      22.892  18.366   3.692  0.00  0.00     0.023 C 
BRANCH  91  92
HETATM   92  C   UNK N   1      21.395  18.647   3.722  0.00  0.00     0.138 C 
BRANCH  92  93
HETATM   93  N   UNK N   1      20.922  18.964   2.395  0.00  0.00    -0.227 N 
HETATM   94  C   UNK N   1      20.818  20.300   1.928  0.00  0.00     0.665 C 
HETATM   95  N   UNK N   1      21.056  21.287   2.711  0.00  0.00    -0.235 N 
HETATM   96  N   UNK N   1      20.498  20.540   0.575  0.00  0.00    -0.235 N 
HETATM   97  H   UNK N   1      21.077  22.271   2.708  0.00  0.00     0.174 HD
ATOM     98  HN  UNK N   1      21.302  20.941   3.638  1.00  0.00     0.174 HD
HETATM   99  H   UNK N   1      20.951  20.039  -0.141  0.00  0.00     0.174 HD
HETATM  100  H   UNK N   1      19.818  21.214   0.346  0.00  0.00     0.174 HD
HETATM  101  H   UNK N   1      20.664  18.229   1.794  0.00  0.00     0.177 HD
ENDBRANCH  92  93
ENDBRANCH  91  92
ENDBRANCH  90  91
ENDBRANCH  71  90
ENDBRANCH  68  71
ENDBRANCH  66  67
BRANCH  66 102
HETATM  102  C   UNK N   1      23.070  14.231   0.861  0.00  0.00     0.038 C 
BRANCH 102 103
HETATM  103  C   UNK N   1      22.531  12.954   0.227  0.00  0.00    -0.020 C 
HETATM  104  C   UNK N   1      23.569  12.265  -0.643  0.00  0.00     0.009 C 
HETATM  105  C   UNK N   1      22.108  12.000   1.323  0.00  0.00     0.009 C 
ENDBRANCH 102 103
ENDBRANCH  66 102
ENDBRANCH  63  66
ENDBRANCH  61  62
BRANCH  61 106
HETATM  106  C   UNK N   1      25.594  13.150   5.265  0.00  0.00     0.036 C 
BRANCH 106 107
HETATM  107  C   UNK N   1      24.822  11.876   4.992  0.00  0.00     0.022 C 
BRANCH 107 108
HETATM  108  C   UNK N   1      23.658  11.752   5.964  0.00  0.00     0.124 C 
BRANCH 108 109
HETATM  109  N   UNK N   1      22.901  10.542   5.735  0.00  0.00    -0.343 N 
HETATM  110  C   UNK N   1      23.148   9.388   6.405  0.00  0.00     0.313 C 
HETATM  111  O   UNK N   1      24.051   9.325   7.225  0.00  0.00    -0.248 OA
HETATM  112  N   UNK N   1      22.380   8.306   6.177  0.00  0.00    -0.352 N 
HETATM  113  H   UNK N   1      22.019   8.137   5.276  0.00  0.00     0.160 HD
HETATM  114  H   UNK N   1      22.180   7.682   6.911  0.00  0.00     0.160 HD
HETATM  115  H   UNK N   1      22.177  10.555   5.067  0.00  0.00     0.164 HD
ENDBRANCH 108 109
ENDBRANCH 107 108
ENDBRANCH 106 107
ENDBRANCH  61 106
ENDBRANCH  58  61
ENDBRANCH   1  57
BRANCH   1 116
HETATM  116  C   UNK N   1      27.827  17.671   3.879  0.00  0.00     0.073 C 
BRANCH 116 117
HETATM  117  C   UNK N   1      27.383  18.807   4.771  0.00  0.00    -0.056 A 
HETATM  118  C   UNK N   1      26.495  19.762   4.256  0.00  0.00     0.010 A 
HETATM  119  C   UNK N   1      26.074  20.838   5.045  0.00  0.00     0.037 A 
HETATM  120  C   UNK N   1      26.544  20.972   6.352  0.00  0.00     0.065 A 
HETATM  121  C   UNK N   1      27.434  20.026   6.874  0.00  0.00     0.037 A 
HETATM  122  C   UNK N   1      27.850  18.947   6.088  0.00  0.00     0.010 A 
BRANCH 120 123
HETATM  123  O   UNK N   1      26.144  22.008   7.109  0.00  0.00    -0.361 OA
HETATM  124  H   UNK N   1      26.679  22.773   7.183  0.00  0.00     0.217 HD
ENDBRANCH 120 123
ENDBRANCH 116 117
ENDBRANCH   1 116
TORSDOF 40
ENDMDL
