MODEL 1
REMARK VINA RESULT:      -8.3      0.000      0.000
REMARK  9 active torsions:
REMARK  status: ('A' for Active; 'I' for Inactive)
REMARK    1  A    between atoms: C_1  and  N_2 
REMARK    2  A    between atoms: C_1  and  C_18 
REMARK       I    between atoms: N_2  and  C_3 
REMARK       I    between atoms: C_3  and  N_6 
REMARK       I    between atoms: N_6  and  C_7 
REMARK       I    between atoms: C_7  and  N_10 
REMARK    3  A    between atoms: N_10  and  C_11 
REMARK    4  A    between atoms: C_18  and  C_19 
REMARK    5  A    between atoms: C_19  and  C_20 
REMARK    6  A    between atoms: C_20  and  C_21 
REMARK    7  A    between atoms: C_21  and  C_22 
REMARK    8  A    between atoms: C_22  and  N_23 
REMARK       I    between atoms: N_23  and  C_24 
REMARK       I    between atoms: C_24  and  N_27 
REMARK       I    between atoms: N_27  and  C_28 
REMARK       I    between atoms: C_28  and  N_31 
REMARK    9  A    between atoms: N_31  and  C_32 
ROOT
HETATM    1  C   UNK N   1      19.646  18.960   2.721  0.00  0.00     0.002 C 
ENDROOT
BRANCH   1   2
HETATM    2  C   UNK N   1      19.635  17.443   2.777  0.00  0.00     0.020 C 
BRANCH   2   3
HETATM    3  C   UNK N   1      21.057  16.911   2.669  0.00  0.00     0.138 C 
BRANCH   3   4
HETATM    4  N   UNK N   1      21.205  15.696   3.438  0.00  0.00    -0.226 N 
HETATM    5  C   UNK N   1      21.489  15.715   4.829  0.00  0.00     0.686 C 
HETATM    6  N   UNK N   1      21.716  14.485   5.514  0.00  0.00    -0.023 N 
HETATM    7  N   UNK N   1      21.618  16.839   5.442  0.00  0.00    -0.234 N 
HETATM    8  C   UNK N   1      21.939  14.356   6.916  0.00  0.00     0.690 C 
HETATM    9  H   UNK N   1      21.719  13.661   4.976  0.00  0.00     0.203 HD
HETATM   10  N   UNK N   1      22.345  13.090   7.435  0.00  0.00    -0.192 N 
HETATM   11  N   UNK N   1      21.793  15.368   7.695  0.00  0.00    -0.234 N 
HETATM   12  H   UNK N   1      22.472  12.363   6.784  0.00  0.00     0.184 HD
HETATM   13  H   UNK N   1      21.526  16.240   7.325  0.00  0.00     0.174 HD
ATOM     14  HN  UNK N   1      21.954  15.267   8.698  1.00  0.00     0.174 HD
HETATM   15  H   UNK N   1      21.589  17.701   4.969  0.00  0.00     0.174 HD
ATOM     16  HN  UNK N   1      21.754  16.835   6.452  1.00  0.00     0.174 HD
HETATM   17  H   UNK N   1      21.108  14.829   2.983  0.00  0.00     0.177 HD
BRANCH  10  18
HETATM   18  C   UNK N   1      22.584  12.776   8.805  0.00  0.00     0.049 A 
HETATM   19  C   UNK N   1      21.489  12.591   9.657  0.00  0.00     0.032 A 
HETATM   20  C   UNK N   1      21.685  12.281  11.007  0.00  0.00     0.026 A 
HETATM   21  C   UNK N   1      22.982  12.161  11.514  0.00  0.00     0.034 A 
HETATM   22  C   UNK N   1      24.078  12.350  10.674  0.00  0.00     0.026 A 
HETATM   23 Cl   UNK N   1      23.236  11.774  13.202  0.00  0.00    -0.084 Cl
HETATM   24  C   UNK N   1      23.882  12.655   9.324  0.00  0.00     0.032 A 
ENDBRANCH  10  18
ENDBRANCH   3   4
ENDBRANCH   2   3
ENDBRANCH   1   2
BRANCH   1  25
HETATM   25  C   UNK N   1      20.930  19.478   2.092  0.00  0.00     0.002 C 
BRANCH  25  26
HETATM   26  C   UNK N   1      21.606  20.480   3.014  0.00  0.00     0.020 C 
BRANCH  26  27
HETATM   27  C   UNK N   1      23.113  20.407   2.817  0.00  0.00     0.138 C 
BRANCH  27  28
HETATM   28  N   UNK N   1      23.736  19.523   3.780  0.00  0.00    -0.226 N 
HETATM   29  C   UNK N   1      25.123  19.582   4.081  0.00  0.00     0.686 C 
HETATM   30  N   UNK N   1      25.894  20.347   3.396  0.00  0.00    -0.234 N 
HETATM   31  N   UNK N   1      25.634  18.834   5.184  0.00  0.00    -0.023 N 
HETATM   32  H   UNK N   1      26.817  20.570   3.655  0.00  0.00     0.174 HD
ATOM     33  HN  UNK N   1      25.528  20.748   2.531  1.00  0.00     0.174 HD
HETATM   34  C   UNK N   1      26.993  18.860   5.621  0.00  0.00     0.690 C 
HETATM   35  H   UNK N   1      25.005  18.261   5.680  0.00  0.00     0.203 HD
HETATM   36  N   UNK N   1      27.853  19.602   5.019  0.00  0.00    -0.234 N 
HETATM   37  N   UNK N   1      27.363  18.141   6.797  0.00  0.00    -0.192 N 
HETATM   38  H   UNK N   1      28.753  19.798   5.367  0.00  0.00     0.174 HD
ATOM     39  HN  UNK N   1      27.587  20.013   4.124  1.00  0.00     0.174 HD
HETATM   40  H   UNK N   1      26.642  17.732   7.328  0.00  0.00     0.184 HD
HETATM   41  H   UNK N   1      23.178  18.857   4.242  0.00  0.00     0.177 HD
BRANCH  37  42
HETATM   42  C   UNK N   1      28.702  17.972   7.256  0.00  0.00     0.049 A 
HETATM   43  C   UNK N   1      29.627  17.192   6.545  0.00  0.00     0.032 A 
HETATM   44  C   UNK N   1      30.932  17.039   7.010  0.00  0.00     0.026 A 
HETATM   45  C   UNK N   1      31.330  17.662   8.190  0.00  0.00     0.034 A 
HETATM   46  C   UNK N   1      30.417  18.435   8.913  0.00  0.00     0.026 A 
HETATM   47 Cl   UNK N   1      32.975  17.472   8.754  0.00  0.00    -0.084 Cl
HETATM   48  C   UNK N   1      29.104  18.585   8.449  0.00  0.00     0.032 A 
ENDBRANCH  37  42
ENDBRANCH  27  28
ENDBRANCH  26  27
ENDBRANCH  25  26
ENDBRANCH   1  25
TORSDOF 9
ENDMDL
MODEL 2
REMARK VINA RESULT:      -8.1      7.007     11.869
REMARK  9 active torsions:
REMARK  status: ('A' for Active; 'I' for Inactive)
REMARK    1  A    between atoms: C_1  and  N_2 
REMARK    2  A    between atoms: C_1  and  C_18 
REMARK       I    between atoms: N_2  and  C_3 
REMARK       I    between atoms: C_3  and  N_6 
REMARK       I    between atoms: N_6  and  C_7 
REMARK       I    between atoms: C_7  and  N_10 
REMARK    3  A    between atoms: N_10  and  C_11 
REMARK    4  A    between atoms: C_18  and  C_19 
REMARK    5  A    between atoms: C_19  and  C_20 
REMARK    6  A    between atoms: C_20  and  C_21 
REMARK    7  A    between atoms: C_21  and  C_22 
REMARK    8  A    between atoms: C_22  and  N_23 
REMARK       I    between atoms: N_23  and  C_24 
REMARK       I    between atoms: C_24  and  N_27 
REMARK       I    between atoms: N_27  and  C_28 
REMARK       I    between atoms: C_28  and  N_31 
REMARK    9  A    between atoms: N_31  and  C_32 
ROOT
HETATM    1  C   UNK N   1      33.805  17.563   6.587  0.00  0.00     0.002 C 
ENDROOT
BRANCH   1   2
HETATM    2  C   UNK N   1      34.422  18.002   7.902  0.00  0.00     0.020 C 
BRANCH   2   3
HETATM    3  C   UNK N   1      33.710  17.320   9.061  0.00  0.00     0.138 C 
BRANCH   3   4
HETATM    4  N   UNK N   1      34.663  16.886  10.058  0.00  0.00    -0.226 N 
HETATM    5  C   UNK N   1      34.496  15.676  10.783  0.00  0.00     0.686 C 
HETATM    6  N   UNK N   1      35.420  15.349  11.819  0.00  0.00    -0.023 N 
HETATM    7  N   UNK N   1      33.475  14.928  10.556  0.00  0.00    -0.234 N 
HETATM    8  C   UNK N   1      35.412  14.138  12.572  0.00  0.00     0.690 C 
HETATM    9  H   UNK N   1      36.118  16.009  12.030  0.00  0.00     0.203 HD
HETATM   10  N   UNK N   1      36.271  14.027  13.706  0.00  0.00    -0.192 N 
HETATM   11  N   UNK N   1      34.631  13.171  12.244  0.00  0.00    -0.234 N 
HETATM   12  H   UNK N   1      36.820  14.813  13.926  0.00  0.00     0.184 HD
HETATM   13  H   UNK N   1      34.032  13.264  11.468  0.00  0.00     0.174 HD
ATOM     14  HN  UNK N   1      34.630  12.308  12.788  1.00  0.00     0.174 HD
HETATM   15  H   UNK N   1      32.759  15.192   9.936  0.00  0.00     0.174 HD
ATOM     16  HN  UNK N   1      33.406  14.031  11.036  1.00  0.00     0.174 HD
HETATM   17  H   UNK N   1      35.450  17.448  10.241  0.00  0.00     0.177 HD
BRANCH  10  18
HETATM   18  C   UNK N   1      36.411  12.888  14.551  0.00  0.00     0.049 A 
HETATM   19  C   UNK N   1      35.680  12.839  15.744  0.00  0.00     0.032 A 
HETATM   20  C   UNK N   1      35.791  11.736  16.599  0.00  0.00     0.026 A 
HETATM   21  C   UNK N   1      36.640  10.677  16.266  0.00  0.00     0.034 A 
HETATM   22  C   UNK N   1      37.376  10.722  15.083  0.00  0.00     0.026 A 
HETATM   23 Cl   UNK N   1      36.784   9.296  17.330  0.00  0.00    -0.084 Cl
HETATM   24  C   UNK N   1      37.262  11.820  14.227  0.00  0.00     0.032 A 
ENDBRANCH  10  18
ENDBRANCH   3   4
ENDBRANCH   2   3
ENDBRANCH   1   2
BRANCH   1  25
HETATM   25  C   UNK N   1      32.343  17.182   6.764  0.00  0.00     0.002 C 
BRANCH  25  26
HETATM   26  C   UNK N   1      32.026  15.915   5.987  0.00  0.00     0.020 C 
BRANCH  26  27
HETATM   27  C   UNK N   1      31.158  16.266   4.787  0.00  0.00     0.138 C 
BRANCH  27  28
HETATM   28  N   UNK N   1      30.074  17.154   5.152  0.00  0.00    -0.226 N 
HETATM   29  C   UNK N   1      28.838  17.174   4.453  0.00  0.00     0.686 C 
HETATM   30  N   UNK N   1      28.701  16.485   3.377  0.00  0.00    -0.234 N 
HETATM   31  N   UNK N   1      27.740  17.914   4.988  0.00  0.00    -0.023 N 
HETATM   32  H   UNK N   1      27.835  16.313   2.943  0.00  0.00     0.174 HD
ATOM     33  HN  UNK N   1      29.539  16.093   2.948  1.00  0.00     0.174 HD
HETATM   34  C   UNK N   1      26.436  17.960   4.409  0.00  0.00     0.690 C 
HETATM   35  H   UNK N   1      27.893  18.427   5.814  0.00  0.00     0.203 HD
HETATM   36  N   UNK N   1      26.177  17.297   3.339  0.00  0.00    -0.234 N 
HETATM   37  N   UNK N   1      25.395  18.659   5.090  0.00  0.00    -0.192 N 
HETATM   38  H   UNK N   1      25.270  17.147   2.988  0.00  0.00     0.174 HD
ATOM     39  HN  UNK N   1      26.962  16.901   2.820  1.00  0.00     0.174 HD
HETATM   40  H   UNK N   1      25.588  19.002   5.993  0.00  0.00     0.184 HD
HETATM   41  H   UNK N   1      30.199  17.766   5.913  0.00  0.00     0.177 HD
BRANCH  37  42
HETATM   42  C   UNK N   1      24.095  18.898   4.556  0.00  0.00     0.049 A 
HETATM   43  C   UNK N   1      23.883  19.842   3.539  0.00  0.00     0.032 A 
HETATM   44  C   UNK N   1      22.604  20.060   3.029  0.00  0.00     0.026 A 
HETATM   45  C   UNK N   1      21.522  19.341   3.527  0.00  0.00     0.034 A 
HETATM   46  C   UNK N   1      21.716  18.404   4.546  0.00  0.00     0.026 A 
HETATM   47 Cl   UNK N   1      19.924  19.617   2.868  0.00  0.00    -0.084 Cl
HETATM   48  C   UNK N   1      23.000  18.187   5.063  0.00  0.00     0.032 A 
ENDBRANCH  37  42
ENDBRANCH  27  28
ENDBRANCH  26  27
ENDBRANCH  25  26
ENDBRANCH   1  25
TORSDOF 9
ENDMDL
MODEL 3
REMARK VINA RESULT:      -8.0      7.073     11.057
REMARK  9 active torsions:
REMARK  status: ('A' for Active; 'I' for Inactive)
REMARK    1  A    between atoms: C_1  and  N_2 
REMARK    2  A    between atoms: C_1  and  C_18 
REMARK       I    between atoms: N_2  and  C_3 
REMARK       I    between atoms: C_3  and  N_6 
REMARK       I    between atoms: N_6  and  C_7 
REMARK       I    between atoms: C_7  and  N_10 
REMARK    3  A    between atoms: N_10  and  C_11 
REMARK    4  A    between atoms: C_18  and  C_19 
REMARK    5  A    between atoms: C_19  and  C_20 
REMARK    6  A    between atoms: C_20  and  C_21 
REMARK    7  A    between atoms: C_21  and  C_22 
REMARK    8  A    between atoms: C_22  and  N_23 
REMARK       I    between atoms: N_23  and  C_24 
REMARK       I    between atoms: C_24  and  N_27 
REMARK       I    between atoms: N_27  and  C_28 
REMARK       I    between atoms: C_28  and  N_31 
REMARK    9  A    between atoms: N_31  and  C_32 
ROOT
HETATM    1  C   UNK N   1      33.486  17.286   5.331  0.00  0.00     0.002 C 
ENDROOT
BRANCH   1   2
HETATM    2  C   UNK N   1      32.094  17.466   4.752  0.00  0.00     0.020 C 
BRANCH   2   3
HETATM    3  C   UNK N   1      31.142  16.453   5.369  0.00  0.00     0.138 C 
BRANCH   3   4
HETATM    4  N   UNK N   1      29.911  17.094   5.775  0.00  0.00    -0.226 N 
HETATM    5  C   UNK N   1      28.765  17.123   4.936  0.00  0.00     0.686 C 
HETATM    6  N   UNK N   1      27.611  17.850   5.354  0.00  0.00    -0.023 N 
HETATM    7  N   UNK N   1      28.803  16.565   3.778  0.00  0.00    -0.234 N 
HETATM    8  C   UNK N   1      26.374  17.902   4.647  0.00  0.00     0.690 C 
HETATM    9  H   UNK N   1      27.674  18.354   6.197  0.00  0.00     0.203 HD
HETATM   10  N   UNK N   1      25.373  18.822   5.079  0.00  0.00    -0.192 N 
HETATM   11  N   UNK N   1      26.174  17.145   3.628  0.00  0.00    -0.234 N 
HETATM   12  H   UNK N   1      25.599  19.398   5.843  0.00  0.00     0.184 HD
HETATM   13  H   UNK N   1      26.877  16.523   3.330  0.00  0.00     0.174 HD
ATOM     14  HN  UNK N   1      25.286  17.188   3.127  1.00  0.00     0.174 HD
HETATM   15  H   UNK N   1      29.625  16.165   3.415  0.00  0.00     0.174 HD
ATOM     16  HN  UNK N   1      27.951  16.536   3.218  1.00  0.00     0.174 HD
HETATM   17  H   UNK N   1      29.867  17.524   6.659  0.00  0.00     0.177 HD
BRANCH  10  18
HETATM   18  C   UNK N   1      24.077  18.988   4.509  0.00  0.00     0.049 A 
HETATM   19  C   UNK N   1      23.028  18.182   4.969  0.00  0.00     0.032 A 
HETATM   20  C   UNK N   1      21.742  18.318   4.433  0.00  0.00     0.026 A 
HETATM   21  C   UNK N   1      21.500  19.258   3.429  0.00  0.00     0.034 A 
HETATM   22  C   UNK N   1      22.540  20.061   2.962  0.00  0.00     0.026 A 
HETATM   23 Cl   UNK N   1      19.895  19.433   2.754  0.00  0.00    -0.084 Cl
HETATM   24  C   UNK N   1      23.823  19.929   3.499  0.00  0.00     0.032 A 
ENDBRANCH  10  18
ENDBRANCH   3   4
ENDBRANCH   2   3
ENDBRANCH   1   2
BRANCH   1  25
HETATM   25  C   UNK N   1      33.603  17.943   6.698  0.00  0.00     0.002 C 
BRANCH  25  26
HETATM   26  C   UNK N   1      34.316  17.021   7.672  0.00  0.00     0.020 C 
BRANCH  26  27
HETATM   27  C   UNK N   1      33.715  17.193   9.059  0.00  0.00     0.138 C 
BRANCH  27  28
HETATM   28  N   UNK N   1      34.652  16.819  10.098  0.00  0.00    -0.226 N 
HETATM   29  C   UNK N   1      34.542  15.600  10.819  0.00  0.00     0.686 C 
HETATM   30  N   UNK N   1      33.513  14.850  10.653  0.00  0.00    -0.234 N 
HETATM   31  N   UNK N   1      35.609  15.193  11.677  0.00  0.00    -0.023 N 
HETATM   32  H   UNK N   1      33.452  13.923  10.979  0.00  0.00     0.174 HD
ATOM     33  HN  UNK N   1      32.712  15.237  10.154  1.00  0.00     0.174 HD
HETATM   34  C   UNK N   1      35.640  13.965  12.404  0.00  0.00     0.690 C 
HETATM   35  H   UNK N   1      36.377  15.802  11.774  0.00  0.00     0.203 HD
HETATM   36  N   UNK N   1      34.671  13.127  12.304  0.00  0.00    -0.234 N 
HETATM   37  N   UNK N   1      36.806  13.628  13.155  0.00  0.00    -0.192 N 
HETATM   38  H   UNK N   1      34.705  12.201  12.634  0.00  0.00     0.174 HD
ATOM     39  HN  UNK N   1      33.811  13.442  11.853  1.00  0.00     0.174 HD
HETATM   40  H   UNK N   1      37.594  14.211  13.062  0.00  0.00     0.184 HD
HETATM   41  H   UNK N   1      35.391  17.432  10.313  0.00  0.00     0.177 HD
BRANCH  37  42
HETATM   42  C   UNK N   1      36.910  12.507  14.030  0.00  0.00     0.049 A 
HETATM   43  C   UNK N   1      36.290  12.502  15.289  0.00  0.00     0.032 A 
HETATM   44  C   UNK N   1      36.403  11.396  16.130  0.00  0.00     0.026 A 
HETATM   45  C   UNK N   1      37.136  10.283  15.727  0.00  0.00     0.034 A 
HETATM   46  C   UNK N   1      37.767  10.279  14.478  0.00  0.00     0.026 A 
HETATM   47 Cl   UNK N   1      37.259   8.898  16.788  0.00  0.00    -0.084 Cl
HETATM   48  C   UNK N   1      37.658  11.391  13.635  0.00  0.00     0.032 A 
ENDBRANCH  37  42
ENDBRANCH  27  28
ENDBRANCH  26  27
ENDBRANCH  25  26
ENDBRANCH   1  25
TORSDOF 9
ENDMDL
MODEL 4
REMARK VINA RESULT:      -7.7      8.202     12.729
REMARK  9 active torsions:
REMARK  status: ('A' for Active; 'I' for Inactive)
REMARK    1  A    between atoms: C_1  and  N_2 
REMARK    2  A    between atoms: C_1  and  C_18 
REMARK       I    between atoms: N_2  and  C_3 
REMARK       I    between atoms: C_3  and  N_6 
REMARK       I    between atoms: N_6  and  C_7 
REMARK       I    between atoms: C_7  and  N_10 
REMARK    3  A    between atoms: N_10  and  C_11 
REMARK    4  A    between atoms: C_18  and  C_19 
REMARK    5  A    between atoms: C_19  and  C_20 
REMARK    6  A    between atoms: C_20  and  C_21 
REMARK    7  A    between atoms: C_21  and  C_22 
REMARK    8  A    between atoms: C_22  and  N_23 
REMARK       I    between atoms: N_23  and  C_24 
REMARK       I    between atoms: C_24  and  N_27 
REMARK       I    between atoms: N_27  and  C_28 
REMARK       I    between atoms: C_28  and  N_31 
REMARK    9  A    between atoms: N_31  and  C_32 
ROOT
HETATM    1  C   UNK N   1      35.340  13.739   7.389  0.00  0.00     0.002 C 
ENDROOT
BRANCH   1   2
HETATM    2  C   UNK N   1      36.282  13.361   8.518  0.00  0.00     0.020 C 
BRANCH   2   3
HETATM    3  C   UNK N   1      36.502  14.559   9.430  0.00  0.00     0.138 C 
BRANCH   3   4
HETATM    4  N   UNK N   1      35.732  14.422  10.645  0.00  0.00    -0.226 N 
HETATM    5  C   UNK N   1      36.280  13.849  11.824  0.00  0.00     0.686 C 
HETATM    6  N   UNK N   1      35.442  13.656  12.962  0.00  0.00    -0.023 N 
HETATM    7  N   UNK N   1      37.498  13.437  11.830  0.00  0.00    -0.234 N 
HETATM    8  C   UNK N   1      35.878  13.161  14.226  0.00  0.00     0.690 C 
HETATM    9  H   UNK N   1      34.490  13.883  12.868  0.00  0.00     0.203 HD
HETATM   10  N   UNK N   1      34.900  12.835  15.212  0.00  0.00    -0.192 N 
HETATM   11  N   UNK N   1      37.130  12.994  14.464  0.00  0.00    -0.234 N 
HETATM   12  H   UNK N   1      33.957  12.952  14.958  0.00  0.00     0.184 HD
HETATM   13  H   UNK N   1      37.796  13.209  13.772  0.00  0.00     0.174 HD
ATOM     14  HN  UNK N   1      37.434  12.639  15.371  1.00  0.00     0.174 HD
HETATM   15  H   UNK N   1      38.058  13.444  11.022  0.00  0.00     0.174 HD
ATOM     16  HN  UNK N   1      37.895  13.091  12.703  1.00  0.00     0.174 HD
HETATM   17  H   UNK N   1      34.799  14.735  10.656  0.00  0.00     0.177 HD
BRANCH  10  18
HETATM   18  C   UNK N   1      35.156  12.356  16.530  0.00  0.00     0.049 A 
HETATM   19  C   UNK N   1      35.517  11.015  16.703  0.00  0.00     0.032 A 
HETATM   20  C   UNK N   1      35.777  10.510  17.982  0.00  0.00     0.026 A 
HETATM   21  C   UNK N   1      35.671  11.344  19.097  0.00  0.00     0.034 A 
HETATM   22  C   UNK N   1      35.305  12.680  18.934  0.00  0.00     0.026 A 
HETATM   23 Cl   UNK N   1      35.993  10.719  20.699  0.00  0.00    -0.084 Cl
HETATM   24  C   UNK N   1      35.050  13.186  17.657  0.00  0.00     0.032 A 
ENDBRANCH  10  18
ENDBRANCH   3   4
ENDBRANCH   2   3
ENDBRANCH   1   2
BRANCH   1  25
HETATM   25  C   UNK N   1      34.992  15.219   7.433  0.00  0.00     0.002 C 
BRANCH  25  26
HETATM   26  C   UNK N   1      34.604  15.715   6.050  0.00  0.00     0.020 C 
BRANCH  26  27
HETATM   27  C   UNK N   1      33.895  17.056   6.178  0.00  0.00     0.138 C 
BRANCH  27  28
HETATM   28  N   UNK N   1      32.852  17.206   5.186  0.00  0.00    -0.226 N 
HETATM   29  C   UNK N   1      31.485  17.365   5.537  0.00  0.00     0.686 C 
HETATM   30  N   UNK N   1      31.121  17.243   6.762  0.00  0.00    -0.234 N 
HETATM   31  N   UNK N   1      30.537  17.718   4.528  0.00  0.00    -0.023 N 
HETATM   32  H   UNK N   1      30.236  17.509   7.100  0.00  0.00     0.174 HD
ATOM     33  HN  UNK N   1      31.789  16.848   7.424  1.00  0.00     0.174 HD
HETATM   34  C   UNK N   1      29.152  17.964   4.769  0.00  0.00     0.690 C 
HETATM   35  H   UNK N   1      30.863  17.800   3.602  0.00  0.00     0.203 HD
HETATM   36  N   UNK N   1      28.677  17.886   5.960  0.00  0.00    -0.234 N 
HETATM   37  N   UNK N   1      28.324  18.404   3.693  0.00  0.00    -0.192 N 
HETATM   38  H   UNK N   1      27.783  18.206   6.221  0.00  0.00     0.174 HD
ATOM     39  HN  UNK N   1      29.263  17.465   6.682  1.00  0.00     0.174 HD
HETATM   40  H   UNK N   1      28.762  18.623   2.838  0.00  0.00     0.184 HD
HETATM   41  H   UNK N   1      33.099  17.198   4.233  0.00  0.00     0.177 HD
BRANCH  37  42
HETATM   42  C   UNK N   1      26.907  18.548   3.767  0.00  0.00     0.049 A 
HETATM   43  C   UNK N   1      26.301  19.813   3.809  0.00  0.00     0.032 A 
HETATM   44  C   UNK N   1      24.915  19.933   3.880  0.00  0.00     0.026 A 
HETATM   45  C   UNK N   1      24.115  18.794   3.910  0.00  0.00     0.034 A 
HETATM   46  C   UNK N   1      24.706  17.526   3.878  0.00  0.00     0.026 A 
HETATM   47 Cl   UNK N   1      22.375  18.960   3.987  0.00  0.00    -0.084 Cl
HETATM   48  C   UNK N   1      26.099  17.404   3.811  0.00  0.00     0.032 A 
ENDBRANCH  37  42
ENDBRANCH  27  28
ENDBRANCH  26  27
ENDBRANCH  25  26
ENDBRANCH   1  25
TORSDOF 9
ENDMDL
MODEL 5
REMARK VINA RESULT:      -7.7      6.538      9.925
REMARK  9 active torsions:
REMARK  status: ('A' for Active; 'I' for Inactive)
REMARK    1  A    between atoms: C_1  and  N_2 
REMARK    2  A    between atoms: C_1  and  C_18 
REMARK       I    between atoms: N_2  and  C_3 
REMARK       I    between atoms: C_3  and  N_6 
REMARK       I    between atoms: N_6  and  C_7 
REMARK       I    between atoms: C_7  and  N_10 
REMARK    3  A    between atoms: N_10  and  C_11 
REMARK    4  A    between atoms: C_18  and  C_19 
REMARK    5  A    between atoms: C_19  and  C_20 
REMARK    6  A    between atoms: C_20  and  C_21 
REMARK    7  A    between atoms: C_21  and  C_22 
REMARK    8  A    between atoms: C_22  and  N_23 
REMARK       I    between atoms: N_23  and  C_24 
REMARK       I    between atoms: C_24  and  N_27 
REMARK       I    between atoms: N_27  and  C_28 
REMARK       I    between atoms: C_28  and  N_31 
REMARK    9  A    between atoms: N_31  and  C_32 
ROOT
HETATM    1  C   UNK N   1      32.821  15.904   6.299  0.00  0.00     0.002 C 
ENDROOT
BRANCH   1   2
HETATM    2  C   UNK N   1      32.486  16.439   4.919  0.00  0.00     0.020 C 
BRANCH   2   3
HETATM    3  C   UNK N   1      31.245  17.318   4.991  0.00  0.00     0.138 C 
BRANCH   3   4
HETATM    4  N   UNK N   1      30.048  16.520   4.852  0.00  0.00    -0.226 N 
HETATM    5  C   UNK N   1      29.062  16.457   5.872  0.00  0.00     0.686 C 
HETATM    6  N   UNK N   1      27.948  15.581   5.715  0.00  0.00    -0.023 N 
HETATM    7  N   UNK N   1      29.220  17.127   6.959  0.00  0.00    -0.234 N 
HETATM    8  C   UNK N   1      26.854  15.473   6.624  0.00  0.00     0.690 C 
HETATM    9  H   UNK N   1      27.933  15.006   4.917  0.00  0.00     0.203 HD
HETATM   10  N   UNK N   1      25.910  14.420   6.443  0.00  0.00    -0.192 N 
HETATM   11  N   UNK N   1      26.733  16.302   7.599  0.00  0.00    -0.234 N 
HETATM   12  H   UNK N   1      26.076  13.797   5.699  0.00  0.00     0.184 HD
HETATM   13  H   UNK N   1      27.399  17.018   7.723  0.00  0.00     0.174 HD
ATOM     14  HN  UNK N   1      25.948  16.219   8.245  1.00  0.00     0.174 HD
HETATM   15  H   UNK N   1      30.037  17.641   7.144  0.00  0.00     0.174 HD
ATOM     16  HN  UNK N   1      28.471  17.125   7.651  1.00  0.00     0.174 HD
HETATM   17  H   UNK N   1      29.913  16.004   4.026  0.00  0.00     0.177 HD
BRANCH  10  18
HETATM   18  C   UNK N   1      24.749  14.180   7.235  0.00  0.00     0.049 A 
HETATM   19  C   UNK N   1      24.872  13.407   8.396  0.00  0.00     0.032 A 
HETATM   20  C   UNK N   1      23.755  13.152   9.199  0.00  0.00     0.026 A 
HETATM   21  C   UNK N   1      22.506  13.665   8.841  0.00  0.00     0.034 A 
HETATM   22  C   UNK N   1      22.374  14.430   7.683  0.00  0.00     0.026 A 
HETATM   23 Cl   UNK N   1      21.104  13.349   9.840  0.00  0.00    -0.084 Cl
HETATM   24  C   UNK N   1      23.490  14.689   6.883  0.00  0.00     0.032 A 
ENDBRANCH  10  18
ENDBRANCH   3   4
ENDBRANCH   2   3
ENDBRANCH   1   2
BRANCH   1  25
HETATM   25  C   UNK N   1      34.249  16.247   6.691  0.00  0.00     0.002 C 
BRANCH  25  26
HETATM   26  C   UNK N   1      34.294  17.577   7.426  0.00  0.00     0.020 C 
BRANCH  26  27
HETATM   27  C   UNK N   1      33.556  17.443   8.751  0.00  0.00     0.138 C 
BRANCH  27  28
HETATM   28  N   UNK N   1      34.458  17.109   9.833  0.00  0.00    -0.226 N 
HETATM   29  C   UNK N   1      34.376  15.879  10.539  0.00  0.00     0.686 C 
HETATM   30  N   UNK N   1      33.398  15.078  10.317  0.00  0.00    -0.234 N 
HETATM   31  N   UNK N   1      35.418  15.520  11.448  0.00  0.00    -0.023 N 
HETATM   32  H   UNK N   1      33.369  14.146  10.632  0.00  0.00     0.174 HD
ATOM     33  HN  UNK N   1      32.603  15.427   9.780  1.00  0.00     0.174 HD
HETATM   34  C   UNK N   1      35.477  14.289  12.167  0.00  0.00     0.690 C 
HETATM   35  H   UNK N   1      36.147  16.167  11.587  0.00  0.00     0.203 HD
HETATM   36  N   UNK N   1      34.559  13.403  12.012  0.00  0.00    -0.234 N 
HETATM   37  N   UNK N   1      36.620  14.005  12.973  0.00  0.00    -0.192 N 
HETATM   38  H   UNK N   1      34.625  12.476  12.338  0.00  0.00     0.174 HD
ATOM     39  HN  UNK N   1      33.708  13.677  11.520  1.00  0.00     0.174 HD
HETATM   40  H   UNK N   1      37.380  14.629  12.925  0.00  0.00     0.184 HD
HETATM   41  H   UNK N   1      35.152  17.758  10.089  0.00  0.00     0.177 HD
BRANCH  37  42
HETATM   42  C   UNK N   1      36.739  12.884  13.845  0.00  0.00     0.049 A 
HETATM   43  C   UNK N   1      37.406  11.715  13.447  0.00  0.00     0.032 A 
HETATM   44  C   UNK N   1      37.512  10.629  14.315  0.00  0.00     0.026 A 
HETATM   45  C   UNK N   1      36.955  10.696  15.589  0.00  0.00     0.034 A 
HETATM   46  C   UNK N   1      36.279  11.851  15.995  0.00  0.00     0.026 A 
HETATM   47 Cl   UNK N   1      37.107   9.329  16.672  0.00  0.00    -0.084 Cl
HETATM   48  C   UNK N   1      36.168  12.940  15.123  0.00  0.00     0.032 A 
ENDBRANCH  37  42
ENDBRANCH  27  28
ENDBRANCH  26  27
ENDBRANCH  25  26
ENDBRANCH   1  25
TORSDOF 9
ENDMDL
MODEL 6
REMARK VINA RESULT:      -7.5      6.990     11.949
REMARK  9 active torsions:
REMARK  status: ('A' for Active; 'I' for Inactive)
REMARK    1  A    between atoms: C_1  and  N_2 
REMARK    2  A    between atoms: C_1  and  C_18 
REMARK       I    between atoms: N_2  and  C_3 
REMARK       I    between atoms: C_3  and  N_6 
REMARK       I    between atoms: N_6  and  C_7 
REMARK       I    between atoms: C_7  and  N_10 
REMARK    3  A    between atoms: N_10  and  C_11 
REMARK    4  A    between atoms: C_18  and  C_19 
REMARK    5  A    between atoms: C_19  and  C_20 
REMARK    6  A    between atoms: C_20  and  C_21 
REMARK    7  A    between atoms: C_21  and  C_22 
REMARK    8  A    between atoms: C_22  and  N_23 
REMARK       I    between atoms: N_23  and  C_24 
REMARK       I    between atoms: C_24  and  N_27 
REMARK       I    between atoms: N_27  and  C_28 
REMARK       I    between atoms: C_28  and  N_31 
REMARK    9  A    between atoms: N_31  and  C_32 
ROOT
HETATM    1  C   UNK N   1      33.766  17.796   6.811  0.00  0.00     0.002 C 
ENDROOT
BRANCH   1   2
HETATM    2  C   UNK N   1      34.476  16.933   7.839  0.00  0.00     0.020 C 
BRANCH   2   3
HETATM    3  C   UNK N   1      33.933  17.231   9.228  0.00  0.00     0.138 C 
BRANCH   3   4
HETATM    4  N   UNK N   1      34.855  16.773  10.243  0.00  0.00    -0.226 N 
HETATM    5  C   UNK N   1      34.641  15.570  10.967  0.00  0.00     0.686 C 
HETATM    6  N   UNK N   1      35.537  15.220  12.020  0.00  0.00    -0.023 N 
HETATM    7  N   UNK N   1      33.604  14.850  10.724  0.00  0.00    -0.234 N 
HETATM    8  C   UNK N   1      35.482  14.012  12.776  0.00  0.00     0.690 C 
HETATM    9  H   UNK N   1      36.249  15.861  12.242  0.00  0.00     0.203 HD
HETATM   10  N   UNK N   1      36.318  13.880  13.925  0.00  0.00    -0.192 N 
HETATM   11  N   UNK N   1      34.680  13.066  12.436  0.00  0.00    -0.234 N 
HETATM   12  H   UNK N   1      36.884  14.651  14.153  0.00  0.00     0.184 HD
HETATM   13  H   UNK N   1      34.098  13.173  11.649  0.00  0.00     0.174 HD
ATOM     14  HN  UNK N   1      34.646  12.205  12.981  1.00  0.00     0.174 HD
HETATM   15  H   UNK N   1      32.907  15.132  10.090  0.00  0.00     0.174 HD
ATOM     16  HN  UNK N   1      33.502  13.957  11.204  1.00  0.00     0.174 HD
HETATM   17  H   UNK N   1      35.653  17.313  10.439  0.00  0.00     0.177 HD
BRANCH  10  18
HETATM   18  C   UNK N   1      36.410  12.739  14.775  0.00  0.00     0.049 A 
HETATM   19  C   UNK N   1      35.643  12.705  15.945  0.00  0.00     0.032 A 
HETATM   20  C   UNK N   1      35.708  11.602  16.804  0.00  0.00     0.026 A 
HETATM   21  C   UNK N   1      36.546  10.527  16.498  0.00  0.00     0.034 A 
HETATM   22  C   UNK N   1      37.318  10.556  15.337  0.00  0.00     0.026 A 
HETATM   23 Cl   UNK N   1      36.633   9.144  17.566  0.00  0.00    -0.084 Cl
HETATM   24  C   UNK N   1      37.251  11.656  14.477  0.00  0.00     0.032 A 
ENDBRANCH  10  18
ENDBRANCH   3   4
ENDBRANCH   2   3
ENDBRANCH   1   2
BRANCH   1  25
HETATM   25  C   UNK N   1      33.607  17.060   5.490  0.00  0.00     0.002 C 
BRANCH  25  26
HETATM   26  C   UNK N   1      32.147  17.037   5.066  0.00  0.00     0.020 C 
BRANCH  26  27
HETATM   27  C   UNK N   1      31.264  17.187   6.297  0.00  0.00     0.138 C 
BRANCH  27  28
HETATM   28  N   UNK N   1      30.097  16.334   6.225  0.00  0.00    -0.226 N 
HETATM   29  C   UNK N   1      28.783  16.852   6.084  0.00  0.00     0.686 C 
HETATM   30  N   UNK N   1      28.585  18.120   6.151  0.00  0.00    -0.234 N 
HETATM   31  N   UNK N   1      27.702  15.961   5.808  0.00  0.00    -0.023 N 
HETATM   32  H   UNK N   1      27.743  18.558   5.891  0.00  0.00     0.174 HD
ATOM     33  HN  UNK N   1      29.345  18.707   6.494  1.00  0.00     0.174 HD
HETATM   34  C   UNK N   1      26.352  16.369   5.585  0.00  0.00     0.690 C 
HETATM   35  H   UNK N   1      27.901  14.998   5.766  0.00  0.00     0.203 HD
HETATM   36  N   UNK N   1      26.038  17.614   5.614  0.00  0.00    -0.234 N 
HETATM   37  N   UNK N   1      25.378  15.391   5.224  0.00  0.00    -0.192 N 
HETATM   38  H   UNK N   1      25.175  17.974   5.304  0.00  0.00     0.174 HD
ATOM     39  HN  UNK N   1      26.726  18.273   5.981  1.00  0.00     0.174 HD
HETATM   40  H   UNK N   1      25.694  14.477   5.038  0.00  0.00     0.184 HD
HETATM   41  H   UNK N   1      30.219  15.358   6.277  0.00  0.00     0.177 HD
BRANCH  37  42
HETATM   42  C   UNK N   1      23.979  15.642   5.112  0.00  0.00     0.049 A 
HETATM   43  C   UNK N   1      23.382  15.925   3.874  0.00  0.00     0.032 A 
HETATM   44  C   UNK N   1      22.012  16.167   3.786  0.00  0.00     0.026 A 
HETATM   45  C   UNK N   1      21.221  16.131   4.931  0.00  0.00     0.034 A 
HETATM   46  C   UNK N   1      21.804  15.860   6.173  0.00  0.00     0.026 A 
HETATM   47 Cl   UNK N   1      19.501  16.425   4.803  0.00  0.00    -0.084 Cl
HETATM   48  C   UNK N   1      23.181  15.621   6.263  0.00  0.00     0.032 A 
ENDBRANCH  37  42
ENDBRANCH  27  28
ENDBRANCH  26  27
ENDBRANCH  25  26
ENDBRANCH   1  25
TORSDOF 9
ENDMDL
MODEL 7
REMARK VINA RESULT:      -7.4      9.353     14.101
REMARK  9 active torsions:
REMARK  status: ('A' for Active; 'I' for Inactive)
REMARK    1  A    between atoms: C_1  and  N_2 
REMARK    2  A    between atoms: C_1  and  C_18 
REMARK       I    between atoms: N_2  and  C_3 
REMARK       I    between atoms: C_3  and  N_6 
REMARK       I    between atoms: N_6  and  C_7 
REMARK       I    between atoms: C_7  and  N_10 
REMARK    3  A    between atoms: N_10  and  C_11 
REMARK    4  A    between atoms: C_18  and  C_19 
REMARK    5  A    between atoms: C_19  and  C_20 
REMARK    6  A    between atoms: C_20  and  C_21 
REMARK    7  A    between atoms: C_21  and  C_22 
REMARK    8  A    between atoms: C_22  and  N_23 
REMARK       I    between atoms: N_23  and  C_24 
REMARK       I    between atoms: C_24  and  N_27 
REMARK       I    between atoms: N_27  and  C_28 
REMARK       I    between atoms: C_28  and  N_31 
REMARK    9  A    between atoms: N_31  and  C_32 
ROOT
HETATM    1  C   UNK N   1      35.826  11.665  15.585  0.00  0.00     0.002 C 
ENDROOT
BRANCH   1   2
HETATM    2  C   UNK N   1      36.436  13.039  15.796  0.00  0.00     0.020 C 
BRANCH   2   3
HETATM    3  C   UNK N   1      36.711  13.695  14.451  0.00  0.00     0.138 C 
BRANCH   3   4
HETATM    4  N   UNK N   1      35.564  13.570  13.580  0.00  0.00    -0.226 N 
HETATM    5  C   UNK N   1      35.383  14.409  12.449  0.00  0.00     0.686 C 
HETATM    6  N   UNK N   1      34.186  14.299  11.682  0.00  0.00    -0.023 N 
HETATM    7  N   UNK N   1      36.257  15.311  12.173  0.00  0.00    -0.234 N 
HETATM    8  C   UNK N   1      33.908  15.025  10.487  0.00  0.00     0.690 C 
HETATM    9  H   UNK N   1      33.499  13.672  12.001  0.00  0.00     0.203 HD
HETATM   10  N   UNK N   1      32.595  14.961   9.931  0.00  0.00    -0.192 N 
HETATM   11  N   UNK N   1      34.821  15.739   9.931  0.00  0.00    -0.234 N 
HETATM   12  H   UNK N   1      31.931  14.426  10.422  0.00  0.00     0.184 HD
HETATM   13  H   UNK N   1      35.720  15.787  10.330  0.00  0.00     0.174 HD
ATOM     14  HN  UNK N   1      34.615  16.256   9.076  1.00  0.00     0.174 HD
HETATM   15  H   UNK N   1      37.028  15.491  12.756  0.00  0.00     0.174 HD
ATOM     16  HN  UNK N   1      36.145  15.859  11.320  1.00  0.00     0.174 HD
HETATM   17  H   UNK N   1      34.889  12.883  13.778  0.00  0.00     0.177 HD
BRANCH  10  18
HETATM   18  C   UNK N   1      32.152  15.599   8.736  0.00  0.00     0.049 A 
HETATM   19  C   UNK N   1      32.002  14.829   7.576  0.00  0.00     0.032 A 
HETATM   20  C   UNK N   1      31.568  15.421   6.384  0.00  0.00     0.026 A 
HETATM   21  C   UNK N   1      31.286  16.789   6.346  0.00  0.00     0.034 A 
HETATM   22  C   UNK N   1      31.438  17.563   7.495  0.00  0.00     0.026 A 
HETATM   23 Cl   UNK N   1      30.744  17.535   4.859  0.00  0.00    -0.084 Cl
HETATM   24  C   UNK N   1      31.868  16.972   8.687  0.00  0.00     0.032 A 
ENDBRANCH  10  18
ENDBRANCH   3   4
ENDBRANCH   2   3
ENDBRANCH   1   2
BRANCH   1  25
HETATM   25  C   UNK N   1      36.846  10.565  15.837  0.00  0.00     0.002 C 
BRANCH  25  26
HETATM   26  C   UNK N   1      37.603  10.240  14.560  0.00  0.00     0.020 C 
BRANCH  26  27
HETATM   27  C   UNK N   1      36.610  10.037  13.424  0.00  0.00     0.138 C 
BRANCH  27  28
HETATM   28  N   UNK N   1      37.083  10.625  12.189  0.00  0.00    -0.226 N 
HETATM   29  C   UNK N   1      36.202  11.013  11.145  0.00  0.00     0.686 C 
HETATM   30  N   UNK N   1      34.953  10.723  11.221  0.00  0.00    -0.234 N 
HETATM   31  N   UNK N   1      36.705  11.776  10.048  0.00  0.00    -0.023 N 
HETATM   32  H   UNK N   1      34.264  11.105  10.632  0.00  0.00     0.174 HD
ATOM     33  HN  UNK N   1      34.658  10.056  11.935  1.00  0.00     0.174 HD
HETATM   34  C   UNK N   1      35.908  12.274   8.973  0.00  0.00     0.690 C 
HETATM   35  H   UNK N   1      37.670  11.974  10.032  0.00  0.00     0.203 HD
HETATM   36  N   UNK N   1      34.642  12.058   8.951  0.00  0.00    -0.234 N 
HETATM   37  N   UNK N   1      36.512  13.106   7.983  0.00  0.00    -0.192 N 
HETATM   38  H   UNK N   1      34.014  12.510   8.342  0.00  0.00     0.174 HD
ATOM     39  HN  UNK N   1      34.262  11.373   9.606  1.00  0.00     0.174 HD
HETATM   40  H   UNK N   1      37.441  13.394   8.133  0.00  0.00     0.184 HD
HETATM   41  H   UNK N   1      38.050  10.761  12.068  0.00  0.00     0.177 HD
BRANCH  37  42
HETATM   42  C   UNK N   1      35.865  13.549   6.793  0.00  0.00     0.049 A 
HETATM   43  C   UNK N   1      35.567  14.905   6.583  0.00  0.00     0.032 A 
HETATM   44  C   UNK N   1      34.935  15.318   5.411  0.00  0.00     0.026 A 
HETATM   45  C   UNK N   1      34.592  14.386   4.436  0.00  0.00     0.034 A 
HETATM   46  C   UNK N   1      34.874  13.031   4.636  0.00  0.00     0.026 A 
HETATM   47 Cl   UNK N   1      33.810  14.922   2.965  0.00  0.00    -0.084 Cl
HETATM   48  C   UNK N   1      35.505  12.614   5.814  0.00  0.00     0.032 A 
ENDBRANCH  37  42
ENDBRANCH  27  28
ENDBRANCH  26  27
ENDBRANCH  25  26
ENDBRANCH   1  25
TORSDOF 9
ENDMDL
MODEL 8
REMARK VINA RESULT:      -7.2      6.924     10.211
REMARK  9 active torsions:
REMARK  status: ('A' for Active; 'I' for Inactive)
REMARK    1  A    between atoms: C_1  and  N_2 
REMARK    2  A    between atoms: C_1  and  C_18 
REMARK       I    between atoms: N_2  and  C_3 
REMARK       I    between atoms: C_3  and  N_6 
REMARK       I    between atoms: N_6  and  C_7 
REMARK       I    between atoms: C_7  and  N_10 
REMARK    3  A    between atoms: N_10  and  C_11 
REMARK    4  A    between atoms: C_18  and  C_19 
REMARK    5  A    between atoms: C_19  and  C_20 
REMARK    6  A    between atoms: C_20  and  C_21 
REMARK    7  A    between atoms: C_21  and  C_22 
REMARK    8  A    between atoms: C_22  and  N_23 
REMARK       I    between atoms: N_23  and  C_24 
REMARK       I    between atoms: C_24  and  N_27 
REMARK       I    between atoms: N_27  and  C_28 
REMARK       I    between atoms: C_28  and  N_31 
REMARK    9  A    between atoms: N_31  and  C_32 
ROOT
HETATM    1  C   UNK N   1      32.195  17.252   7.126  0.00  0.00     0.002 C 
ENDROOT
BRANCH   1   2
HETATM    2  C   UNK N   1      31.232  17.168   5.955  0.00  0.00     0.020 C 
BRANCH   2   3
HETATM    3  C   UNK N   1      29.801  17.318   6.451  0.00  0.00     0.138 C 
BRANCH   3   4
HETATM    4  N   UNK N   1      28.910  16.465   5.698  0.00  0.00    -0.226 N 
HETATM    5  C   UNK N   1      27.513  16.422   5.954  0.00  0.00     0.686 C 
HETATM    6  N   UNK N   1      26.700  15.492   5.242  0.00  0.00    -0.023 N 
HETATM    7  N   UNK N   1      27.008  17.160   6.878  0.00  0.00    -0.234 N 
HETATM    8  C   UNK N   1      25.282  15.394   5.348  0.00  0.00     0.690 C 
HETATM    9  H   UNK N   1      27.153  14.871   4.627  0.00  0.00     0.203 HD
HETATM   10  N   UNK N   1      24.619  14.293   4.727  0.00  0.00    -0.192 N 
HETATM   11  N   UNK N   1      24.615  16.273   6.008  0.00  0.00    -0.234 N 
HETATM   12  H   UNK N   1      25.188  13.635   4.266  0.00  0.00     0.184 HD
HETATM   13  H   UNK N   1      25.083  17.021   6.444  0.00  0.00     0.174 HD
ATOM     14  HN  UNK N   1      23.600  16.195   6.080  1.00  0.00     0.174 HD
HETATM   15  H   UNK N   1      27.564  17.717   7.468  0.00  0.00     0.174 HD
ATOM     16  HN  UNK N   1      25.996  17.167   7.003  1.00  0.00     0.174 HD
HETATM   17  H   UNK N   1      29.282  15.896   4.987  0.00  0.00     0.177 HD
BRANCH  10  18
HETATM   18  C   UNK N   1      23.215  14.053   4.710  0.00  0.00     0.049 A 
HETATM   19  C   UNK N   1      22.456  14.556   3.647  0.00  0.00     0.032 A 
HETATM   20  C   UNK N   1      21.074  14.339   3.597  0.00  0.00     0.026 A 
HETATM   21  C   UNK N   1      20.443  13.621   4.615  0.00  0.00     0.034 A 
HETATM   22  C   UNK N   1      21.190  13.122   5.681  0.00  0.00     0.026 A 
HETATM   23 Cl   UNK N   1      18.715  13.346   4.560  0.00  0.00    -0.084 Cl
HETATM   24  C   UNK N   1      22.571  13.334   5.730  0.00  0.00     0.032 A 
ENDBRANCH  10  18
ENDBRANCH   3   4
ENDBRANCH   2   3
ENDBRANCH   1   2
BRANCH   1  25
HETATM   25  C   UNK N   1      33.592  17.635   6.662  0.00  0.00     0.002 C 
BRANCH  25  26
HETATM   26  C   UNK N   1      34.547  17.693   7.843  0.00  0.00     0.020 C 
BRANCH  26  27
HETATM   27  C   UNK N   1      33.801  17.306   9.111  0.00  0.00     0.138 C 
BRANCH  27  28
HETATM   28  N   UNK N   1      34.711  16.928  10.172  0.00  0.00    -0.226 N 
HETATM   29  C   UNK N   1      34.577  15.710  10.891  0.00  0.00     0.686 C 
HETATM   30  N   UNK N   1      33.548  14.965  10.702  0.00  0.00    -0.234 N 
HETATM   31  N   UNK N   1      35.621  15.298  11.774  0.00  0.00    -0.023 N 
HETATM   32  H   UNK N   1      33.474  14.039  11.026  0.00  0.00     0.174 HD
ATOM     33  HN  UNK N   1      32.761  15.357  10.184  1.00  0.00     0.174 HD
HETATM   34  C   UNK N   1      35.628  14.070  12.502  0.00  0.00     0.690 C 
HETATM   35  H   UNK N   1      36.390  15.902  11.889  0.00  0.00     0.203 HD
HETATM   36  N   UNK N   1      34.657  13.238  12.380  0.00  0.00    -0.234 N 
HETATM   37  N   UNK N   1      36.774  13.726  13.281  0.00  0.00    -0.192 N 
HETATM   38  H   UNK N   1      34.677  12.311  12.712  0.00  0.00     0.174 HD
ATOM     39  HN  UNK N   1      33.810  13.557  11.909  1.00  0.00     0.174 HD
HETATM   40  H   UNK N   1      37.567  14.305  13.207  0.00  0.00     0.184 HD
HETATM   41  H   UNK N   1      35.448  17.537  10.404  0.00  0.00     0.177 HD
BRANCH  37  42
HETATM   42  C   UNK N   1      36.851  12.606  14.159  0.00  0.00     0.049 A 
HETATM   43  C   UNK N   1      37.637  11.485  13.848  0.00  0.00     0.032 A 
HETATM   44  C   UNK N   1      37.700  10.400  14.721  0.00  0.00     0.026 A 
HETATM   45  C   UNK N   1      36.981  10.419  15.913  0.00  0.00     0.034 A 
HETATM   46  C   UNK N   1      36.188  11.526  16.231  0.00  0.00     0.026 A 
HETATM   47 Cl   UNK N   1      37.081   9.055  17.004  0.00  0.00    -0.084 Cl
HETATM   48  C   UNK N   1      36.119  12.614  15.353  0.00  0.00     0.032 A 
ENDBRANCH  37  42
ENDBRANCH  27  28
ENDBRANCH  26  27
ENDBRANCH  25  26
ENDBRANCH   1  25
TORSDOF 9
ENDMDL
MODEL 9
REMARK VINA RESULT:      -7.2      8.535     13.120
REMARK  9 active torsions:
REMARK  status: ('A' for Active; 'I' for Inactive)
REMARK    1  A    between atoms: C_1  and  N_2 
REMARK    2  A    between atoms: C_1  and  C_18 
REMARK       I    between atoms: N_2  and  C_3 
REMARK       I    between atoms: C_3  and  N_6 
REMARK       I    between atoms: N_6  and  C_7 
REMARK       I    between atoms: C_7  and  N_10 
REMARK    3  A    between atoms: N_10  and  C_11 
REMARK    4  A    between atoms: C_18  and  C_19 
REMARK    5  A    between atoms: C_19  and  C_20 
REMARK    6  A    between atoms: C_20  and  C_21 
REMARK    7  A    between atoms: C_21  and  C_22 
REMARK    8  A    between atoms: C_22  and  N_23 
REMARK       I    between atoms: N_23  and  C_24 
REMARK       I    between atoms: C_24  and  N_27 
REMARK       I    between atoms: N_27  and  C_28 
REMARK       I    between atoms: C_28  and  N_31 
REMARK    9  A    between atoms: N_31  and  C_32 
ROOT
HETATM    1  C   UNK N   1      35.546  12.007   8.008  0.00  0.00     0.002 C 
ENDROOT
BRANCH   1   2
HETATM    2  C   UNK N   1      34.405  13.006   8.077  0.00  0.00     0.020 C 
BRANCH   2   3
HETATM    3  C   UNK N   1      33.626  12.993   6.770  0.00  0.00     0.138 C 
BRANCH   3   4
HETATM    4  N   UNK N   1      32.336  13.622   6.940  0.00  0.00    -0.226 N 
HETATM    5  C   UNK N   1      31.809  14.531   5.984  0.00  0.00     0.686 C 
HETATM    6  N   UNK N   1      30.573  15.189   6.253  0.00  0.00    -0.023 N 
HETATM    7  N   UNK N   1      32.484  14.813   4.927  0.00  0.00    -0.234 N 
HETATM    8  C   UNK N   1      29.898  16.066   5.353  0.00  0.00     0.690 C 
HETATM    9  H   UNK N   1      30.152  15.024   7.127  0.00  0.00     0.203 HD
HETATM   10  N   UNK N   1      28.773  16.805   5.826  0.00  0.00    -0.192 N 
HETATM   11  N   UNK N   1      30.309  16.200   4.143  0.00  0.00    -0.234 N 
HETATM   12  H   UNK N   1      28.528  16.685   6.771  0.00  0.00     0.184 HD
HETATM   13  H   UNK N   1      31.095  15.695   3.830  0.00  0.00     0.174 HD
ATOM     14  HN  UNK N   1      29.821  16.829   3.505  1.00  0.00     0.174 HD
HETATM   15  H   UNK N   1      33.394  14.469   4.778  0.00  0.00     0.174 HD
ATOM     16  HN  UNK N   1      32.062  15.414   4.220  1.00  0.00     0.174 HD
HETATM   17  H   UNK N   1      31.807  13.414   7.743  0.00  0.00     0.177 HD
BRANCH  10  18
HETATM   18  C   UNK N   1      27.969  17.701   5.062  0.00  0.00     0.049 A 
HETATM   19  C   UNK N   1      26.816  17.209   4.439  0.00  0.00     0.032 A 
HETATM   20  C   UNK N   1      26.003  18.060   3.681  0.00  0.00     0.026 A 
HETATM   21  C   UNK N   1      26.343  19.408   3.539  0.00  0.00     0.034 A 
HETATM   22  C   UNK N   1      27.493  19.903   4.153  0.00  0.00     0.026 A 
HETATM   23 Cl   UNK N   1      25.331  20.477   2.594  0.00  0.00    -0.084 Cl
HETATM   24  C   UNK N   1      28.303  19.055   4.912  0.00  0.00     0.032 A 
ENDBRANCH  10  18
ENDBRANCH   3   4
ENDBRANCH   2   3
ENDBRANCH   1   2
BRANCH   1  25
HETATM   25  C   UNK N   1      36.886  12.685   8.247  0.00  0.00     0.002 C 
BRANCH  25  26
HETATM   26  C   UNK N   1      36.696  14.179   8.455  0.00  0.00     0.020 C 
BRANCH  26  27
HETATM   27  C   UNK N   1      37.327  14.585   9.779  0.00  0.00     0.138 C 
BRANCH  27  28
HETATM   28  N   UNK N   1      36.396  14.450  10.879  0.00  0.00    -0.226 N 
HETATM   29  C   UNK N   1      36.700  13.697  12.045  0.00  0.00     0.686 C 
HETATM   30  N   UNK N   1      37.776  12.998  12.092  0.00  0.00    -0.234 N 
HETATM   31  N   UNK N   1      35.833  13.775  13.177  0.00  0.00    -0.023 N 
HETATM   32  H   UNK N   1      38.135  12.598  12.916  0.00  0.00     0.174 HD
ATOM     33  HN  UNK N   1      38.289  12.847  11.223  1.00  0.00     0.174 HD
HETATM   34  C   UNK N   1      36.065  13.115  14.421  0.00  0.00     0.690 C 
HETATM   35  H   UNK N   1      35.019  14.323  13.094  0.00  0.00     0.203 HD
HETATM   36  N   UNK N   1      37.118  12.398  14.589  0.00  0.00    -0.234 N 
HETATM   37  N   UNK N   1      35.173  13.347  15.511  0.00  0.00    -0.192 N 
HETATM   38  H   UNK N   1      37.424  12.061  15.462  0.00  0.00     0.174 HD
ATOM     39  HN  UNK N   1      37.673  12.164  13.766  1.00  0.00     0.174 HD
HETATM   40  H   UNK N   1      34.482  14.039  15.397  0.00  0.00     0.184 HD
HETATM   41  H   UNK N   1      35.521  14.895  10.817  0.00  0.00     0.177 HD
BRANCH  37  42
HETATM   42  C   UNK N   1      35.211  12.647  16.753  0.00  0.00     0.049 A 
HETATM   43  C   UNK N   1      35.238  11.244  16.802  0.00  0.00     0.032 A 
HETATM   44  C   UNK N   1      35.276  10.579  18.026  0.00  0.00     0.026 A 
HETATM   45  C   UNK N   1      35.286  11.303  19.215  0.00  0.00     0.034 A 
HETATM   46  C   UNK N   1      35.251  12.701  19.181  0.00  0.00     0.026 A 
HETATM   47 Cl   UNK N   1      35.347  10.454  20.744  0.00  0.00    -0.084 Cl
HETATM   48  C   UNK N   1      35.208  13.370  17.952  0.00  0.00     0.032 A 
ENDBRANCH  37  42
ENDBRANCH  27  28
ENDBRANCH  26  27
ENDBRANCH  25  26
ENDBRANCH   1  25
TORSDOF 9
ENDMDL
