REMARK WARNING: 32 MAX_TORS EXCEEDED!!!
REMARK  40 active torsions:
REMARK  status: ('A' for Active; 'I' for Inactive)
REMARK    1  A    between atoms: C_13  and  C_8 
REMARK    2  A    between atoms: C_13  and  C_11 
REMARK    3  A    between atoms: C_15  and  C_11 
REMARK    4  A    between atoms: C_11  and  N_12 
REMARK       I    between atoms: C_102  and  N_12 
REMARK       I    between atoms: C_15  and  N_14 
REMARK    5  A    between atoms: C_16  and  N_14 
REMARK    6  A    between atoms: C_16  and  C_19 
REMARK    7  A    between atoms: C_17  and  C_16 
REMARK       I    between atoms: N_21  and  C_17 
REMARK    8  A    between atoms: C_20  and  C_19 
REMARK    9  A    between atoms: C_27  and  N_21 
REMARK   10  A    between atoms: C_29  and  C_27 
REMARK   11  A    between atoms: C_27  and  C_28 
REMARK   12  A    between atoms: C_31  and  C_28 
REMARK       I    between atoms: N_30  and  C_29 
REMARK   13  A    between atoms: C_38  and  N_30 
REMARK   14  A    between atoms: C_39  and  C_38 
REMARK   15  A    between atoms: C_38  and  C_50 
REMARK       I    between atoms: N_41  and  C_39 
REMARK   16  A    between atoms: C_42  and  N_41 
REMARK   17  A    between atoms: C_44  and  C_42 
REMARK   18  A    between atoms: C_42  and  C_43 
REMARK   19  A    between atoms: C_46  and  C_43 
REMARK       I    between atoms: N_45  and  C_44 
REMARK   20  A    between atoms: C_59  and  N_45 
REMARK   21  A    between atoms: O_51  and  C_50 
REMARK   22  A    between atoms: O_58  and  C_54 
REMARK   23  A    between atoms: C_60  and  C_59 
REMARK   24  A    between atoms: C_59  and  C_74 
REMARK       I    between atoms: N_62  and  C_60 
REMARK   25  A    between atoms: C_63  and  N_62 
REMARK   26  A    between atoms: C_65  and  C_63 
REMARK   27  A    between atoms: C_63  and  C_64 
REMARK   28  A    between atoms: C_73  and  C_64 
REMARK       I    between atoms: N_66  and  C_65 
REMARK   29  A    between atoms: C_67  and  N_66 
REMARK   30  A    between atoms: C_68  and  C_67 
REMARK   31  A    between atoms: C_67  and  C_82 
REMARK       I    between atoms: N_70  and  C_68 
REMARK   32  A    between atoms: C_90  and  C_72 
REMARK       I    between atoms: N_94  and  C_72 
REMARK   33  A    between atoms: C_75  and  C_74 
REMARK   34  A    between atoms: C_76  and  C_75 
REMARK   35  A    between atoms: N_77  and  C_76 
REMARK       I    between atoms: C_78  and  N_77 
REMARK       I    between atoms: N_80  and  C_78 
REMARK   36  A    between atoms: C_83  and  C_82 
REMARK   37  A    between atoms: C_84  and  C_83 
REMARK   38  A    between atoms: N_85  and  C_84 
REMARK       I    between atoms: C_86  and  N_85 
REMARK       I    between atoms: N_89  and  C_86 
REMARK   39  A    between atoms: C_95  and  N_94 
REMARK   40  A    between atoms: C_96  and  C_95 
REMARK       I    between atoms: N_99  and  C_96 
ROOT
HETATM    1  C   UNK N   1      12.417  -7.101   0.967  0.00  0.00     0.180 C 
ENDROOT
BRANCH   1   2
HETATM    2  N   UNK N   1      11.319  -6.176   0.804  0.00  0.00    -0.346 N 
HETATM    3  C   UNK N   1      10.923  -5.577  -0.366  0.00  0.00     0.243 C 
HETATM    4  O   UNK N   1      11.408  -5.870  -1.447  0.00  0.00    -0.271 OA
HETATM    5  H   UNK N   1      10.804  -5.952   1.613  0.00  0.00     0.163 HD
BRANCH   3   6
HETATM    6  C   UNK N   1       9.732  -4.701  -0.333  0.00  0.00     0.200 C 
BRANCH   6   7
HETATM    7  N   UNK N   1       8.726  -5.599   0.149  0.00  0.00    -0.344 N 
HETATM    8  C   UNK N   1       8.334  -6.626  -0.643  0.00  0.00     0.241 C 
HETATM    9  O   UNK N   1       8.436  -6.546  -1.861  0.00  0.00    -0.271 OA
HETATM   10  H   UNK N   1       8.326  -5.471   1.039  0.00  0.00     0.163 HD
BRANCH   8  11
HETATM   11  C   UNK N   1       8.153  -7.960  -0.004  0.00  0.00     0.180 C 
BRANCH  11  12
HETATM   12  N   UNK N   1       7.353  -8.041   1.198  0.00  0.00    -0.346 N 
HETATM   13  C   UNK N   1       6.236  -7.318   1.451  0.00  0.00     0.241 C 
HETATM   14  O   UNK N   1       5.628  -7.525   2.488  0.00  0.00    -0.271 OA
HETATM   15  H   UNK N   1       7.646  -8.676   1.892  0.00  0.00     0.163 HD
BRANCH  13  16
HETATM   16  C   UNK N   1       5.698  -6.320   0.454  0.00  0.00     0.180 C 
BRANCH  16  17
HETATM   17  N   UNK N   1       4.611  -6.889  -0.301  0.00  0.00    -0.346 N 
HETATM   18  C   UNK N   1       3.430  -7.267   0.245  0.00  0.00     0.241 C 
HETATM   19  O   UNK N   1       3.206  -7.120   1.438  0.00  0.00    -0.271 OA
HETATM   20  H   UNK N   1       4.734  -7.011  -1.270  0.00  0.00     0.163 HD
BRANCH  18  21
HETATM   21  C   UNK N   1       2.387  -7.852  -0.648  0.00  0.00     0.180 C 
BRANCH  21  22
HETATM   22  C   UNK N   1       1.103  -7.001  -0.647  0.00  0.00     0.073 C 
BRANCH  22  23
HETATM   23  C   UNK N   1       1.329  -5.507  -0.692  0.00  0.00    -0.055 A 
HETATM   24  C   UNK N   1       0.433  -4.663  -0.025  0.00  0.00     0.019 A 
HETATM   25  C   UNK N   1       0.661  -3.283   0.013  0.00  0.00    -0.025 A 
HETATM   26  C   UNK N   1      -0.237  -2.438   0.670  0.00  0.00     0.012 A 
HETATM   27  C   UNK N   1       1.810  -2.740  -0.608  0.00  0.00    -0.026 A 
HETATM   28  C   UNK N   1       0.005  -1.061   0.717  0.00  0.00     0.001 A 
HETATM   29  C   UNK N   1       1.149  -0.527   0.113  0.00  0.00     0.001 A 
HETATM   30  C   UNK N   1       2.050  -1.365  -0.550  0.00  0.00     0.012 A 
HETATM   31  C   UNK N   1       2.698  -3.580  -1.281  0.00  0.00     0.013 A 
HETATM   32  C   UNK N   1       2.454  -4.954  -1.330  0.00  0.00     0.008 A 
ENDBRANCH  22  23
ENDBRANCH  21  22
BRANCH  21  33
HETATM   33  N   UNK N   1       2.099  -9.207  -0.224  0.00  0.00    -0.348 N 
HETATM   34  C   UNK N   1       3.019 -10.210  -0.264  0.00  0.00     0.214 C 
HETATM   35  O   UNK N   1       2.725 -11.311   0.168  0.00  0.00    -0.274 OA
HETATM   36  C   UNK N   1       4.391  -9.997  -0.828  0.00  0.00     0.117 C 
HETATM   37  H   UNK N   1       1.195  -9.413   0.108  0.00  0.00     0.163 HD
ENDBRANCH  21  33
ENDBRANCH  18  21
ENDBRANCH  16  17
BRANCH  16  38
HETATM   38  C   UNK N   1       5.294  -4.974   1.065  0.00  0.00     0.073 C 
BRANCH  38  39
HETATM   39  C   UNK N   1       6.115  -3.811   0.596  0.00  0.00    -0.056 A 
HETATM   40  C   UNK N   1       6.449  -2.807   1.512  0.00  0.00     0.009 A 
HETATM   41  C   UNK N   1       7.188  -1.694   1.101  0.00  0.00     0.024 A 
HETATM   42  C   UNK N   1       7.601  -1.580  -0.229  0.00  0.00     0.034 A 
HETATM   43  C   UNK N   1       7.259  -2.573  -1.154  0.00  0.00     0.024 A 
HETATM   44 Cl   UNK N   1       8.564  -0.206  -0.729  0.00  0.00    -0.084 Cl
HETATM   45  C   UNK N   1       6.506  -3.681  -0.746  0.00  0.00     0.009 A 
ENDBRANCH  38  39
ENDBRANCH  16  38
ENDBRANCH  13  16
ENDBRANCH  11  12
BRANCH  11  46
HETATM   46  C   UNK N   1       8.131  -9.190  -0.906  0.00  0.00     0.074 C 
BRANCH  46  47
HETATM   47  C   UNK N   1       8.826 -10.367  -0.285  0.00  0.00    -0.040 A 
HETATM   48  C   UNK N   1       8.409 -11.657  -0.614  0.00  0.00     0.094 A 
HETATM   49  N   UNK N   1       9.029 -12.738  -0.068  0.00  0.00    -0.375 N 
HETATM   50  C   UNK N   1      10.066 -12.601   0.803  0.00  0.00     0.087 A 
ATOM     51  HN  UNK N   1       8.709 -13.674  -0.317  1.00  0.00     0.164 HD
HETATM   52  C   UNK N   1      10.521 -11.330   1.155  0.00  0.00     0.018 A 
HETATM   53  C   UNK N   1       9.898 -10.210   0.605  0.00  0.00     0.010 A 
ENDBRANCH  46  47
ENDBRANCH  11  46
ENDBRANCH   8  11
ENDBRANCH   6   7
BRANCH   6  54
HETATM   54  C   UNK N   1       9.984  -3.562   0.644  0.00  0.00     0.199 C 
BRANCH  54  55
HETATM   55  O   UNK N   1      11.049  -2.774   0.194  0.00  0.00    -0.398 OA
HETATM   56  H   UNK N   1      11.891  -3.140  -0.117  0.00  0.00     0.209 HD
ENDBRANCH  54  55
ENDBRANCH   6  54
ENDBRANCH   3   6
ENDBRANCH   1   2
BRANCH   1  57
HETATM   57  C   UNK N   1      13.659  -6.399   0.602  0.00  0.00     0.241 C 
HETATM   58  N   UNK N   1      13.739  -5.927  -0.663  0.00  0.00    -0.346 N 
HETATM   59  H   UNK N   1      12.886  -5.825  -1.144  0.00  0.00     0.163 HD
HETATM   60  O   UNK N   1      14.592  -6.327   1.388  0.00  0.00    -0.271 OA
BRANCH  58  61
HETATM   61  C   UNK N   1      14.906  -5.562  -1.376  0.00  0.00     0.176 C 
BRANCH  61  62
HETATM   62  C   UNK N   1      15.681  -6.805  -1.550  0.00  0.00     0.241 C 
HETATM   63  N   UNK N   1      16.201  -7.373  -0.446  0.00  0.00    -0.346 N 
HETATM   64  H   UNK N   1      15.640  -7.537   0.347  0.00  0.00     0.163 HD
HETATM   65  O   UNK N   1      15.979  -7.202  -2.666  0.00  0.00    -0.271 OA
BRANCH  63  66
HETATM   66  C   UNK N   1      17.567  -7.729  -0.447  0.00  0.00     0.177 C 
BRANCH  66  67
HETATM   67  C   UNK N   1      18.314  -6.432  -0.504  0.00  0.00     0.241 C 
HETATM   68  N   UNK N   1      19.002  -5.985   0.579  0.00  0.00    -0.346 N 
HETATM   69  H   UNK N   1      18.654  -6.166   1.482  0.00  0.00     0.163 HD
HETATM   70  O   UNK N   1      18.426  -5.870  -1.584  0.00  0.00    -0.271 OA
BRANCH  68  71
HETATM   71  C   UNK N   1      20.237  -5.250   0.426  0.00  0.00     0.176 C 
BRANCH  71  72
HETATM   72  C   UNK N   1      21.223  -6.215  -0.187  0.00  0.00     0.243 C 
HETATM   73  N   UNK N   1      22.554  -6.100  -0.013  0.00  0.00    -0.337 N 
HETATM   74  C   UNK N   1      23.455  -7.097  -0.503  0.00  0.00     0.179 A 
HETATM   75  C   UNK N   1      23.160  -5.012   0.702  0.00  0.00     0.127 A 
HETATM   76  C   UNK N   1      24.838  -6.585  -0.165  0.00  0.00     0.037 A 
HETATM   77  C   UNK N   1      24.645  -5.331   0.691  0.00  0.00     0.022 A 
HETATM   78  O   UNK N   1      20.805  -7.186  -0.823  0.00  0.00    -0.271 OA
BRANCH  74  79
HETATM   79  C   UNK N   1      23.182  -8.418   0.177  0.00  0.00     0.241 C 
HETATM   80  O   UNK N   1      23.244  -8.497   1.398  0.00  0.00    -0.271 OA
HETATM   81  N   UNK N   1      22.845  -9.502  -0.565  0.00  0.00    -0.346 N 
HETATM   82  H   UNK N   1      22.716  -9.396  -1.536  0.00  0.00     0.163 HD
BRANCH  81  83
HETATM   83  C   UNK N   1      22.672 -10.809   0.028  0.00  0.00     0.172 C 
HETATM   84  C   UNK N   1      21.794 -11.670  -0.869  0.00  0.00     0.042 C 
BRANCH  83  85
HETATM   85  C   UNK N   1      24.028 -11.430   0.265  0.00  0.00     0.237 C 
HETATM   86  O   UNK N   1      24.829 -10.866   0.992  0.00  0.00    -0.271 OA
HETATM   87  N   UNK N   1      24.376 -12.589  -0.330  0.00  0.00    -0.368 N 
HETATM   88  H   UNK N   1      23.771 -13.233  -0.764  0.00  0.00     0.159 HD
HETATM   89  H   UNK N   1      25.335 -12.815  -0.330  0.00  0.00     0.159 HD
ENDBRANCH  83  85
ENDBRANCH  81  83
ENDBRANCH  74  79
ENDBRANCH  71  72
BRANCH  71  90
HETATM   90  C   UNK N   1      20.122  -4.006  -0.455  0.00  0.00     0.036 C 
BRANCH  90  91
HETATM   91  C   UNK N   1      19.373  -2.859   0.196  0.00  0.00     0.023 C 
BRANCH  91  92
HETATM   92  C   UNK N   1      19.468  -1.637  -0.710  0.00  0.00     0.138 C 
BRANCH  92  93
HETATM   93  N   UNK N   1      20.852  -1.282  -0.921  0.00  0.00    -0.227 N 
HETATM   94  C   UNK N   1      21.540  -0.381  -0.069  0.00  0.00     0.665 C 
HETATM   95  N   UNK N   1      20.922   0.227   0.876  0.00  0.00    -0.235 N 
HETATM   96  N   UNK N   1      22.929  -0.192  -0.233  0.00  0.00    -0.235 N 
HETATM   97  H   UNK N   1      21.089   0.871   1.601  0.00  0.00     0.174 HD
ATOM     98  HN  UNK N   1      19.939  -0.044   0.876  1.00  0.00     0.174 HD
HETATM   99  H   UNK N   1      23.527  -0.965  -0.347  0.00  0.00     0.174 HD
HETATM  100  H   UNK N   1      23.301   0.719  -0.233  0.00  0.00     0.174 HD
HETATM  101  H   UNK N   1      21.334  -1.679  -1.682  0.00  0.00     0.177 HD
ENDBRANCH  92  93
ENDBRANCH  91  92
ENDBRANCH  90  91
ENDBRANCH  71  90
ENDBRANCH  68  71
ENDBRANCH  66  67
BRANCH  66 102
HETATM  102  C   UNK N   1      17.954  -8.570   0.760  0.00  0.00     0.038 C 
BRANCH 102 103
HETATM  103  C   UNK N   1      18.045 -10.041   0.374  0.00  0.00    -0.020 C 
HETATM  104  C   UNK N   1      18.889 -10.254  -0.872  0.00  0.00     0.009 C 
HETATM  105  C   UNK N   1      18.666 -10.814   1.517  0.00  0.00     0.009 C 
ENDBRANCH 102 103
ENDBRANCH  66 102
ENDBRANCH  63  66
ENDBRANCH  61  62
BRANCH  61 106
HETATM  106  C   UNK N   1      15.720  -4.494  -0.639  0.00  0.00     0.036 C 
BRANCH 106 107
HETATM  107  C   UNK N   1      14.949  -3.193  -0.553  0.00  0.00     0.022 C 
BRANCH 107 108
HETATM  108  C   UNK N   1      15.141  -2.562   0.818  0.00  0.00     0.124 C 
BRANCH 108 109
HETATM  109  N   UNK N   1      16.274  -1.664   0.836  0.00  0.00    -0.343 N 
HETATM  110  C   UNK N   1      16.273  -0.474   0.185  0.00  0.00     0.313 C 
HETATM  111  O   UNK N   1      15.304  -0.123  -0.471  0.00  0.00    -0.248 OA
HETATM  112  N   UNK N   1      17.344   0.337   0.274  0.00  0.00    -0.352 N 
HETATM  113  H   UNK N   1      18.249  -0.045   0.338  0.00  0.00     0.160 HD
HETATM  114  H   UNK N   1      17.222   1.314   0.274  0.00  0.00     0.160 HD
HETATM  115  H   UNK N   1      17.078  -1.926   1.341  0.00  0.00     0.164 HD
ENDBRANCH 108 109
ENDBRANCH 107 108
ENDBRANCH 106 107
ENDBRANCH  61 106
ENDBRANCH  58  61
ENDBRANCH   1  57
BRANCH   1 116
HETATM  116  C   UNK N   1      12.247  -8.324   0.046  0.00  0.00     0.073 C 
BRANCH 116 117
HETATM  117  C   UNK N   1      13.268  -9.427   0.203  0.00  0.00    -0.056 A 
HETATM  118  C   UNK N   1      13.346 -10.419  -0.784  0.00  0.00     0.010 A 
HETATM  119  C   UNK N   1      14.267 -11.466  -0.666  0.00  0.00     0.037 A 
HETATM  120  C   UNK N   1      15.110 -11.534   0.445  0.00  0.00     0.065 A 
HETATM  121  C   UNK N   1      15.037 -10.550   1.437  0.00  0.00     0.037 A 
HETATM  122  C   UNK N   1      14.121  -9.499   1.316  0.00  0.00     0.010 A 
BRANCH 120 123
HETATM  123  O   UNK N   1      15.991 -12.542   0.561  0.00  0.00    -0.361 OA
HETATM  124  H   UNK N   1      15.689 -13.425   0.641  0.00  0.00     0.217 HD
ENDBRANCH 120 123
ENDBRANCH 116 117
ENDBRANCH   1 116
TORSDOF 40
