MODEL 1
REMARK VINA RESULT:      -6.6      0.000      0.000
REMARK  9 active torsions:
REMARK  status: ('A' for Active; 'I' for Inactive)
REMARK    1  A    between atoms: C_10  and  O_11 
REMARK    2  A    between atoms: C_24  and  C_23 
REMARK    3  A    between atoms: C_23  and  O_30 
REMARK    4  A    between atoms: C_32  and  C_24 
REMARK    5  A    between atoms: O_30  and  C_26 
REMARK    6  A    between atoms: C_26  and  C_27 
REMARK    7  A    between atoms: C_32  and  O_33 
REMARK    8  A    between atoms: O_33  and  C_34 
REMARK    9  A    between atoms: C_34  and  C_36 
ROOT
HETATM    1  C   UNK N   1      35.146  11.298  14.962  0.00  0.00     0.022 A 
HETATM    2  C   UNK N   1      35.778  10.088  15.654  0.00  0.00    -0.062 A 
HETATM    3  C   UNK N   1      37.182   9.470  13.727  0.00  0.00     0.011 C 
HETATM    4  C   UNK N   1      36.231   8.947  14.799  0.00  0.00     0.036 C 
HETATM    5  C   UNK N   1      36.175  11.823  13.888  0.00  0.00     0.081 C 
HETATM    6  C   UNK N   1      36.568  10.645  12.937  0.00  0.00     0.018 C 
HETATM    7  C   UNK N   1      36.347  10.232  10.029  0.00  0.00     0.026 C 
HETATM    8  C   UNK N   1      37.661  10.016  10.751  0.00  0.00     0.013 C 
HETATM    9  C   UNK N   1      36.033   9.314   8.857  0.00  0.00     0.013 C 
HETATM   10  C   UNK N   1      35.574  12.949  13.004  0.00  0.00     0.144 C 
HETATM   11  C   UNK N   1      34.743  12.400  15.931  0.00  0.00    -0.007 A 
HETATM   12  C   UNK N   1      35.980  10.032  16.978  0.00  0.00     0.058 A 
HETATM   13  C   UNK N   1      34.938  12.330  17.252  0.00  0.00     0.052 A 
HETATM   14  C   UNK N   1      35.568  11.146  17.845  0.00  0.00     0.172 A 
HETATM   15  O   UNK N   1      35.748  11.086  19.049  0.00  0.00    -0.289 OA
HETATM   16 Cl   UNK N   1      37.647  12.457  14.730  0.00  0.00    -0.115 Cl
HETATM   17  C   UNK N   1      37.088  12.329  11.022  0.00  0.00     0.002 C 
HETATM   18  C   UNK N   1      38.355  12.946  10.432  0.00  0.00     0.019 C 
HETATM   19  C   UNK N   1      37.563  11.092  11.827  0.00  0.00     0.004 C 
HETATM   20  C   UNK N   1      33.854  10.829  14.294  0.00  0.00     0.027 C 
HETATM   21  C   UNK N   1      36.563  13.434  11.945  0.00  0.00     0.046 C 
HETATM   22  C   UNK N   1      36.096  11.749   9.907  0.00  0.00     0.144 C 
ENDROOT
BRANCH  22  23
HETATM   23  C   UNK N   1      36.356  12.171   8.441  0.00  0.00     0.187 C 
HETATM   24  O   UNK N   1      37.171  11.560   7.765  0.00  0.00    -0.292 OA
BRANCH  23  25
HETATM   25  C   UNK N   1      35.647  13.331   7.815  0.00  0.00     0.260 C 
BRANCH  25  26
HETATM   26  O   UNK N   1      35.825  14.516   8.482  0.00  0.00    -0.314 OA
BRANCH  26  27
HETATM   27  C   UNK N   1      34.753  15.207   8.944  0.00  0.00     0.258 C 
HETATM   28  O   UNK N   1      33.626  14.732   8.884  0.00  0.00    -0.265 OA
BRANCH  27  29
HETATM   29  C   UNK N   1      34.937  16.586   9.469  0.00  0.00     0.106 C 
HETATM   30  C   UNK N   1      35.312  16.512  10.937  0.00  0.00     0.015 C 
ENDBRANCH  27  29
ENDBRANCH  26  27
ENDBRANCH  25  26
ENDBRANCH  23  25
ENDBRANCH  22  23
BRANCH  22  31
HETATM   31  O   UNK N   1      34.759  11.983  10.244  0.00  0.00    -0.301 OA
BRANCH  31  32
HETATM   32  C   UNK N   1      33.724  11.132   9.944  0.00  0.00     0.259 C 
HETATM   33  O   UNK N   1      33.113  11.233   8.893  0.00  0.00    -0.265 OA
BRANCH  32  34
HETATM   34  C   UNK N   1      33.338  10.062  10.913  0.00  0.00     0.106 C 
HETATM   35  C   UNK N   1      32.606   8.942  10.191  0.00  0.00     0.015 C 
ENDBRANCH  32  34
ENDBRANCH  31  32
ENDBRANCH  22  31
BRANCH  10  36
HETATM   36  O   UNK N   1      35.182  14.051  13.764  0.00  0.00    -0.394 OA
HETATM   37  H   UNK N   1      34.525  14.076  14.478  0.00  0.00     0.210 HD
ENDBRANCH  10  36
TORSDOF 9
ENDMDL
MODEL 2
REMARK VINA RESULT:      -6.5      1.985      2.542
REMARK  9 active torsions:
REMARK  status: ('A' for Active; 'I' for Inactive)
REMARK    1  A    between atoms: C_10  and  O_11 
REMARK    2  A    between atoms: C_24  and  C_23 
REMARK    3  A    between atoms: C_23  and  O_30 
REMARK    4  A    between atoms: C_32  and  C_24 
REMARK    5  A    between atoms: O_30  and  C_26 
REMARK    6  A    between atoms: C_26  and  C_27 
REMARK    7  A    between atoms: C_32  and  O_33 
REMARK    8  A    between atoms: O_33  and  C_34 
REMARK    9  A    between atoms: C_34  and  C_36 
ROOT
HETATM    1  C   UNK N   1      34.951  10.305  13.356  0.00  0.00     0.022 A 
HETATM    2  C   UNK N   1      35.757   9.007  13.434  0.00  0.00    -0.062 A 
HETATM    3  C   UNK N   1      37.151   9.521  11.470  0.00  0.00     0.011 C 
HETATM    4  C   UNK N   1      36.316   8.449  12.163  0.00  0.00     0.036 C 
HETATM    5  C   UNK N   1      35.863  11.390  12.664  0.00  0.00     0.081 C 
HETATM    6  C   UNK N   1      36.364  10.837  11.290  0.00  0.00     0.018 C 
HETATM    7  C   UNK N   1      36.084  11.769   8.510  0.00  0.00     0.026 C 
HETATM    8  C   UNK N   1      37.442  11.420   9.084  0.00  0.00     0.013 C 
HETATM    9  C   UNK N   1      35.843  11.453   7.041  0.00  0.00     0.013 C 
HETATM   10  C   UNK N   1      35.091  12.706  12.378  0.00  0.00     0.144 C 
HETATM   11  C   UNK N   1      34.451  10.782  14.712  0.00  0.00    -0.007 A 
HETATM   12  C   UNK N   1      36.015   8.380  14.591  0.00  0.00     0.058 A 
HETATM   13  C   UNK N   1      34.704  10.144  15.859  0.00  0.00     0.052 A 
HETATM   14  C   UNK N   1      35.500   8.913  15.861  0.00  0.00     0.172 A 
HETATM   15  O   UNK N   1      35.733   8.336  16.909  0.00  0.00    -0.289 OA
HETATM   16 Cl   UNK N   1      37.275  11.756  13.737  0.00  0.00    -0.115 Cl
HETATM   17  C   UNK N   1      36.593  13.259  10.367  0.00  0.00     0.002 C 
HETATM   18  C   UNK N   1      37.749  14.235  10.154  0.00  0.00     0.019 C 
HETATM   19  C   UNK N   1      37.251  11.865  10.530  0.00  0.00     0.004 C 
HETATM   20  C   UNK N   1      33.704  10.028  12.518  0.00  0.00     0.027 C 
HETATM   21  C   UNK N   1      35.969  13.743  11.681  0.00  0.00     0.046 C 
HETATM   22  C   UNK N   1      35.639  13.127   9.088  0.00  0.00     0.144 C 
ENDROOT
BRANCH  22  23
HETATM   23  C   UNK N   1      35.787  14.200   7.983  0.00  0.00     0.187 C 
HETATM   24  O   UNK N   1      36.681  14.105   7.154  0.00  0.00    -0.292 OA
BRANCH  23  25
HETATM   25  C   UNK N   1      34.871  15.381   7.900  0.00  0.00     0.260 C 
BRANCH  25  26
HETATM   26  O   UNK N   1      34.942  16.057   6.710  0.00  0.00    -0.314 OA
BRANCH  26  27
HETATM   27  C   UNK N   1      34.147  17.133   6.488  0.00  0.00     0.258 C 
HETATM   28  O   UNK N   1      34.459  18.242   6.901  0.00  0.00    -0.265 OA
BRANCH  27  29
HETATM   29  C   UNK N   1      32.844  16.954   5.792  0.00  0.00     0.106 C 
HETATM   30  C   UNK N   1      32.936  17.559   4.404  0.00  0.00     0.015 C 
ENDBRANCH  27  29
ENDBRANCH  26  27
ENDBRANCH  25  26
ENDBRANCH  23  25
ENDBRANCH  22  23
BRANCH  22  31
HETATM   31  O   UNK N   1      34.298  13.007   9.463  0.00  0.00    -0.301 OA
BRANCH  31  32
HETATM   32  C   UNK N   1      33.393  12.178   8.848  0.00  0.00     0.259 C 
HETATM   33  O   UNK N   1      32.821  12.520   7.826  0.00  0.00    -0.265 OA
BRANCH  32  34
HETATM   34  C   UNK N   1      33.101  10.834   9.432  0.00  0.00     0.106 C 
HETATM   35  C   UNK N   1      32.771   9.843   8.327  0.00  0.00     0.015 C 
ENDBRANCH  32  34
ENDBRANCH  31  32
ENDBRANCH  22  31
BRANCH  10  36
HETATM   36  O   UNK N   1      34.593  13.281  13.548  0.00  0.00    -0.394 OA
HETATM   37  H   UNK N   1      35.077  13.814  14.199  0.00  0.00     0.210 HD
ENDBRANCH  10  36
TORSDOF 9
ENDMDL
MODEL 3
REMARK VINA RESULT:      -6.3     21.296     25.201
REMARK  9 active torsions:
REMARK  status: ('A' for Active; 'I' for Inactive)
REMARK    1  A    between atoms: C_10  and  O_11 
REMARK    2  A    between atoms: C_24  and  C_23 
REMARK    3  A    between atoms: C_23  and  O_30 
REMARK    4  A    between atoms: C_32  and  C_24 
REMARK    5  A    between atoms: O_30  and  C_26 
REMARK    6  A    between atoms: C_26  and  C_27 
REMARK    7  A    between atoms: C_32  and  O_33 
REMARK    8  A    between atoms: O_33  and  C_34 
REMARK    9  A    between atoms: C_34  and  C_36 
ROOT
HETATM    1  C   UNK N   1      27.724  23.735  -9.401  0.00  0.00     0.022 A 
HETATM    2  C   UNK N   1      27.055  22.366  -9.541  0.00  0.00    -0.062 A 
HETATM    3  C   UNK N   1      25.779  22.553  -7.443  0.00  0.00     0.011 C 
HETATM    4  C   UNK N   1      26.663  21.643  -8.291  0.00  0.00     0.036 C 
HETATM    5  C   UNK N   1      26.762  24.648  -8.546  0.00  0.00     0.081 C 
HETATM    6  C   UNK N   1      26.436  23.928  -7.198  0.00  0.00     0.018 C 
HETATM    7  C   UNK N   1      26.844  24.646  -4.370  0.00  0.00     0.026 C 
HETATM    8  C   UNK N   1      25.487  24.198  -4.874  0.00  0.00     0.013 C 
HETATM    9  C   UNK N   1      27.236  24.235  -2.958  0.00  0.00     0.013 C 
HETATM   10  C   UNK N   1      27.413  26.014  -8.195  0.00  0.00     0.144 C 
HETATM   11  C   UNK N   1      28.059  24.379 -10.739  0.00  0.00    -0.007 A 
HETATM   12  C   UNK N   1      26.770  21.816 -10.730  0.00  0.00     0.058 A 
HETATM   13  C   UNK N   1      27.781  23.816 -11.919  0.00  0.00     0.052 A 
HETATM   14  C   UNK N   1      27.120  22.509 -11.978  0.00  0.00     0.172 A 
HETATM   15  O   UNK N   1      26.864  22.000 -13.056  0.00  0.00    -0.289 OA
HETATM   16 Cl   UNK N   1      25.237  24.944  -9.475  0.00  0.00    -0.115 Cl
HETATM   17  C   UNK N   1      26.031  26.223  -6.038  0.00  0.00     0.002 C 
HETATM   18  C   UNK N   1      24.801  27.042  -5.652  0.00  0.00     0.019 C 
HETATM   19  C   UNK N   1      25.512  24.783  -6.282  0.00  0.00     0.004 C 
HETATM   20  C   UNK N   1      29.058  23.529  -8.684  0.00  0.00     0.027 C 
HETATM   21  C   UNK N   1      26.491  26.883  -7.342  0.00  0.00     0.046 C 
HETATM   22  C   UNK N   1      27.095  26.090  -4.850  0.00  0.00     0.144 C 
ENDROOT
BRANCH  22  23
HETATM   23  C   UNK N   1      26.926  27.041  -3.641  0.00  0.00     0.187 C 
HETATM   24  O   UNK N   1      26.130  26.769  -2.754  0.00  0.00    -0.292 OA
BRANCH  23  25
HETATM   25  C   UNK N   1      27.704  28.315  -3.524  0.00  0.00     0.260 C 
BRANCH  25  26
HETATM   26  O   UNK N   1      27.445  29.021  -2.377  0.00  0.00    -0.314 OA
BRANCH  26  27
HETATM   27  C   UNK N   1      28.456  29.629  -1.708  0.00  0.00     0.258 C 
HETATM   28  O   UNK N   1      29.622  29.324  -1.918  0.00  0.00    -0.265 OA
BRANCH  27  29
HETATM   29  C   UNK N   1      28.143  30.632  -0.656  0.00  0.00     0.106 C 
HETATM   30  C   UNK N   1      28.173  29.954   0.701  0.00  0.00     0.015 C 
ENDBRANCH  27  29
ENDBRANCH  26  27
ENDBRANCH  25  26
ENDBRANCH  23  25
ENDBRANCH  22  23
BRANCH  22  31
HETATM   31  O   UNK N   1      28.406  26.152  -5.330  0.00  0.00    -0.301 OA
BRANCH  31  32
HETATM   32  C   UNK N   1      29.400  25.270  -4.986  0.00  0.00     0.259 C 
HETATM   33  O   UNK N   1      29.565  24.235  -5.611  0.00  0.00    -0.265 OA
BRANCH  32  34
HETATM   34  C   UNK N   1      30.300  25.577  -3.834  0.00  0.00     0.106 C 
HETATM   35  C   UNK N   1      30.921  24.296  -3.299  0.00  0.00     0.015 C 
ENDBRANCH  32  34
ENDBRANCH  31  32
ENDBRANCH  22  31
BRANCH  10  36
HETATM   36  O   UNK N   1      27.751  26.738  -9.339  0.00  0.00    -0.394 OA
HETATM   37  H   UNK N   1      28.404  26.503 -10.018  0.00  0.00     0.210 HD
ENDBRANCH  10  36
TORSDOF 9
ENDMDL
MODEL 4
REMARK VINA RESULT:      -6.3     11.918     15.340
REMARK  9 active torsions:
REMARK  status: ('A' for Active; 'I' for Inactive)
REMARK    1  A    between atoms: C_10  and  O_11 
REMARK    2  A    between atoms: C_24  and  C_23 
REMARK    3  A    between atoms: C_23  and  O_30 
REMARK    4  A    between atoms: C_32  and  C_24 
REMARK    5  A    between atoms: O_30  and  C_26 
REMARK    6  A    between atoms: C_26  and  C_27 
REMARK    7  A    between atoms: C_32  and  O_33 
REMARK    8  A    between atoms: O_33  and  C_34 
REMARK    9  A    between atoms: C_34  and  C_36 
ROOT
HETATM    1  C   UNK N   1      27.538  16.624   4.257  0.00  0.00     0.022 A 
HETATM    2  C   UNK N   1      28.266  16.546   5.600  0.00  0.00    -0.062 A 
HETATM    3  C   UNK N   1      26.322  15.664   6.828  0.00  0.00     0.011 C 
HETATM    4  C   UNK N   1      27.455  16.686   6.849  0.00  0.00     0.036 C 
HETATM    5  C   UNK N   1      26.400  15.532   4.268  0.00  0.00     0.081 C 
HETATM    6  C   UNK N   1      25.497  15.746   5.526  0.00  0.00     0.018 C 
HETATM    7  C   UNK N   1      22.624  16.290   5.885  0.00  0.00     0.026 C 
HETATM    8  C   UNK N   1      23.305  15.163   6.635  0.00  0.00     0.013 C 
HETATM    9  C   UNK N   1      21.513  17.039   6.607  0.00  0.00     0.013 C 
HETATM   10  C   UNK N   1      25.483  15.630   3.019  0.00  0.00     0.144 C 
HETATM   11  C   UNK N   1      28.464  16.449   3.061  0.00  0.00    -0.007 A 
HETATM   12  C   UNK N   1      29.583  16.314   5.700  0.00  0.00     0.058 A 
HETATM   13  C   UNK N   1      29.778  16.231   3.171  0.00  0.00     0.052 A 
HETATM   14  C   UNK N   1      30.406  16.149   4.493  0.00  0.00     0.172 A 
HETATM   15  O   UNK N   1      31.605  15.945   4.590  0.00  0.00    -0.289 OA
HETATM   16 Cl   UNK N   1      27.152  13.886   4.320  0.00  0.00    -0.115 Cl
HETATM   17  C   UNK N   1      23.479  14.653   4.298  0.00  0.00     0.002 C 
HETATM   18  C   UNK N   1      22.811  13.279   4.318  0.00  0.00     0.019 C 
HETATM   19  C   UNK N   1      24.328  14.721   5.594  0.00  0.00     0.004 C 
HETATM   20  C   UNK N   1      26.944  18.027   4.131  0.00  0.00     0.027 C 
HETATM   21  C   UNK N   1      24.364  14.590   3.048  0.00  0.00     0.046 C 
HETATM   22  C   UNK N   1      22.435  15.860   4.417  0.00  0.00     0.144 C 
ENDROOT
BRANCH  22  23
HETATM   23  C   UNK N   1      20.940  15.525   4.195  0.00  0.00     0.187 C 
HETATM   24  O   UNK N   1      20.283  15.032   5.100  0.00  0.00    -0.292 OA
BRANCH  23  25
HETATM   25  C   UNK N   1      20.261  15.771   2.884  0.00  0.00     0.260 C 
BRANCH  25  26
HETATM   26  O   UNK N   1      20.156  14.654   2.095  0.00  0.00    -0.314 OA
BRANCH  26  27
HETATM   27  C   UNK N   1      21.130  14.357   1.200  0.00  0.00     0.258 C 
HETATM   28  O   UNK N   1      21.791  15.242   0.672  0.00  0.00    -0.265 OA
BRANCH  27  29
HETATM   29  C   UNK N   1      21.357  12.942   0.801  0.00  0.00     0.106 C 
HETATM   30  C   UNK N   1      22.745  12.810   0.204  0.00  0.00     0.015 C 
ENDBRANCH  27  29
ENDBRANCH  26  27
ENDBRANCH  25  26
ENDBRANCH  23  25
ENDBRANCH  22  23
BRANCH  22  31
HETATM   31  O   UNK N   1      22.809  16.939   3.610  0.00  0.00    -0.301 OA
BRANCH  31  32
HETATM   32  C   UNK N   1      22.790  18.251   4.013  0.00  0.00     0.259 C 
HETATM   33  O   UNK N   1      23.729  18.733   4.626  0.00  0.00    -0.265 OA
BRANCH  32  34
HETATM   34  C   UNK N   1      21.608  19.108   3.698  0.00  0.00     0.106 C 
HETATM   35  C   UNK N   1      22.028  20.278   2.822  0.00  0.00     0.015 C 
ENDBRANCH  32  34
ENDBRANCH  31  32
ENDBRANCH  22  31
BRANCH  10  36
HETATM   36  O   UNK N   1      26.200  15.457   1.834  0.00  0.00    -0.394 OA
HETATM   37  H   UNK N   1      26.813  14.739   1.612  0.00  0.00     0.210 HD
ENDBRANCH  10  36
TORSDOF 9
ENDMDL
MODEL 5
REMARK VINA RESULT:      -6.2      5.970      9.007
REMARK  9 active torsions:
REMARK  status: ('A' for Active; 'I' for Inactive)
REMARK    1  A    between atoms: C_10  and  O_11 
REMARK    2  A    between atoms: C_24  and  C_23 
REMARK    3  A    between atoms: C_23  and  O_30 
REMARK    4  A    between atoms: C_32  and  C_24 
REMARK    5  A    between atoms: O_30  and  C_26 
REMARK    6  A    between atoms: C_26  and  C_27 
REMARK    7  A    between atoms: C_32  and  O_33 
REMARK    8  A    between atoms: O_33  and  C_34 
REMARK    9  A    between atoms: C_34  and  C_36 
ROOT
HETATM    1  C   UNK N   1      33.707  14.941   8.908  0.00  0.00     0.022 A 
HETATM    2  C   UNK N   1      34.295  13.558   8.621  0.00  0.00    -0.062 A 
HETATM    3  C   UNK N   1      33.138  13.297   6.462  0.00  0.00     0.011 C 
HETATM    4  C   UNK N   1      33.494  12.615   7.780  0.00  0.00     0.036 C 
HETATM    5  C   UNK N   1      33.386  15.619   7.521  0.00  0.00     0.081 C 
HETATM    6  C   UNK N   1      32.467  14.668   6.687  0.00  0.00     0.018 C 
HETATM    7  C   UNK N   1      29.776  14.962   5.523  0.00  0.00     0.026 C 
HETATM    8  C   UNK N   1      30.943  14.481   4.684  0.00  0.00     0.013 C 
HETATM    9  C   UNK N   1      28.407  14.368   5.224  0.00  0.00     0.013 C 
HETATM   10  C   UNK N   1      32.627  16.964   7.690  0.00  0.00     0.144 C 
HETATM   11  C   UNK N   1      34.620  15.816   9.756  0.00  0.00    -0.007 A 
HETATM   12  C   UNK N   1      35.508  13.180   9.052  0.00  0.00     0.058 A 
HETATM   13  C   UNK N   1      35.822  15.425  10.191  0.00  0.00     0.052 A 
HETATM   14  C   UNK N   1      36.330  14.090   9.861  0.00  0.00     0.172 A 
HETATM   15  O   UNK N   1      37.429  13.739  10.255  0.00  0.00    -0.289 OA
HETATM   16 Cl   UNK N   1      34.933  15.923   6.631  0.00  0.00    -0.115 Cl
HETATM   17  C   UNK N   1      31.473  16.705   5.408  0.00  0.00     0.002 C 
HETATM   18  C   UNK N   1      31.697  17.341   4.037  0.00  0.00     0.019 C 
HETATM   19  C   UNK N   1      32.079  15.282   5.310  0.00  0.00     0.004 C 
HETATM   20  C   UNK N   1      32.432  14.743   9.726  0.00  0.00     0.027 C 
HETATM   21  C   UNK N   1      32.291  17.602   6.344  0.00  0.00     0.046 C 
HETATM   22  C   UNK N   1      29.925  16.480   5.749  0.00  0.00     0.144 C 
ENDROOT
BRANCH  22  23
HETATM   23  C   UNK N   1      28.891  17.209   4.858  0.00  0.00     0.187 C 
HETATM   24  O   UNK N   1      28.211  16.574   4.066  0.00  0.00    -0.292 OA
BRANCH  23  25
HETATM   25  C   UNK N   1      28.704  18.693   4.918  0.00  0.00     0.260 C 
BRANCH  25  26
HETATM   26  O   UNK N   1      27.857  19.185   3.959  0.00  0.00    -0.314 OA
BRANCH  26  27
HETATM   27  C   UNK N   1      26.858  20.036   4.302  0.00  0.00     0.258 C 
HETATM   28  O   UNK N   1      26.260  20.680   3.451  0.00  0.00    -0.265 OA
BRANCH  27  29
HETATM   29  C   UNK N   1      26.527  20.240   5.738  0.00  0.00     0.106 C 
HETATM   30  C   UNK N   1      27.002  21.616   6.165  0.00  0.00     0.015 C 
ENDBRANCH  27  29
ENDBRANCH  26  27
ENDBRANCH  25  26
ENDBRANCH  23  25
ENDBRANCH  22  23
BRANCH  22  31
HETATM   31  O   UNK N   1      29.659  16.733   7.098  0.00  0.00    -0.301 OA
BRANCH  31  32
HETATM   32  C   UNK N   1      28.472  17.233   7.573  0.00  0.00     0.259 C 
HETATM   33  O   UNK N   1      27.422  16.638   7.392  0.00  0.00    -0.265 OA
BRANCH  32  34
HETATM   34  C   UNK N   1      28.458  18.523   8.327  0.00  0.00     0.106 C 
HETATM   35  C   UNK N   1      29.624  18.572   9.301  0.00  0.00     0.015 C 
ENDBRANCH  32  34
ENDBRANCH  31  32
ENDBRANCH  22  31
BRANCH  10  36
HETATM   36  O   UNK N   1      33.365  17.887   8.432  0.00  0.00    -0.394 OA
HETATM   37  H   UNK N   1      33.922  18.607   8.096  0.00  0.00     0.210 HD
ENDBRANCH  10  36
TORSDOF 9
ENDMDL
MODEL 6
REMARK VINA RESULT:      -6.1     21.141     24.527
REMARK  9 active torsions:
REMARK  status: ('A' for Active; 'I' for Inactive)
REMARK    1  A    between atoms: C_10  and  O_11 
REMARK    2  A    between atoms: C_24  and  C_23 
REMARK    3  A    between atoms: C_23  and  O_30 
REMARK    4  A    between atoms: C_32  and  C_24 
REMARK    5  A    between atoms: O_30  and  C_26 
REMARK    6  A    between atoms: C_26  and  C_27 
REMARK    7  A    between atoms: C_32  and  O_33 
REMARK    8  A    between atoms: O_33  and  C_34 
REMARK    9  A    between atoms: C_34  and  C_36 
ROOT
HETATM    1  C   UNK N   1      27.496  27.128  -4.873  0.00  0.00     0.022 A 
HETATM    2  C   UNK N   1      27.701  28.473  -5.573  0.00  0.00    -0.062 A 
HETATM    3  C   UNK N   1      27.579  27.531  -7.846  0.00  0.00     0.011 C 
HETATM    4  C   UNK N   1      28.348  28.471  -6.922  0.00  0.00     0.036 C 
HETATM    5  C   UNK N   1      26.671  26.204  -5.849  0.00  0.00     0.081 C 
HETATM    6  C   UNK N   1      27.407  26.128  -7.227  0.00  0.00     0.018 C 
HETATM    7  C   UNK N   1      28.519  23.905  -8.807  0.00  0.00     0.026 C 
HETATM    8  C   UNK N   1      27.571  24.909  -9.430  0.00  0.00     0.013 C 
HETATM    9  C   UNK N   1      29.631  23.352  -9.687  0.00  0.00     0.013 C 
HETATM   10  C   UNK N   1      26.545  24.752  -5.312  0.00  0.00     0.144 C 
HETATM   11  C   UNK N   1      26.812  27.256  -3.518  0.00  0.00    -0.007 A 
HETATM   12  C   UNK N   1      27.286  29.635  -5.050  0.00  0.00     0.058 A 
HETATM   13  C   UNK N   1      26.414  28.422  -3.000  0.00  0.00     0.052 A 
HETATM   14  C   UNK N   1      26.627  29.671  -3.737  0.00  0.00     0.172 A 
HETATM   15  O   UNK N   1      26.258  30.732  -3.263  0.00  0.00    -0.289 OA
HETATM   16 Cl   UNK N   1      25.013  26.897  -6.069  0.00  0.00    -0.115 Cl
HETATM   17  C   UNK N   1      26.359  23.791  -7.689  0.00  0.00     0.002 C 
HETATM   18  C   UNK N   1      25.191  23.271  -8.525  0.00  0.00     0.019 C 
HETATM   19  C   UNK N   1      26.666  25.207  -8.239  0.00  0.00     0.004 C 
HETATM   20  C   UNK N   1      28.876  26.533  -4.596  0.00  0.00     0.027 C 
HETATM   21  C   UNK N   1      25.771  23.853  -6.274  0.00  0.00     0.046 C 
HETATM   22  C   UNK N   1      27.707  22.955  -7.905  0.00  0.00     0.144 C 
ENDROOT
BRANCH  22  23
HETATM   23  C   UNK N   1      27.584  21.588  -8.621  0.00  0.00     0.187 C 
HETATM   24  O   UNK N   1      26.982  21.506  -9.682  0.00  0.00    -0.292 OA
BRANCH  23  25
HETATM   25  C   UNK N   1      28.169  20.338  -8.043  0.00  0.00     0.260 C 
BRANCH  25  26
HETATM   26  O   UNK N   1      29.316  19.921  -8.668  0.00  0.00    -0.314 OA
BRANCH  26  27
HETATM   27  C   UNK N   1      29.821  18.688  -8.414  0.00  0.00     0.258 C 
HETATM   28  O   UNK N   1      29.232  17.906  -7.679  0.00  0.00    -0.265 OA
BRANCH  27  29
HETATM   29  C   UNK N   1      31.142  18.304  -8.979  0.00  0.00     0.106 C 
HETATM   30  C   UNK N   1      32.147  19.402  -8.684  0.00  0.00     0.015 C 
ENDBRANCH  27  29
ENDBRANCH  26  27
ENDBRANCH  25  26
ENDBRANCH  23  25
ENDBRANCH  22  23
BRANCH  22  31
HETATM   31  O   UNK N   1      28.412  22.806  -6.706  0.00  0.00    -0.301 OA
BRANCH  31  32
HETATM   32  C   UNK N   1      29.727  23.159  -6.532  0.00  0.00     0.259 C 
HETATM   33  O   UNK N   1      30.056  24.330  -6.437  0.00  0.00    -0.265 OA
BRANCH  32  34
HETATM   34  C   UNK N   1      30.776  22.098  -6.453  0.00  0.00     0.106 C 
HETATM   35  C   UNK N   1      30.461  21.133  -5.320  0.00  0.00     0.015 C 
ENDBRANCH  32  34
ENDBRANCH  31  32
ENDBRANCH  22  31
BRANCH  10  36
HETATM   36  O   UNK N   1      25.903  24.710  -4.074  0.00  0.00    -0.394 OA
HETATM   37  H   UNK N   1      25.184  24.120  -3.799  0.00  0.00     0.210 HD
ENDBRANCH  10  36
TORSDOF 9
ENDMDL
MODEL 7
REMARK VINA RESULT:      -6.0     18.728     21.740
REMARK  9 active torsions:
REMARK  status: ('A' for Active; 'I' for Inactive)
REMARK    1  A    between atoms: C_10  and  O_11 
REMARK    2  A    between atoms: C_24  and  C_23 
REMARK    3  A    between atoms: C_23  and  O_30 
REMARK    4  A    between atoms: C_32  and  C_24 
REMARK    5  A    between atoms: O_30  and  C_26 
REMARK    6  A    between atoms: C_26  and  C_27 
REMARK    7  A    between atoms: C_32  and  O_33 
REMARK    8  A    between atoms: O_33  and  C_34 
REMARK    9  A    between atoms: C_34  and  C_36 
ROOT
HETATM    1  C   UNK N   1      33.577  20.617  -5.618  0.00  0.00     0.022 A 
HETATM    2  C   UNK N   1      34.878  21.421  -5.664  0.00  0.00    -0.062 A 
HETATM    3  C   UNK N   1      33.823  23.543  -4.991  0.00  0.00     0.011 C 
HETATM    4  C   UNK N   1      34.790  22.883  -5.970  0.00  0.00     0.036 C 
HETATM    5  C   UNK N   1      32.624  21.315  -4.573  0.00  0.00     0.081 C 
HETATM    6  C   UNK N   1      32.459  22.822  -4.957  0.00  0.00     0.018 C 
HETATM    7  C   UNK N   1      30.130  24.494  -5.635  0.00  0.00     0.026 C 
HETATM    8  C   UNK N   1      31.122  24.929  -4.576  0.00  0.00     0.013 C 
HETATM    9  C   UNK N   1      29.505  25.581  -6.498  0.00  0.00     0.013 C 
HETATM   10  C   UNK N   1      31.205  20.683  -4.564  0.00  0.00     0.144 C 
HETATM   11  C   UNK N   1      33.792  19.149  -5.280  0.00  0.00    -0.007 A 
HETATM   12  C   UNK N   1      36.076  20.881  -5.399  0.00  0.00     0.058 A 
HETATM   13  C   UNK N   1      34.993  18.617  -5.029  0.00  0.00     0.052 A 
HETATM   14  C   UNK N   1      36.196  19.453  -5.073  0.00  0.00     0.172 A 
HETATM   15  O   UNK N   1      37.289  18.965  -4.840  0.00  0.00    -0.289 OA
HETATM   16 Cl   UNK N   1      33.343  21.173  -2.918  0.00  0.00    -0.115 Cl
HETATM   17  C   UNK N   1      30.126  22.888  -3.804  0.00  0.00     0.002 C 
HETATM   18  C   UNK N   1      29.591  23.392  -2.465  0.00  0.00     0.019 C 
HETATM   19  C   UNK N   1      31.504  23.576  -3.986  0.00  0.00     0.004 C 
HETATM   20  C   UNK N   1      32.965  20.644  -7.017  0.00  0.00     0.027 C 
HETATM   21  C   UNK N   1      30.275  21.381  -3.573  0.00  0.00     0.046 C 
HETATM   22  C   UNK N   1      29.248  23.372  -5.052  0.00  0.00     0.144 C 
ENDROOT
BRANCH  22  23
HETATM   23  C   UNK N   1      27.849  23.960  -4.747  0.00  0.00     0.187 C 
HETATM   24  O   UNK N   1      27.740  24.921  -3.999  0.00  0.00    -0.292 OA
BRANCH  23  25
HETATM   25  C   UNK N   1      26.601  23.373  -5.329  0.00  0.00     0.260 C 
BRANCH  25  26
HETATM   26  O   UNK N   1      25.606  24.290  -5.547  0.00  0.00    -0.314 OA
BRANCH  26  27
HETATM   27  C   UNK N   1      25.537  24.955  -6.727  0.00  0.00     0.258 C 
HETATM   28  O   UNK N   1      25.356  24.353  -7.778  0.00  0.00    -0.265 OA
BRANCH  27  29
HETATM   29  C   UNK N   1      25.750  26.427  -6.757  0.00  0.00     0.106 C 
HETATM   30  C   UNK N   1      24.908  27.072  -5.672  0.00  0.00     0.015 C 
ENDBRANCH  27  29
ENDBRANCH  26  27
ENDBRANCH  25  26
ENDBRANCH  23  25
ENDBRANCH  22  23
BRANCH  22  31
HETATM   31  O   UNK N   1      29.145  22.370  -6.022  0.00  0.00    -0.301 OA
BRANCH  31  32
HETATM   32  C   UNK N   1      29.284  22.580  -7.371  0.00  0.00     0.259 C 
HETATM   33  O   UNK N   1      28.327  22.895  -8.060  0.00  0.00    -0.265 OA
BRANCH  32  34
HETATM   34  C   UNK N   1      30.625  22.426  -8.012  0.00  0.00     0.106 C 
HETATM   35  C   UNK N   1      30.744  23.359  -9.207  0.00  0.00     0.015 C 
ENDBRANCH  32  34
ENDBRANCH  31  32
ENDBRANCH  22  31
BRANCH  10  36
HETATM   36  O   UNK N   1      31.244  19.327  -4.236  0.00  0.00    -0.394 OA
HETATM   37  H   UNK N   1      31.049  18.919  -3.377  0.00  0.00     0.210 HD
ENDBRANCH  10  36
TORSDOF 9
ENDMDL
MODEL 8
REMARK VINA RESULT:      -6.0      6.943     11.214
REMARK  9 active torsions:
REMARK  status: ('A' for Active; 'I' for Inactive)
REMARK    1  A    between atoms: C_10  and  O_11 
REMARK    2  A    between atoms: C_24  and  C_23 
REMARK    3  A    between atoms: C_23  and  O_30 
REMARK    4  A    between atoms: C_32  and  C_24 
REMARK    5  A    between atoms: O_30  and  C_26 
REMARK    6  A    between atoms: C_26  and  C_27 
REMARK    7  A    between atoms: C_32  and  O_33 
REMARK    8  A    between atoms: O_33  and  C_34 
REMARK    9  A    between atoms: C_34  and  C_36 
ROOT
HETATM    1  C   UNK N   1      27.179  16.952   5.602  0.00  0.00     0.022 A 
HETATM    2  C   UNK N   1      26.898  18.348   5.041  0.00  0.00    -0.062 A 
HETATM    3  C   UNK N   1      29.196  18.701   4.230  0.00  0.00     0.011 C 
HETATM    4  C   UNK N   1      28.030  19.325   4.989  0.00  0.00     0.036 C 
HETATM    5  C   UNK N   1      28.366  16.335   4.768  0.00  0.00     0.081 C 
HETATM    6  C   UNK N   1      29.581  17.319   4.800  0.00  0.00     0.018 C 
HETATM    7  C   UNK N   1      32.363  17.070   5.735  0.00  0.00     0.026 C 
HETATM    8  C   UNK N   1      32.049  17.589   4.347  0.00  0.00     0.013 C 
HETATM    9  C   UNK N   1      33.562  17.672   6.453  0.00  0.00     0.013 C 
HETATM   10  C   UNK N   1      28.852  14.982   5.356  0.00  0.00     0.144 C 
HETATM   11  C   UNK N   1      25.957  16.044   5.587  0.00  0.00    -0.007 A 
HETATM   12  C   UNK N   1      25.700  18.710   4.559  0.00  0.00     0.058 A 
HETATM   13  C   UNK N   1      24.764  16.418   5.115  0.00  0.00     0.052 A 
HETATM   14  C   UNK N   1      24.572  17.768   4.575  0.00  0.00     0.172 A 
HETATM   15  O   UNK N   1      23.484  18.105   4.141  0.00  0.00    -0.289 OA
HETATM   16 Cl   UNK N   1      27.825  16.075   3.060  0.00  0.00    -0.115 Cl
HETATM   17  C   UNK N   1      31.231  15.337   4.451  0.00  0.00     0.002 C 
HETATM   18  C   UNK N   1      32.002  14.763   3.264  0.00  0.00     0.019 C 
HETATM   19  C   UNK N   1      30.808  16.765   4.020  0.00  0.00     0.004 C 
HETATM   20  C   UNK N   1      27.570  17.112   7.071  0.00  0.00     0.027 C 
HETATM   21  C   UNK N   1      30.022  14.402   4.564  0.00  0.00     0.046 C 
HETATM   22  C   UNK N   1      32.143  15.544   5.750  0.00  0.00     0.144 C 
ENDROOT
BRANCH  22  23
HETATM   23  C   UNK N   1      33.527  14.851   5.760  0.00  0.00     0.187 C 
HETATM   24  O   UNK N   1      34.465  15.351   5.156  0.00  0.00    -0.292 OA
BRANCH  23  25
HETATM   25  C   UNK N   1      33.759  13.559   6.480  0.00  0.00     0.260 C 
BRANCH  25  26
HETATM   26  O   UNK N   1      34.962  13.497   7.135  0.00  0.00    -0.314 OA
BRANCH  26  27
HETATM   27  C   UNK N   1      35.026  13.739   8.468  0.00  0.00     0.258 C 
HETATM   28  O   UNK N   1      34.456  13.009   9.267  0.00  0.00    -0.265 OA
BRANCH  27  29
HETATM   29  C   UNK N   1      35.742  14.945   8.963  0.00  0.00     0.106 C 
HETATM   30  C   UNK N   1      36.809  14.518   9.952  0.00  0.00     0.015 C 
ENDBRANCH  27  29
ENDBRANCH  26  27
ENDBRANCH  25  26
ENDBRANCH  23  25
ENDBRANCH  22  23
BRANCH  22  31
HETATM   31  O   UNK N   1      31.442  15.231   6.919  0.00  0.00    -0.301 OA
BRANCH  31  32
HETATM   32  C   UNK N   1      31.447  16.002   8.055  0.00  0.00     0.259 C 
HETATM   33  O   UNK N   1      32.349  15.911   8.872  0.00  0.00    -0.265 OA
BRANCH  32  34
HETATM   34  C   UNK N   1      30.336  16.971   8.300  0.00  0.00     0.106 C 
HETATM   35  C   UNK N   1      30.888  18.267   8.871  0.00  0.00     0.015 C 
ENDBRANCH  32  34
ENDBRANCH  31  32
ENDBRANCH  22  31
BRANCH  10  36
HETATM   36  O   UNK N   1      27.833  14.030   5.378  0.00  0.00    -0.394 OA
HETATM   37  H   UNK N   1      27.019  14.044   5.907  0.00  0.00     0.210 HD
ENDBRANCH  10  36
TORSDOF 9
ENDMDL
MODEL 9
REMARK VINA RESULT:      -5.9      3.881      8.677
REMARK  9 active torsions:
REMARK  status: ('A' for Active; 'I' for Inactive)
REMARK    1  A    between atoms: C_10  and  O_11 
REMARK    2  A    between atoms: C_24  and  C_23 
REMARK    3  A    between atoms: C_23  and  O_30 
REMARK    4  A    between atoms: C_32  and  C_24 
REMARK    5  A    between atoms: O_30  and  C_26 
REMARK    6  A    between atoms: C_26  and  C_27 
REMARK    7  A    between atoms: C_32  and  O_33 
REMARK    8  A    between atoms: O_33  and  C_34 
REMARK    9  A    between atoms: C_34  and  C_36 
ROOT
HETATM    1  C   UNK N   1      33.074  15.488   4.853  0.00  0.00     0.022 A 
HETATM    2  C   UNK N   1      31.897  14.559   4.548  0.00  0.00    -0.062 A 
HETATM    3  C   UNK N   1      32.094  13.294   6.652  0.00  0.00     0.011 C 
HETATM    4  C   UNK N   1      31.914  13.185   5.141  0.00  0.00     0.036 C 
HETATM    5  C   UNK N   1      33.201  15.596   6.422  0.00  0.00     0.081 C 
HETATM    6  C   UNK N   1      33.317  14.158   7.026  0.00  0.00     0.018 C 
HETATM    7  C   UNK N   1      35.364  12.809   8.660  0.00  0.00     0.026 C 
HETATM    8  C   UNK N   1      33.906  12.806   9.074  0.00  0.00     0.013 C 
HETATM    9  C   UNK N   1      36.182  11.563   8.968  0.00  0.00     0.013 C 
HETATM   10  C   UNK N   1      34.468  16.382   6.853  0.00  0.00     0.144 C 
HETATM   11  C   UNK N   1      32.935  16.862   4.212  0.00  0.00    -0.007 A 
HETATM   12  C   UNK N   1      30.842  14.940   3.815  0.00  0.00     0.058 A 
HETATM   13  C   UNK N   1      31.884  17.228   3.472  0.00  0.00     0.052 A 
HETATM   14  C   UNK N   1      30.782  16.290   3.236  0.00  0.00     0.172 A 
HETATM   15  O   UNK N   1      29.822  16.629   2.564  0.00  0.00    -0.289 OA
HETATM   16 Cl   UNK N   1      31.736  16.429   7.085  0.00  0.00    -0.115 Cl
HETATM   17  C   UNK N   1      34.626  15.094   9.071  0.00  0.00     0.002 C 
HETATM   18  C   UNK N   1      34.276  15.441  10.517  0.00  0.00     0.019 C 
HETATM   19  C   UNK N   1      33.476  14.181   8.574  0.00  0.00     0.004 C 
HETATM   20  C   UNK N   1      34.329  14.863   4.247  0.00  0.00     0.027 C 
HETATM   21  C   UNK N   1      34.604  16.457   8.373  0.00  0.00     0.046 C 
HETATM   22  C   UNK N   1      35.952  14.206   8.943  0.00  0.00     0.144 C 
ENDROOT
BRANCH  22  23
HETATM   23  C   UNK N   1      36.861  14.109  10.191  0.00  0.00     0.187 C 
HETATM   24  O   UNK N   1      37.938  14.688  10.211  0.00  0.00    -0.292 OA
BRANCH  23  25
HETATM   25  C   UNK N   1      36.472  13.303  11.391  0.00  0.00     0.260 C 
BRANCH  25  26
HETATM   26  O   UNK N   1      36.669  13.951  12.583  0.00  0.00    -0.314 OA
BRANCH  26  27
HETATM   27  C   UNK N   1      35.954  13.594  13.679  0.00  0.00     0.258 C 
HETATM   28  O   UNK N   1      34.738  13.468  13.623  0.00  0.00    -0.265 OA
BRANCH  27  29
HETATM   29  C   UNK N   1      36.647  13.418  14.984  0.00  0.00     0.106 C 
HETATM   30  C   UNK N   1      37.125  14.771  15.478  0.00  0.00     0.015 C 
ENDBRANCH  27  29
ENDBRANCH  26  27
ENDBRANCH  25  26
ENDBRANCH  23  25
ENDBRANCH  22  23
BRANCH  22  31
HETATM   31  O   UNK N   1      36.708  14.579   7.827  0.00  0.00    -0.301 OA
BRANCH  31  32
HETATM   32  C   UNK N   1      37.286  13.693   6.952  0.00  0.00     0.259 C 
HETATM   33  O   UNK N   1      36.665  13.261   5.994  0.00  0.00    -0.265 OA
BRANCH  32  34
HETATM   34  C   UNK N   1      38.696  13.250   7.166  0.00  0.00     0.106 C 
HETATM   35  C   UNK N   1      39.071  12.184   6.148  0.00  0.00     0.015 C 
ENDBRANCH  32  34
ENDBRANCH  31  32
ENDBRANCH  22  31
BRANCH  10  36
HETATM   36  O   UNK N   1      34.465  17.685   6.356  0.00  0.00    -0.394 OA
HETATM   37  H   UNK N   1      33.794  18.103   5.793  0.00  0.00     0.210 HD
ENDBRANCH  10  36
TORSDOF 9
ENDMDL
