MODEL 1
REMARK VINA RESULT:      -7.7      0.000      0.000
REMARK WARNING: 32 MAX_TORS EXCEEDED!!!
REMARK  35 active torsions:
REMARK  status: ('A' for Active; 'I' for Inactive)
REMARK    1  A    between atoms: O_4  and  C_53 
REMARK    2  A    between atoms: O_4  and  C_56 
REMARK    3  A    between atoms: O_13  and  C_82 
REMARK    4  A    between atoms: O_14  and  C_93 
REMARK       I    between atoms: N_15  and  C_39 
REMARK    5  A    between atoms: C_40  and  N_16 
REMARK       I    between atoms: N_16  and  C_45 
REMARK    6  A    between atoms: N_17  and  N_19 
REMARK       I    between atoms: N_17  and  C_41 
REMARK    7  A    between atoms: C_44  and  N_18 
REMARK       I    between atoms: N_18  and  C_51 
REMARK       I    between atoms: N_19  and  C_54 
REMARK    8  A    between atoms: N_20  and  C_48 
REMARK    9  A    between atoms: C_52  and  N_22 
REMARK       I    between atoms: N_22  and  C_58 
REMARK   10  A    between atoms: C_61  and  N_24 
REMARK       I    between atoms: N_24  and  C_66 
REMARK       I    between atoms: N_25  and  C_54 
REMARK   11  A    between atoms: C_57  and  N_26 
REMARK       I    between atoms: N_26  and  C_76 
REMARK   12  A    between atoms: C_62  and  N_27 
REMARK       I    between atoms: N_27  and  C_70 
REMARK   13  A    between atoms: C_69  and  N_28 
REMARK       I    between atoms: N_28  and  C_75 
REMARK       I    between atoms: N_29  and  C_59 
REMARK       I    between atoms: N_30  and  C_59 
REMARK   14  A    between atoms: C_35  and  C_41 
REMARK   15  A    between atoms: C_39  and  C_40 
REMARK   16  A    between atoms: C_40  and  C_42 
REMARK   17  A    between atoms: C_42  and  C_43 
REMARK   18  A    between atoms: C_43  and  C_48 
REMARK   19  A    between atoms: C_44  and  C_45 
REMARK   20  A    between atoms: C_44  and  C_46 
REMARK   21  A    between atoms: C_46  and  C_47 
REMARK   22  A    between atoms: C_51  and  C_52 
REMARK   23  A    between atoms: C_52  and  C_53 
REMARK   24  A    between atoms: C_55  and  C_66 
REMARK   25  A    between atoms: C_57  and  C_58 
REMARK   26  A    between atoms: C_57  and  C_64 
REMARK   27  A    between atoms: C_61  and  C_68 
REMARK   28  A    between atoms: C_61  and  C_70 
REMARK   29  A    between atoms: C_62  and  C_65 
REMARK   30  A    between atoms: C_62  and  C_75 
REMARK   31  A    between atoms: C_64  and  C_77 
REMARK   32  A    between atoms: C_65  and  C_74 
REMARK   33  A    between atoms: C_68  and  C_79 
REMARK   34  A    between atoms: C_69  and  C_76 
REMARK   35  A    between atoms: C_69  and  C_82 
ROOT
HETATM    1  C   UNK N   1      31.486  15.403   3.714  0.00  0.00     0.180 C 
ENDROOT
BRANCH   1   2
HETATM    2  N   UNK N   1      30.427  15.341   2.726  0.00  0.00    -0.346 N 
HETATM    3  C   UNK N   1      29.085  15.409   2.933  0.00  0.00     0.243 C 
HETATM    4  O   UNK N   1      28.355  15.431   1.954  0.00  0.00    -0.271 OA
HETATM    5  H   UNK N   1      30.714  15.235   1.790  0.00  0.00     0.163 HD
BRANCH   3   6
HETATM    6  C   UNK N   1      28.426  15.434   4.298  0.00  0.00     0.200 C 
BRANCH   6   7
HETATM    7  N   UNK N   1      28.402  16.723   4.962  0.00  0.00    -0.344 N 
HETATM    8  C   UNK N   1      27.413  17.035   5.836  0.00  0.00     0.241 C 
HETATM    9  O   UNK N   1      27.448  18.096   6.439  0.00  0.00    -0.271 OA
HETATM   10  H   UNK N   1      29.113  17.379   4.778  0.00  0.00     0.163 HD
BRANCH   8  11
HETATM   11  C   UNK N   1      26.275  16.070   6.036  0.00  0.00     0.181 C 
BRANCH  11  12
HETATM   12  N   UNK N   1      25.029  16.753   5.775  0.00  0.00    -0.346 N 
HETATM   13  C   UNK N   1      24.346  16.664   4.611  0.00  0.00     0.241 C 
HETATM   14  O   UNK N   1      24.862  16.172   3.616  0.00  0.00    -0.271 OA
HETATM   15  H   UNK N   1      24.654  17.319   6.489  0.00  0.00     0.163 HD
BRANCH  13  16
HETATM   16  C   UNK N   1      22.897  17.049   4.604  0.00  0.00     0.182 C 
BRANCH  16  17
HETATM   17  N   UNK N   1      22.012  16.333   5.515  0.00  0.00    -0.346 N 
HETATM   18  C   UNK N   1      20.760  15.868   5.263  0.00  0.00     0.241 C 
HETATM   19  O   UNK N   1      20.256  15.972   4.153  0.00  0.00    -0.271 OA
HETATM   20  H   UNK N   1      22.363  16.167   6.419  0.00  0.00     0.163 HD
BRANCH  18  21
HETATM   21  C   UNK N   1      19.966  15.289   6.402  0.00  0.00     0.177 A 
HETATM   22  N   UNK N   1      19.266  16.312   7.116  0.00  0.00    -0.348 N 
HETATM   23  C   UNK N   1      19.549  16.288   8.417  0.00  0.00     0.218 A 
HETATM   24  H   UNK N   1      18.650  16.956   6.697  0.00  0.00     0.163 HD
HETATM   25  O   UNK N   1      19.040  17.067   9.206  0.00  0.00    -0.274 OA
HETATM   26  C   UNK N   1      20.510  15.240   8.814  0.00  0.00     0.105 A 
HETATM   27  C   UNK N   1      20.841  14.587   7.464  0.00  0.00     0.044 A 
ENDBRANCH  18  21
ENDBRANCH  16  17
BRANCH  16  28
HETATM   28  C   UNK N   1      22.806  18.567   4.760  0.00  0.00     0.093 C 
BRANCH  28  29
HETATM   29  C   UNK N   1      21.926  19.228   3.758  0.00  0.00     0.028 A 
HETATM   30  N   UNK N   1      20.622  18.952   3.605  0.00  0.00    -0.354 N 
HETATM   31  C   UNK N   1      20.229  19.707   2.559  0.00  0.00     0.180 A 
HETATM   32  H   UNK N   1      20.073  18.334   4.138  0.00  0.00     0.166 HD
HETATM   33  N   UNK N   1      21.251  20.431   2.053  0.00  0.00    -0.360 N 
HETATM   34  C   UNK N   1      22.326  20.129   2.804  0.00  0.00     0.114 A 
ATOM     35  HN  UNK N   1      21.215  21.076   1.264  1.00  0.00     0.166 HD
ENDBRANCH  28  29
ENDBRANCH  16  28
ENDBRANCH  13  16
ENDBRANCH  11  12
BRANCH  11  36
HETATM   36  C   UNK N   1      26.308  15.248   7.316  0.00  0.00     0.075 C 
BRANCH  36  37
HETATM   37  C   UNK N   1      25.593  13.969   7.028  0.00  0.00    -0.028 A 
HETATM   38  C   UNK N   1      24.843  13.240   7.910  0.00  0.00    -0.002 A 
HETATM   39  C   UNK N   1      24.328  12.185   7.212  0.00  0.00     0.042 A 
HETATM   40  C   UNK N   1      24.571  13.437   9.261  0.00  0.00     0.014 A 
HETATM   41  N   UNK N   1      24.724  12.213   5.927  0.00  0.00    -0.365 N 
HETATM   42  C   UNK N   1      23.496  11.244   7.812  0.00  0.00     0.030 A 
HETATM   43  C   UNK N   1      25.510  13.314   5.800  0.00  0.00     0.096 A 
HETATM   44  H   UNK N   1      24.492  11.567   5.221  0.00  0.00     0.165 HD
HETATM   45  C   UNK N   1      23.202  11.409   9.179  0.00  0.00     0.002 A 
HETATM   46  C   UNK N   1      23.739  12.500   9.901  0.00  0.00     0.001 A 
ENDBRANCH  36  37
ENDBRANCH  11  36
ENDBRANCH   8  11
ENDBRANCH   6   7
BRANCH   6  47
HETATM   47  C   UNK N   1      29.052  14.353   5.188  0.00  0.00     0.199 C 
BRANCH  47  48
HETATM   48  O   UNK N   1      28.961  13.077   4.625  0.00  0.00    -0.398 OA
HETATM   49  H   UNK N   1      29.022  12.743   3.717  0.00  0.00     0.209 HD
ENDBRANCH  47  48
ENDBRANCH   6  47
ENDBRANCH   3   6
ENDBRANCH   1   2
BRANCH   1  50
HETATM   50  C   UNK N   1      32.781  14.630   3.444  0.00  0.00     0.241 C 
HETATM   51  O   UNK N   1      33.530  15.081   2.593  0.00  0.00    -0.271 OA
HETATM   52  N   UNK N   1      33.186  13.519   4.119  0.00  0.00    -0.344 N 
HETATM   53  H   UNK N   1      34.062  13.139   3.875  0.00  0.00     0.163 HD
BRANCH  52  54
HETATM   54  C   UNK N   1      32.448  12.847   5.161  0.00  0.00     0.200 C 
BRANCH  54  55
HETATM   55  C   UNK N   1      33.213  12.768   6.451  0.00  0.00     0.243 C 
HETATM   56  O   UNK N   1      33.558  13.810   6.990  0.00  0.00    -0.271 OA
HETATM   57  N   UNK N   1      33.502  11.567   7.026  0.00  0.00    -0.346 N 
HETATM   58  H   UNK N   1      33.231  10.744   6.557  0.00  0.00     0.163 HD
BRANCH  57  59
HETATM   59  C   UNK N   1      34.192  11.445   8.300  0.00  0.00     0.177 C 
BRANCH  59  60
HETATM   60  C   UNK N   1      35.321  10.437   8.170  0.00  0.00     0.241 C 
HETATM   61  O   UNK N   1      35.085   9.295   7.807  0.00  0.00    -0.271 OA
HETATM   62  N   UNK N   1      36.607  10.808   8.398  0.00  0.00    -0.346 N 
HETATM   63  H   UNK N   1      37.332  10.185   8.163  0.00  0.00     0.163 HD
BRANCH  62  64
HETATM   64  C   UNK N   1      36.946  12.092   8.979  0.00  0.00     0.176 C 
BRANCH  64  65
HETATM   65  C   UNK N   1      37.684  13.036   8.046  0.00  0.00     0.243 C 
HETATM   66  O   UNK N   1      37.074  14.014   7.638  0.00  0.00    -0.271 OA
HETATM   67  N   UNK N   1      39.006  12.877   7.724  0.00  0.00    -0.337 N 
HETATM   68  C   UNK N   1      39.774  13.880   7.024  0.00  0.00     0.181 C 
HETATM   69  C   UNK N   1      39.779  11.748   8.155  0.00  0.00     0.127 C 
HETATM   70  C   UNK N   1      41.174  13.305   6.907  0.00  0.00     0.037 C 
HETATM   71  C   UNK N   1      41.218  12.079   7.808  0.00  0.00     0.022 C 
BRANCH  68  72
HETATM   72  C   UNK N   1      39.270  14.236   5.657  0.00  0.00     0.259 C 
HETATM   73  O   UNK N   1      39.250  15.402   5.287  0.00  0.00    -0.269 OA
HETATM   74  N   UNK N   1      38.767  13.251   4.871  0.00  0.00    -0.264 N 
HETATM   75  H   UNK N   1      38.869  12.316   5.158  0.00  0.00     0.190 HD
BRANCH  74  76
HETATM   76  N   UNK N   1      38.119  13.518   3.685  0.00  0.00    -0.249 N 
HETATM   77  C   UNK N   1      36.799  13.246   3.521  0.00  0.00     0.332 C 
HETATM   78  O   UNK N   1      36.151  12.747   4.430  0.00  0.00    -0.246 OA
HETATM   79  N   UNK N   1      36.204  13.504   2.343  0.00  0.00    -0.351 N 
HETATM   80  H   UNK N   1      35.538  12.877   1.977  0.00  0.00     0.160 HD
HETATM   81  H   UNK N   1      36.434  14.321   1.845  0.00  0.00     0.160 HD
HETATM   82  H   UNK N   1      38.625  13.914   2.938  0.00  0.00     0.192 HD
ENDBRANCH  74  76
ENDBRANCH  68  72
ENDBRANCH  64  65
BRANCH  64  83
HETATM   83  C   UNK N   1      37.691  11.918  10.313  0.00  0.00     0.036 C 
BRANCH  83  84
HETATM   84  C   UNK N   1      36.796  12.111  11.534  0.00  0.00     0.023 C 
BRANCH  84  85
HETATM   85  C   UNK N   1      36.506  13.583  11.777  0.00  0.00     0.138 C 
BRANCH  85  86
HETATM   86  N   UNK N   1      35.094  13.836  11.612  0.00  0.00    -0.227 N 
HETATM   87  C   UNK N   1      34.634  14.643  10.719  0.00  0.00     0.665 C 
HETATM   88  N   UNK N   1      35.508  15.336   9.848  0.00  0.00    -0.235 N 
HETATM   89  N   UNK N   1      33.242  14.850  10.619  0.00  0.00    -0.235 N 
HETATM   90  H   UNK N   1      36.458  15.439   9.614  0.00  0.00     0.174 HD
HETATM   91  H   UNK N   1      34.974  15.926   9.269  0.00  0.00     0.174 HD
HETATM   92  H   UNK N   1      32.581  14.694   9.907  0.00  0.00     0.174 HD
HETATM   93  H   UNK N   1      32.847  15.233  11.436  0.00  0.00     0.174 HD
ATOM     94  HN  UNK N   1      34.435  13.358  12.226  1.00  0.00     0.177 HD
ENDBRANCH  85  86
ENDBRANCH  84  85
ENDBRANCH  83  84
ENDBRANCH  64  83
ENDBRANCH  62  64
ENDBRANCH  59  60
BRANCH  59  95
HETATM   95  C   UNK N   1      33.186  11.195   9.436  0.00  0.00     0.038 C 
BRANCH  95  96
HETATM   96  C   UNK N   1      33.397   9.895  10.227  0.00  0.00    -0.020 C 
HETATM   97  C   UNK N   1      33.640  10.157  11.699  0.00  0.00     0.009 C 
HETATM   98  C   UNK N   1      32.293   8.865  10.035  0.00  0.00     0.009 C 
ENDBRANCH  95  96
ENDBRANCH  59  95
ENDBRANCH  57  59
ENDBRANCH  54  55
BRANCH  54  99
HETATM   99  C   UNK N   1      32.019  11.461   4.701  0.00  0.00     0.203 C 
BRANCH  99 100
HETATM  100  O   UNK N   1      30.927  11.013   5.469  0.00  0.00    -0.379 OA
BRANCH 100 101
HETATM  101  C   UNK N   1      30.683   9.642   5.240  0.00  0.00     0.050 C 
HETATM  102  C   UNK N   1      31.532   9.122   4.091  0.00  0.00     0.045 C 
HETATM  103  C   UNK N   1      30.886   8.776   6.483  0.00  0.00     0.045 C 
HETATM  104  C   UNK N   1      29.228   9.505   4.849  0.00  0.00     0.045 C 
ENDBRANCH 100 101
ENDBRANCH  99 100
ENDBRANCH  54  99
ENDBRANCH  52  54
ENDBRANCH   1  50
BRANCH   1 105
HETATM  105  C   UNK N   1      31.758  16.862   4.112  0.00  0.00     0.073 C 
BRANCH 105 106
HETATM  106  C   UNK N   1      32.263  17.049   5.510  0.00  0.00    -0.056 A 
HETATM  107  C   UNK N   1      33.583  17.468   5.727  0.00  0.00     0.010 A 
HETATM  108  C   UNK N   1      34.048  17.681   7.027  0.00  0.00     0.037 A 
HETATM  109  C   UNK N   1      33.193  17.485   8.115  0.00  0.00     0.065 A 
HETATM  110  C   UNK N   1      31.872  17.075   7.902  0.00  0.00     0.037 A 
HETATM  111  C   UNK N   1      31.406  16.862   6.600  0.00  0.00     0.010 A 
BRANCH 109 112
HETATM  112  O   UNK N   1      33.640  17.688   9.365  0.00  0.00    -0.361 OA
HETATM  113  H   UNK N   1      33.979  17.069   9.981  0.00  0.00     0.217 HD
ENDBRANCH 109 112
ENDBRANCH 105 106
ENDBRANCH   1 105
TORSDOF 35
ENDMDL
MODEL 2
REMARK VINA RESULT:      -7.6      2.826      7.625
REMARK WARNING: 32 MAX_TORS EXCEEDED!!!
REMARK  35 active torsions:
REMARK  status: ('A' for Active; 'I' for Inactive)
REMARK    1  A    between atoms: O_4  and  C_53 
REMARK    2  A    between atoms: O_4  and  C_56 
REMARK    3  A    between atoms: O_13  and  C_82 
REMARK    4  A    between atoms: O_14  and  C_93 
REMARK       I    between atoms: N_15  and  C_39 
REMARK    5  A    between atoms: C_40  and  N_16 
REMARK       I    between atoms: N_16  and  C_45 
REMARK    6  A    between atoms: N_17  and  N_19 
REMARK       I    between atoms: N_17  and  C_41 
REMARK    7  A    between atoms: C_44  and  N_18 
REMARK       I    between atoms: N_18  and  C_51 
REMARK       I    between atoms: N_19  and  C_54 
REMARK    8  A    between atoms: N_20  and  C_48 
REMARK    9  A    between atoms: C_52  and  N_22 
REMARK       I    between atoms: N_22  and  C_58 
REMARK   10  A    between atoms: C_61  and  N_24 
REMARK       I    between atoms: N_24  and  C_66 
REMARK       I    between atoms: N_25  and  C_54 
REMARK   11  A    between atoms: C_57  and  N_26 
REMARK       I    between atoms: N_26  and  C_76 
REMARK   12  A    between atoms: C_62  and  N_27 
REMARK       I    between atoms: N_27  and  C_70 
REMARK   13  A    between atoms: C_69  and  N_28 
REMARK       I    between atoms: N_28  and  C_75 
REMARK       I    between atoms: N_29  and  C_59 
REMARK       I    between atoms: N_30  and  C_59 
REMARK   14  A    between atoms: C_35  and  C_41 
REMARK   15  A    between atoms: C_39  and  C_40 
REMARK   16  A    between atoms: C_40  and  C_42 
REMARK   17  A    between atoms: C_42  and  C_43 
REMARK   18  A    between atoms: C_43  and  C_48 
REMARK   19  A    between atoms: C_44  and  C_45 
REMARK   20  A    between atoms: C_44  and  C_46 
REMARK   21  A    between atoms: C_46  and  C_47 
REMARK   22  A    between atoms: C_51  and  C_52 
REMARK   23  A    between atoms: C_52  and  C_53 
REMARK   24  A    between atoms: C_55  and  C_66 
REMARK   25  A    between atoms: C_57  and  C_58 
REMARK   26  A    between atoms: C_57  and  C_64 
REMARK   27  A    between atoms: C_61  and  C_68 
REMARK   28  A    between atoms: C_61  and  C_70 
REMARK   29  A    between atoms: C_62  and  C_65 
REMARK   30  A    between atoms: C_62  and  C_75 
REMARK   31  A    between atoms: C_64  and  C_77 
REMARK   32  A    between atoms: C_65  and  C_74 
REMARK   33  A    between atoms: C_68  and  C_79 
REMARK   34  A    between atoms: C_69  and  C_76 
REMARK   35  A    between atoms: C_69  and  C_82 
ROOT
HETATM    1  C   UNK N   1      25.692  14.181   2.698  0.00  0.00     0.180 C 
ENDROOT
BRANCH   1   2
HETATM    2  N   UNK N   1      26.122  12.853   3.091  0.00  0.00    -0.346 N 
HETATM    3  C   UNK N   1      25.535  12.014   3.985  0.00  0.00     0.243 C 
HETATM    4  O   UNK N   1      26.001  10.892   4.109  0.00  0.00    -0.271 OA
HETATM    5  H   UNK N   1      26.939  12.517   2.656  0.00  0.00     0.163 HD
BRANCH   3   6
HETATM    6  C   UNK N   1      24.354  12.382   4.862  0.00  0.00     0.200 C 
BRANCH   6   7
HETATM    7  N   UNK N   1      24.526  12.142   6.282  0.00  0.00    -0.344 N 
HETATM    8  C   UNK N   1      24.396  13.153   7.177  0.00  0.00     0.241 C 
HETATM    9  O   UNK N   1      24.474  12.919   8.373  0.00  0.00    -0.271 OA
HETATM   10  H   UNK N   1      24.737  11.235   6.600  0.00  0.00     0.163 HD
BRANCH   8  11
HETATM   11  C   UNK N   1      24.174  14.556   6.677  0.00  0.00     0.181 C 
BRANCH  11  12
HETATM   12  N   UNK N   1      25.240  15.401   7.164  0.00  0.00    -0.346 N 
HETATM   13  C   UNK N   1      26.504  15.380   6.683  0.00  0.00     0.241 C 
HETATM   14  O   UNK N   1      26.882  14.475   5.951  0.00  0.00    -0.271 OA
HETATM   15  H   UNK N   1      25.033  16.033   7.891  0.00  0.00     0.163 HD
BRANCH  13  16
HETATM   16  C   UNK N   1      27.387  16.562   6.950  0.00  0.00     0.182 C 
BRANCH  16  17
HETATM   17  N   UNK N   1      27.000  17.833   6.350  0.00  0.00    -0.346 N 
HETATM   18  C   UNK N   1      27.594  18.476   5.310  0.00  0.00     0.241 C 
HETATM   19  O   UNK N   1      28.540  17.980   4.714  0.00  0.00    -0.271 OA
HETATM   20  H   UNK N   1      26.216  18.277   6.745  0.00  0.00     0.163 HD
BRANCH  18  21
HETATM   21  C   UNK N   1      27.116  19.857   4.953  0.00  0.00     0.177 A 
HETATM   22  N   UNK N   1      25.692  19.954   5.053  0.00  0.00    -0.348 N 
HETATM   23  C   UNK N   1      25.148  20.394   3.921  0.00  0.00     0.218 A 
HETATM   24  H   UNK N   1      25.178  19.723   5.860  0.00  0.00     0.163 HD
HETATM   25  O   UNK N   1      23.946  20.565   3.802  0.00  0.00    -0.274 OA
HETATM   26  C   UNK N   1      26.117  20.664   2.840  0.00  0.00     0.105 A 
HETATM   27  C   UNK N   1      27.444  20.262   3.499  0.00  0.00     0.044 A 
ENDBRANCH  18  21
ENDBRANCH  16  17
BRANCH  16  28
HETATM   28  C   UNK N   1      27.608  16.662   8.460  0.00  0.00     0.093 C 
BRANCH  28  29
HETATM   29  C   UNK N   1      28.815  17.443   8.846  0.00  0.00     0.028 A 
HETATM   30  N   UNK N   1      28.774  18.641   9.448  0.00  0.00    -0.354 N 
HETATM   31  C   UNK N   1      30.063  19.022   9.549  0.00  0.00     0.180 A 
HETATM   32  H   UNK N   1      27.978  19.134   9.750  0.00  0.00     0.166 HD
HETATM   33  N   UNK N   1      30.899  18.103   9.017  0.00  0.00    -0.360 N 
HETATM   34  C   UNK N   1      30.115  17.106   8.567  0.00  0.00     0.114 A 
ATOM     35  HN  UNK N   1      31.916  18.155   8.968  1.00  0.00     0.166 HD
ENDBRANCH  28  29
ENDBRANCH  16  28
ENDBRANCH  13  16
ENDBRANCH  11  12
BRANCH  11  36
HETATM   36  C   UNK N   1      22.771  15.116   6.850  0.00  0.00     0.075 C 
BRANCH  36  37
HETATM   37  C   UNK N   1      22.572  16.127   5.768  0.00  0.00    -0.028 A 
HETATM   38  C   UNK N   1      21.407  16.381   5.096  0.00  0.00    -0.002 A 
HETATM   39  C   UNK N   1      21.661  17.416   4.244  0.00  0.00     0.042 A 
HETATM   40  C   UNK N   1      20.151  15.787   5.185  0.00  0.00     0.014 A 
HETATM   41  N   UNK N   1      22.939  17.826   4.343  0.00  0.00    -0.365 N 
HETATM   42  C   UNK N   1      20.676  17.941   3.412  0.00  0.00     0.030 A 
HETATM   43  C   UNK N   1      23.514  17.034   5.285  0.00  0.00     0.096 A 
HETATM   44  H   UNK N   1      23.369  18.552   3.837  0.00  0.00     0.165 HD
HETATM   45  C   UNK N   1      19.394  17.363   3.472  0.00  0.00     0.002 A 
HETATM   46  C   UNK N   1      19.133  16.288   4.354  0.00  0.00     0.001 A 
ENDBRANCH  36  37
ENDBRANCH  11  36
ENDBRANCH   8  11
ENDBRANCH   6   7
BRANCH   6  47
HETATM   47  C   UNK N   1      23.087  11.703   4.325  0.00  0.00     0.199 C 
BRANCH  47  48
HETATM   48  O   UNK N   1      21.935  12.460   4.555  0.00  0.00    -0.398 OA
HETATM   49  H   UNK N   1      21.589  12.927   5.331  0.00  0.00     0.209 HD
ENDBRANCH  47  48
ENDBRANCH   6  47
ENDBRANCH   3   6
ENDBRANCH   1   2
BRANCH   1  50
HETATM   50  C   UNK N   1      26.659  15.351   2.906  0.00  0.00     0.241 C 
HETATM   51  O   UNK N   1      26.170  16.467   2.988  0.00  0.00    -0.271 OA
HETATM   52  N   UNK N   1      28.007  15.237   3.065  0.00  0.00    -0.344 N 
HETATM   53  H   UNK N   1      28.511  16.066   3.232  0.00  0.00     0.163 HD
BRANCH  52  54
HETATM   54  C   UNK N   1      28.762  14.009   3.012  0.00  0.00     0.200 C 
BRANCH  54  55
HETATM   55  C   UNK N   1      30.069  14.103   3.746  0.00  0.00     0.243 C 
HETATM   56  O   UNK N   1      30.266  13.344   4.684  0.00  0.00    -0.271 OA
HETATM   57  N   UNK N   1      31.026  14.996   3.369  0.00  0.00    -0.346 N 
HETATM   58  H   UNK N   1      30.829  15.609   2.624  0.00  0.00     0.163 HD
BRANCH  57  59
HETATM   59  C   UNK N   1      32.325  15.083   4.016  0.00  0.00     0.177 C 
BRANCH  59  60
HETATM   60  C   UNK N   1      32.280  16.147   5.099  0.00  0.00     0.241 C 
HETATM   61  O   UNK N   1      31.586  17.141   4.955  0.00  0.00    -0.271 OA
HETATM   62  N   UNK N   1      32.963  15.978   6.261  0.00  0.00    -0.346 N 
HETATM   63  H   UNK N   1      32.800  16.602   7.005  0.00  0.00     0.163 HD
BRANCH  62  64
HETATM   64  C   UNK N   1      33.925  14.908   6.440  0.00  0.00     0.176 C 
BRANCH  64  65
HETATM   65  C   UNK N   1      33.872  14.226   7.795  0.00  0.00     0.243 C 
HETATM   66  O   UNK N   1      33.853  14.943   8.785  0.00  0.00    -0.271 OA
HETATM   67  N   UNK N   1      33.761  12.868   7.938  0.00  0.00    -0.337 N 
HETATM   68  C   UNK N   1      33.488  12.227   9.203  0.00  0.00     0.181 C 
HETATM   69  C   UNK N   1      33.791  11.965   6.823  0.00  0.00     0.127 C 
HETATM   70  C   UNK N   1      33.422  10.741   8.895  0.00  0.00     0.037 C 
HETATM   71  C   UNK N   1      33.390  10.613   7.379  0.00  0.00     0.022 C 
BRANCH  68  72
HETATM   72  C   UNK N   1      34.509  12.465  10.276  0.00  0.00     0.259 C 
HETATM   73  O   UNK N   1      35.509  11.765  10.347  0.00  0.00    -0.269 OA
HETATM   74  N   UNK N   1      34.263  13.418  11.209  0.00  0.00    -0.264 N 
HETATM   75  H   UNK N   1      33.494  14.019  11.084  0.00  0.00     0.190 HD
BRANCH  74  76
HETATM   76  N   UNK N   1      35.054  13.573  12.327  0.00  0.00    -0.249 N 
HETATM   77  C   UNK N   1      35.923  14.609  12.443  0.00  0.00     0.332 C 
HETATM   78  O   UNK N   1      36.029  15.434  11.546  0.00  0.00    -0.246 OA
HETATM   79  N   UNK N   1      36.692  14.718  13.542  0.00  0.00    -0.351 N 
HETATM   80  H   UNK N   1      37.628  15.011  13.463  0.00  0.00     0.160 HD
HETATM   81  H   UNK N   1      36.317  14.503  14.426  0.00  0.00     0.160 HD
HETATM   82  H   UNK N   1      34.988  12.916  13.057  0.00  0.00     0.192 HD
ENDBRANCH  74  76
ENDBRANCH  68  72
ENDBRANCH  64  65
BRANCH  64  83
HETATM   83  C   UNK N   1      35.348  15.380   6.099  0.00  0.00     0.036 C 
BRANCH  83  84
HETATM   84  C   UNK N   1      36.151  14.353   5.305  0.00  0.00     0.023 C 
BRANCH  84  85
HETATM   85  C   UNK N   1      37.414  13.949   6.047  0.00  0.00     0.138 C 
BRANCH  85  86
HETATM   86  N   UNK N   1      37.302  12.580   6.493  0.00  0.00    -0.227 N 
HETATM   87  C   UNK N   1      37.407  12.244   7.731  0.00  0.00     0.665 C 
HETATM   88  N   UNK N   1      37.650  13.217   8.730  0.00  0.00    -0.235 N 
HETATM   89  N   UNK N   1      37.296  10.885   8.096  0.00  0.00    -0.235 N 
HETATM   90  H   UNK N   1      37.764  14.185   8.866  0.00  0.00     0.174 HD
HETATM   91  H   UNK N   1      37.735  12.763   9.599  0.00  0.00     0.174 HD
HETATM   92  H   UNK N   1      36.673  10.384   8.670  0.00  0.00     0.174 HD
HETATM   93  H   UNK N   1      37.990  10.316   7.689  0.00  0.00     0.174 HD
ATOM     94  HN  UNK N   1      37.133  11.851   5.799  1.00  0.00     0.177 HD
ENDBRANCH  85  86
ENDBRANCH  84  85
ENDBRANCH  83  84
ENDBRANCH  64  83
ENDBRANCH  62  64
ENDBRANCH  59  60
BRANCH  59  95
HETATM   95  C   UNK N   1      33.441  15.229   2.967  0.00  0.00     0.038 C 
BRANCH  95  96
HETATM   96  C   UNK N   1      33.817  13.938   2.224  0.00  0.00    -0.020 C 
HETATM   97  C   UNK N   1      35.185  14.029   1.580  0.00  0.00     0.009 C 
HETATM   98  C   UNK N   1      33.699  12.678   3.070  0.00  0.00     0.009 C 
ENDBRANCH  95  96
ENDBRANCH  59  95
ENDBRANCH  57  59
ENDBRANCH  54  55
BRANCH  54  99
HETATM   99  C   UNK N   1      28.983  13.582   1.567  0.00  0.00     0.203 C 
BRANCH  99 100
HETATM  100  O   UNK N   1      28.460  12.292   1.358  0.00  0.00    -0.379 OA
BRANCH 100 101
HETATM  101  C   UNK N   1      29.368  11.495   0.628  0.00  0.00     0.050 C 
HETATM  102  C   UNK N   1      28.713  10.200   0.176  0.00  0.00     0.045 C 
HETATM  103  C   UNK N   1      29.987  12.221  -0.565  0.00  0.00     0.045 C 
HETATM  104  C   UNK N   1      30.506  11.145   1.563  0.00  0.00     0.045 C 
ENDBRANCH 100 101
ENDBRANCH  99 100
ENDBRANCH  54  99
ENDBRANCH  52  54
ENDBRANCH   1  50
BRANCH   1 105
HETATM  105  C   UNK N   1      25.114  14.156   1.276  0.00  0.00     0.073 C 
BRANCH 105 106
HETATM  106  C   UNK N   1      23.630  13.958   1.202  0.00  0.00    -0.056 A 
HETATM  107  C   UNK N   1      23.104  12.875   0.485  0.00  0.00     0.010 A 
HETATM  108  C   UNK N   1      21.722  12.664   0.445  0.00  0.00     0.037 A 
HETATM  109  C   UNK N   1      20.865  13.530   1.129  0.00  0.00     0.065 A 
HETATM  110  C   UNK N   1      21.388  14.607   1.853  0.00  0.00     0.037 A 
HETATM  111  C   UNK N   1      22.770  14.818   1.893  0.00  0.00     0.010 A 
BRANCH 109 112
HETATM  112  O   UNK N   1      19.537  13.329   1.089  0.00  0.00    -0.361 OA
HETATM  113  H   UNK N   1      19.030  12.646   1.480  0.00  0.00     0.217 HD
ENDBRANCH 109 112
ENDBRANCH 105 106
ENDBRANCH   1 105
TORSDOF 35
ENDMDL
MODEL 3
REMARK VINA RESULT:      -7.5      3.079      7.272
REMARK WARNING: 32 MAX_TORS EXCEEDED!!!
REMARK  35 active torsions:
REMARK  status: ('A' for Active; 'I' for Inactive)
REMARK    1  A    between atoms: O_4  and  C_53 
REMARK    2  A    between atoms: O_4  and  C_56 
REMARK    3  A    between atoms: O_13  and  C_82 
REMARK    4  A    between atoms: O_14  and  C_93 
REMARK       I    between atoms: N_15  and  C_39 
REMARK    5  A    between atoms: C_40  and  N_16 
REMARK       I    between atoms: N_16  and  C_45 
REMARK    6  A    between atoms: N_17  and  N_19 
REMARK       I    between atoms: N_17  and  C_41 
REMARK    7  A    between atoms: C_44  and  N_18 
REMARK       I    between atoms: N_18  and  C_51 
REMARK       I    between atoms: N_19  and  C_54 
REMARK    8  A    between atoms: N_20  and  C_48 
REMARK    9  A    between atoms: C_52  and  N_22 
REMARK       I    between atoms: N_22  and  C_58 
REMARK   10  A    between atoms: C_61  and  N_24 
REMARK       I    between atoms: N_24  and  C_66 
REMARK       I    between atoms: N_25  and  C_54 
REMARK   11  A    between atoms: C_57  and  N_26 
REMARK       I    between atoms: N_26  and  C_76 
REMARK   12  A    between atoms: C_62  and  N_27 
REMARK       I    between atoms: N_27  and  C_70 
REMARK   13  A    between atoms: C_69  and  N_28 
REMARK       I    between atoms: N_28  and  C_75 
REMARK       I    between atoms: N_29  and  C_59 
REMARK       I    between atoms: N_30  and  C_59 
REMARK   14  A    between atoms: C_35  and  C_41 
REMARK   15  A    between atoms: C_39  and  C_40 
REMARK   16  A    between atoms: C_40  and  C_42 
REMARK   17  A    between atoms: C_42  and  C_43 
REMARK   18  A    between atoms: C_43  and  C_48 
REMARK   19  A    between atoms: C_44  and  C_45 
REMARK   20  A    between atoms: C_44  and  C_46 
REMARK   21  A    between atoms: C_46  and  C_47 
REMARK   22  A    between atoms: C_51  and  C_52 
REMARK   23  A    between atoms: C_52  and  C_53 
REMARK   24  A    between atoms: C_55  and  C_66 
REMARK   25  A    between atoms: C_57  and  C_58 
REMARK   26  A    between atoms: C_57  and  C_64 
REMARK   27  A    between atoms: C_61  and  C_68 
REMARK   28  A    between atoms: C_61  and  C_70 
REMARK   29  A    between atoms: C_62  and  C_65 
REMARK   30  A    between atoms: C_62  and  C_75 
REMARK   31  A    between atoms: C_64  and  C_77 
REMARK   32  A    between atoms: C_65  and  C_74 
REMARK   33  A    between atoms: C_68  and  C_79 
REMARK   34  A    between atoms: C_69  and  C_76 
REMARK   35  A    between atoms: C_69  and  C_82 
ROOT
HETATM    1  C   UNK N   1      25.822  13.815   3.919  0.00  0.00     0.180 C 
ENDROOT
BRANCH   1   2
HETATM    2  N   UNK N   1      26.009  12.622   4.722  0.00  0.00    -0.346 N 
HETATM    3  C   UNK N   1      25.324  11.449   4.648  0.00  0.00     0.243 C 
HETATM    4  O   UNK N   1      25.697  10.524   5.354  0.00  0.00    -0.271 OA
HETATM    5  H   UNK N   1      26.718  12.666   5.403  0.00  0.00     0.163 HD
BRANCH   3   6
HETATM    6  C   UNK N   1      24.112  11.215   3.770  0.00  0.00     0.200 C 
BRANCH   6   7
HETATM    7  N   UNK N   1      23.065  10.393   4.346  0.00  0.00    -0.344 N 
HETATM    8  C   UNK N   1      21.824  10.896   4.557  0.00  0.00     0.241 C 
HETATM    9  O   UNK N   1      20.937  10.169   4.977  0.00  0.00    -0.271 OA
HETATM   10  H   UNK N   1      23.258   9.458   4.587  0.00  0.00     0.163 HD
BRANCH   8  11
HETATM   11  C   UNK N   1      21.563  12.353   4.282  0.00  0.00     0.181 C 
BRANCH  11  12
HETATM   12  N   UNK N   1      21.580  13.076   5.533  0.00  0.00    -0.346 N 
HETATM   13  C   UNK N   1      20.496  13.249   6.323  0.00  0.00     0.241 C 
HETATM   14  O   UNK N   1      19.371  12.992   5.912  0.00  0.00    -0.271 OA
HETATM   15  H   UNK N   1      22.434  13.468   5.828  0.00  0.00     0.163 HD
BRANCH  13  16
HETATM   16  C   UNK N   1      20.713  13.626   7.758  0.00  0.00     0.182 C 
BRANCH  16  17
HETATM   17  N   UNK N   1      21.485  12.702   8.580  0.00  0.00    -0.346 N 
HETATM   18  C   UNK N   1      21.395  12.511   9.923  0.00  0.00     0.241 C 
HETATM   19  O   UNK N   1      20.561  13.103  10.594  0.00  0.00    -0.271 OA
HETATM   20  H   UNK N   1      22.150  12.153   8.107  0.00  0.00     0.163 HD
BRANCH  18  21
HETATM   21  C   UNK N   1      22.401  11.612  10.589  0.00  0.00     0.177 A 
HETATM   22  N   UNK N   1      22.325  11.717  12.014  0.00  0.00    -0.348 N 
HETATM   23  C   UNK N   1      23.506  12.020  12.549  0.00  0.00     0.218 A 
HETATM   24  H   UNK N   1      21.501  11.583  12.535  0.00  0.00     0.163 HD
HETATM   25  O   UNK N   1      23.662  12.138  13.753  0.00  0.00    -0.274 OA
HETATM   26  C   UNK N   1      24.598  12.185  11.568  0.00  0.00     0.105 A 
HETATM   27  C   UNK N   1      23.863  11.963  10.238  0.00  0.00     0.044 A 
ENDBRANCH  18  21
ENDBRANCH  16  17
BRANCH  16  28
HETATM   28  C   UNK N   1      21.258  15.054   7.799  0.00  0.00     0.093 C 
BRANCH  28  29
HETATM   29  C   UNK N   1      20.292  16.056   8.327  0.00  0.00     0.028 A 
HETATM   30  N   UNK N   1      19.246  15.752   9.109  0.00  0.00    -0.354 N 
HETATM   31  C   UNK N   1      18.601  16.921   9.294  0.00  0.00     0.180 A 
HETATM   32  H   UNK N   1      19.002  14.869   9.470  0.00  0.00     0.166 HD
HETATM   33  N   UNK N   1      19.208  17.936   8.641  0.00  0.00    -0.360 N 
HETATM   34  C   UNK N   1      20.274  17.394   8.024  0.00  0.00     0.114 A 
ATOM     35  HN  UNK N   1      18.917  18.913   8.620  1.00  0.00     0.166 HD
ENDBRANCH  28  29
ENDBRANCH  16  28
ENDBRANCH  13  16
ENDBRANCH  11  12
BRANCH  11  36
HETATM   36  C   UNK N   1      20.388  12.664   3.368  0.00  0.00     0.075 C 
BRANCH  36  37
HETATM   37  C   UNK N   1      20.755  13.887   2.591  0.00  0.00    -0.028 A 
HETATM   38  C   UNK N   1      20.424  15.177   2.901  0.00  0.00    -0.002 A 
HETATM   39  C   UNK N   1      21.014  15.973   1.962  0.00  0.00     0.042 A 
HETATM   40  C   UNK N   1      19.664  15.702   3.943  0.00  0.00     0.014 A 
HETATM   41  N   UNK N   1      21.701  15.240   1.067  0.00  0.00    -0.365 N 
HETATM   42  C   UNK N   1      20.891  17.359   1.991  0.00  0.00     0.030 A 
HETATM   43  C   UNK N   1      21.547  13.945   1.446  0.00  0.00     0.096 A 
HETATM   44  H   UNK N   1      22.211  15.574   0.294  0.00  0.00     0.165 HD
HETATM   45  C   UNK N   1      20.125  17.925   3.028  0.00  0.00     0.002 A 
HETATM   46  C   UNK N   1      19.512  17.100   3.999  0.00  0.00     0.001 A 
ENDBRANCH  36  37
ENDBRANCH  11  36
ENDBRANCH   8  11
ENDBRANCH   6   7
BRANCH   6  47
HETATM   47  C   UNK N   1      24.564  10.677   2.406  0.00  0.00     0.199 C 
BRANCH  47  48
HETATM   48  O   UNK N   1      24.135  11.477   1.344  0.00  0.00    -0.398 OA
HETATM   49  H   UNK N   1      23.318  11.510   0.823  0.00  0.00     0.209 HD
ENDBRANCH  47  48
ENDBRANCH   6  47
ENDBRANCH   3   6
ENDBRANCH   1   2
BRANCH   1  50
HETATM   50  C   UNK N   1      26.422  13.847   2.510  0.00  0.00     0.241 C 
HETATM   51  O   UNK N   1      25.640  13.840   1.573  0.00  0.00    -0.271 OA
HETATM   52  N   UNK N   1      27.751  13.943   2.225  0.00  0.00    -0.344 N 
HETATM   53  H   UNK N   1      28.003  13.996   1.274  0.00  0.00     0.163 HD
BRANCH  52  54
HETATM   54  C   UNK N   1      28.822  13.976   3.191  0.00  0.00     0.200 C 
BRANCH  54  55
HETATM   55  C   UNK N   1      29.074  15.356   3.726  0.00  0.00     0.243 C 
HETATM   56  O   UNK N   1      29.676  16.154   3.021  0.00  0.00    -0.271 OA
HETATM   57  N   UNK N   1      28.629  15.726   4.959  0.00  0.00    -0.346 N 
HETATM   58  H   UNK N   1      28.168  15.056   5.513  0.00  0.00     0.163 HD
BRANCH  57  59
HETATM   59  C   UNK N   1      28.804  17.067   5.494  0.00  0.00     0.177 C 
BRANCH  59  60
HETATM   60  C   UNK N   1      29.147  16.982   6.971  0.00  0.00     0.241 C 
HETATM   61  O   UNK N   1      28.280  17.158   7.813  0.00  0.00    -0.271 OA
HETATM   62  N   UNK N   1      30.403  16.653   7.370  0.00  0.00    -0.346 N 
HETATM   63  H   UNK N   1      30.565  16.456   8.321  0.00  0.00     0.163 HD
BRANCH  62  64
HETATM   64  C   UNK N   1      31.512  16.584   6.440  0.00  0.00     0.176 C 
BRANCH  64  65
HETATM   65  C   UNK N   1      32.062  15.188   6.209  0.00  0.00     0.243 C 
HETATM   66  O   UNK N   1      31.810  14.338   7.050  0.00  0.00    -0.271 OA
HETATM   67  N   UNK N   1      32.743  14.838   5.072  0.00  0.00    -0.337 N 
HETATM   68  C   UNK N   1      33.075  13.472   4.741  0.00  0.00     0.181 C 
HETATM   69  C   UNK N   1      33.087  15.785   4.051  0.00  0.00     0.127 C 
HETATM   70  C   UNK N   1      33.792  13.546   3.403  0.00  0.00     0.037 C 
HETATM   71  C   UNK N   1      33.594  14.963   2.882  0.00  0.00     0.022 C 
BRANCH  68  72
HETATM   72  C   UNK N   1      33.951  12.765   5.732  0.00  0.00     0.259 C 
HETATM   73  O   UNK N   1      35.168  12.870   5.670  0.00  0.00    -0.269 OA
HETATM   74  N   UNK N   1      33.372  11.950   6.649  0.00  0.00    -0.264 N 
HETATM   75  H   UNK N   1      32.391  11.947   6.729  0.00  0.00     0.190 HD
BRANCH  74  76
HETATM   76  N   UNK N   1      34.111  11.127   7.469  0.00  0.00    -0.249 N 
HETATM   77  C   UNK N   1      33.674  10.782   8.707  0.00  0.00     0.332 C 
HETATM   78  O   UNK N   1      32.606  11.204   9.129  0.00  0.00    -0.246 OA
HETATM   79  N   UNK N   1      34.431   9.990   9.488  0.00  0.00    -0.351 N 
HETATM   80  H   UNK N   1      34.496  10.164  10.454  0.00  0.00     0.160 HD
HETATM   81  H   UNK N   1      34.921   9.234   9.091  0.00  0.00     0.160 HD
HETATM   82  H   UNK N   1      34.976  10.781   7.151  0.00  0.00     0.192 HD
ENDBRANCH  74  76
ENDBRANCH  68  72
ENDBRANCH  64  65
BRANCH  64  83
HETATM   83  C   UNK N   1      32.624  17.573   6.829  0.00  0.00     0.036 C 
BRANCH  83  84
HETATM   84  C   UNK N   1      32.712  17.822   8.331  0.00  0.00     0.023 C 
BRANCH  84  85
HETATM   85  C   UNK N   1      33.988  17.236   8.914  0.00  0.00     0.138 C 
BRANCH  85  86
HETATM   86  N   UNK N   1      33.664  16.129   9.782  0.00  0.00    -0.227 N 
HETATM   87  C   UNK N   1      34.060  14.926   9.547  0.00  0.00     0.665 C 
HETATM   88  N   UNK N   1      34.840  14.628   8.404  0.00  0.00    -0.235 N 
HETATM   89  N   UNK N   1      33.699  13.889  10.434  0.00  0.00    -0.235 N 
HETATM   90  H   UNK N   1      35.273  15.043   7.624  0.00  0.00     0.174 HD
HETATM   91  H   UNK N   1      35.010  13.659   8.382  0.00  0.00     0.174 HD
HETATM   92  H   UNK N   1      34.212  13.270  11.002  0.00  0.00     0.174 HD
HETATM   93  H   UNK N   1      32.725  13.754  10.496  0.00  0.00     0.174 HD
ATOM     94  HN  UNK N   1      33.098  16.306  10.612  1.00  0.00     0.177 HD
ENDBRANCH  85  86
ENDBRANCH  84  85
ENDBRANCH  83  84
ENDBRANCH  64  83
ENDBRANCH  62  64
ENDBRANCH  59  60
BRANCH  59  95
HETATM   95  C   UNK N   1      27.603  17.955   5.126  0.00  0.00     0.038 C 
BRANCH  95  96
HETATM   96  C   UNK N   1      27.891  19.462   5.072  0.00  0.00    -0.020 C 
HETATM   97  C   UNK N   1      27.370  20.097   3.800  0.00  0.00     0.009 C 
HETATM   98  C   UNK N   1      27.413  20.230   6.296  0.00  0.00     0.009 C 
ENDBRANCH  95  96
ENDBRANCH  59  95
ENDBRANCH  57  59
ENDBRANCH  54  55
BRANCH  54  99
HETATM   99  C   UNK N   1      30.093  13.386   2.597  0.00  0.00     0.203 C 
BRANCH  99 100
HETATM  100  O   UNK N   1      29.773  12.504   1.547  0.00  0.00    -0.379 OA
BRANCH 100 101
HETATM  101  C   UNK N   1      30.759  11.504   1.415  0.00  0.00     0.050 C 
HETATM  102  C   UNK N   1      31.966  12.027   0.652  0.00  0.00     0.045 C 
HETATM  103  C   UNK N   1      31.196  10.904   2.750  0.00  0.00     0.045 C 
HETATM  104  C   UNK N   1      30.148  10.376   0.611  0.00  0.00     0.045 C 
ENDBRANCH 100 101
ENDBRANCH  99 100
ENDBRANCH  54  99
ENDBRANCH  52  54
ENDBRANCH   1  50
BRANCH   1 105
HETATM  105  C   UNK N   1      24.345  14.237   3.927  0.00  0.00     0.073 C 
BRANCH 105 106
HETATM  106  C   UNK N   1      24.111  15.706   4.105  0.00  0.00    -0.056 A 
HETATM  107  C   UNK N   1      24.700  16.620   3.221  0.00  0.00     0.010 A 
HETATM  108  C   UNK N   1      24.454  17.989   3.359  0.00  0.00     0.037 A 
HETATM  109  C   UNK N   1      23.612  18.447   4.376  0.00  0.00     0.065 A 
HETATM  110  C   UNK N   1      23.015  17.536   5.254  0.00  0.00     0.037 A 
HETATM  111  C   UNK N   1      23.261  16.166   5.116  0.00  0.00     0.010 A 
BRANCH 109 112
HETATM  112  O   UNK N   1      23.376  19.763   4.511  0.00  0.00    -0.361 OA
HETATM  113  H   UNK N   1      23.937  20.488   4.319  0.00  0.00     0.217 HD
ENDBRANCH 109 112
ENDBRANCH 105 106
ENDBRANCH   1 105
TORSDOF 35
ENDMDL
MODEL 4
REMARK VINA RESULT:      -7.5      2.711      7.255
REMARK WARNING: 32 MAX_TORS EXCEEDED!!!
REMARK  35 active torsions:
REMARK  status: ('A' for Active; 'I' for Inactive)
REMARK    1  A    between atoms: O_4  and  C_53 
REMARK    2  A    between atoms: O_4  and  C_56 
REMARK    3  A    between atoms: O_13  and  C_82 
REMARK    4  A    between atoms: O_14  and  C_93 
REMARK       I    between atoms: N_15  and  C_39 
REMARK    5  A    between atoms: C_40  and  N_16 
REMARK       I    between atoms: N_16  and  C_45 
REMARK    6  A    between atoms: N_17  and  N_19 
REMARK       I    between atoms: N_17  and  C_41 
REMARK    7  A    between atoms: C_44  and  N_18 
REMARK       I    between atoms: N_18  and  C_51 
REMARK       I    between atoms: N_19  and  C_54 
REMARK    8  A    between atoms: N_20  and  C_48 
REMARK    9  A    between atoms: C_52  and  N_22 
REMARK       I    between atoms: N_22  and  C_58 
REMARK   10  A    between atoms: C_61  and  N_24 
REMARK       I    between atoms: N_24  and  C_66 
REMARK       I    between atoms: N_25  and  C_54 
REMARK   11  A    between atoms: C_57  and  N_26 
REMARK       I    between atoms: N_26  and  C_76 
REMARK   12  A    between atoms: C_62  and  N_27 
REMARK       I    between atoms: N_27  and  C_70 
REMARK   13  A    between atoms: C_69  and  N_28 
REMARK       I    between atoms: N_28  and  C_75 
REMARK       I    between atoms: N_29  and  C_59 
REMARK       I    between atoms: N_30  and  C_59 
REMARK   14  A    between atoms: C_35  and  C_41 
REMARK   15  A    between atoms: C_39  and  C_40 
REMARK   16  A    between atoms: C_40  and  C_42 
REMARK   17  A    between atoms: C_42  and  C_43 
REMARK   18  A    between atoms: C_43  and  C_48 
REMARK   19  A    between atoms: C_44  and  C_45 
REMARK   20  A    between atoms: C_44  and  C_46 
REMARK   21  A    between atoms: C_46  and  C_47 
REMARK   22  A    between atoms: C_51  and  C_52 
REMARK   23  A    between atoms: C_52  and  C_53 
REMARK   24  A    between atoms: C_55  and  C_66 
REMARK   25  A    between atoms: C_57  and  C_58 
REMARK   26  A    between atoms: C_57  and  C_64 
REMARK   27  A    between atoms: C_61  and  C_68 
REMARK   28  A    between atoms: C_61  and  C_70 
REMARK   29  A    between atoms: C_62  and  C_65 
REMARK   30  A    between atoms: C_62  and  C_75 
REMARK   31  A    between atoms: C_64  and  C_77 
REMARK   32  A    between atoms: C_65  and  C_74 
REMARK   33  A    between atoms: C_68  and  C_79 
REMARK   34  A    between atoms: C_69  and  C_76 
REMARK   35  A    between atoms: C_69  and  C_82 
ROOT
HETATM    1  C   UNK N   1      25.737  16.385   3.601  0.00  0.00     0.180 C 
ENDROOT
BRANCH   1   2
HETATM    2  N   UNK N   1      25.822  17.721   3.046  0.00  0.00    -0.346 N 
HETATM    3  C   UNK N   1      24.937  18.744   3.189  0.00  0.00     0.243 C 
HETATM    4  O   UNK N   1      25.237  19.830   2.717  0.00  0.00    -0.271 OA
HETATM    5  H   UNK N   1      26.617  17.912   2.498  0.00  0.00     0.163 HD
BRANCH   3   6
HETATM    6  C   UNK N   1      23.590  18.626   3.873  0.00  0.00     0.200 C 
BRANCH   6   7
HETATM    7  N   UNK N   1      22.609  19.631   3.511  0.00  0.00    -0.344 N 
HETATM    8  C   UNK N   1      21.305  19.300   3.343  0.00  0.00     0.241 C 
HETATM    9  O   UNK N   1      20.482  20.170   3.108  0.00  0.00    -0.271 OA
HETATM   10  H   UNK N   1      22.894  20.566   3.387  0.00  0.00     0.163 HD
BRANCH   8  11
HETATM   11  C   UNK N   1      20.895  17.854   3.434  0.00  0.00     0.181 C 
BRANCH  11  12
HETATM   12  N   UNK N   1      20.782  17.484   4.826  0.00  0.00    -0.346 N 
HETATM   13  C   UNK N   1      19.819  16.673   5.319  0.00  0.00     0.241 C 
HETATM   14  O   UNK N   1      18.840  16.379   4.646  0.00  0.00    -0.271 OA
HETATM   15  H   UNK N   1      21.448  17.846   5.455  0.00  0.00     0.163 HD
BRANCH  13  16
HETATM   16  C   UNK N   1      20.045  16.028   6.654  0.00  0.00     0.182 C 
BRANCH  16  17
HETATM   17  N   UNK N   1      20.838  14.805   6.677  0.00  0.00    -0.346 N 
HETATM   18  C   UNK N   1      20.848  13.839   7.634  0.00  0.00     0.241 C 
HETATM   19  O   UNK N   1      20.100  13.895   8.600  0.00  0.00    -0.271 OA
HETATM   20  H   UNK N   1      21.436  14.661   5.909  0.00  0.00     0.163 HD
BRANCH  18  21
HETATM   21  C   UNK N   1      21.862  12.733   7.527  0.00  0.00     0.177 A 
HETATM   22  N   UNK N   1      23.089  13.091   8.169  0.00  0.00    -0.348 N 
HETATM   23  C   UNK N   1      24.129  12.974   7.346  0.00  0.00     0.218 A 
HETATM   24  H   UNK N   1      23.156  13.388   9.106  0.00  0.00     0.163 HD
HETATM   25  O   UNK N   1      25.270  13.214   7.704  0.00  0.00    -0.274 OA
HETATM   26  C   UNK N   1      23.783  12.523   5.984  0.00  0.00     0.105 A 
HETATM   27  C   UNK N   1      22.254  12.401   6.070  0.00  0.00     0.044 A 
ENDBRANCH  18  21
ENDBRANCH  16  17
BRANCH  16  28
HETATM   28  C   UNK N   1      20.571  17.093   7.616  0.00  0.00     0.093 C 
BRANCH  28  29
HETATM   29  C   UNK N   1      19.582  17.527   8.640  0.00  0.00     0.028 A 
HETATM   30  N   UNK N   1      18.432  16.884   8.895  0.00  0.00    -0.354 N 
HETATM   31  C   UNK N   1      17.811  17.639   9.822  0.00  0.00     0.180 A 
HETATM   32  H   UNK N   1      18.112  16.045   8.492  0.00  0.00     0.166 HD
HETATM   33  N   UNK N   1      18.534  18.736  10.140  0.00  0.00    -0.360 N 
HETATM   34  C   UNK N   1      19.651  18.672   9.392  0.00  0.00     0.114 A 
ATOM     35  HN  UNK N   1      18.283  19.462  10.811  1.00  0.00     0.166 HD
ENDBRANCH  28  29
ENDBRANCH  16  28
ENDBRANCH  13  16
ENDBRANCH  11  12
BRANCH  11  36
HETATM   36  C   UNK N   1      21.674  16.879   2.565  0.00  0.00     0.075 C 
BRANCH  36  37
HETATM   37  C   UNK N   1      20.684  16.211   1.668  0.00  0.00    -0.028 A 
HETATM   38  C   UNK N   1      20.278  14.906   1.732  0.00  0.00    -0.002 A 
HETATM   39  C   UNK N   1      19.325  14.741   0.769  0.00  0.00     0.042 A 
HETATM   40  C   UNK N   1      20.668  13.867   2.572  0.00  0.00     0.014 A 
HETATM   41  N   UNK N   1      19.113  15.886   0.093  0.00  0.00    -0.365 N 
HETATM   42  C   UNK N   1      18.684  13.522   0.571  0.00  0.00     0.030 A 
HETATM   43  C   UNK N   1      19.951  16.804   0.641  0.00  0.00     0.096 A 
HETATM   44  H   UNK N   1      18.481  16.028  -0.647  0.00  0.00     0.165 HD
HETATM   45  C   UNK N   1      19.056  12.446   1.400  0.00  0.00     0.002 A 
HETATM   46  C   UNK N   1      20.046  12.618   2.396  0.00  0.00     0.001 A 
ENDBRANCH  36  37
ENDBRANCH  11  36
ENDBRANCH   8  11
ENDBRANCH   6   7
BRANCH   6  47
HETATM   47  C   UNK N   1      23.792  18.558   5.393  0.00  0.00     0.199 C 
BRANCH  47  48
HETATM   48  O   UNK N   1      25.052  19.017   5.787  0.00  0.00    -0.398 OA
HETATM   49  H   UNK N   1      25.895  18.575   5.970  0.00  0.00     0.209 HD
ENDBRANCH  47  48
ENDBRANCH   6  47
ENDBRANCH   3   6
ENDBRANCH   1   2
BRANCH   1  50
HETATM   50  C   UNK N   1      25.932  16.208   5.111  0.00  0.00     0.241 C 
HETATM   51  O   UNK N   1      24.960  15.856   5.758  0.00  0.00    -0.271 OA
HETATM   52  N   UNK N   1      27.114  16.355   5.771  0.00  0.00    -0.344 N 
HETATM   53  H   UNK N   1      27.113  16.172   6.739  0.00  0.00     0.163 HD
BRANCH  52  54
HETATM   54  C   UNK N   1      28.369  16.752   5.180  0.00  0.00     0.200 C 
BRANCH  54  55
HETATM   55  C   UNK N   1      29.295  15.591   4.957  0.00  0.00     0.243 C 
HETATM   56  O   UNK N   1      29.060  14.538   5.533  0.00  0.00    -0.271 OA
HETATM   57  N   UNK N   1      30.363  15.693   4.118  0.00  0.00    -0.346 N 
HETATM   58  H   UNK N   1      30.540  16.560   3.686  0.00  0.00     0.163 HD
BRANCH  57  59
HETATM   59  C   UNK N   1      31.253  14.580   3.830  0.00  0.00     0.177 C 
BRANCH  59  60
HETATM   60  C   UNK N   1      32.645  15.109   3.529  0.00  0.00     0.241 C 
HETATM   61  O   UNK N   1      32.867  15.689   2.478  0.00  0.00    -0.271 OA
HETATM   62  N   UNK N   1      33.640  14.996   4.447  0.00  0.00    -0.346 N 
HETATM   63  H   UNK N   1      34.485  15.476   4.295  0.00  0.00     0.163 HD
BRANCH  62  64
HETATM   64  C   UNK N   1      33.495  14.189   5.643  0.00  0.00     0.176 C 
BRANCH  64  65
HETATM   65  C   UNK N   1      34.304  14.670   6.835  0.00  0.00     0.243 C 
HETATM   66  O   UNK N   1      35.256  13.986   7.181  0.00  0.00    -0.271 OA
HETATM   67  N   UNK N   1      34.058  15.860   7.467  0.00  0.00    -0.337 N 
HETATM   68  C   UNK N   1      34.948  16.431   8.450  0.00  0.00     0.181 C 
HETATM   69  C   UNK N   1      32.951  16.706   7.124  0.00  0.00     0.127 C 
HETATM   70  C   UNK N   1      34.307  17.746   8.858  0.00  0.00     0.037 C 
HETATM   71  C   UNK N   1      33.184  18.008   7.864  0.00  0.00     0.022 C 
BRANCH  68  72
HETATM   72  C   UNK N   1      35.176  15.592   9.672  0.00  0.00     0.259 C 
HETATM   73  O   UNK N   1      34.281  15.431  10.490  0.00  0.00    -0.269 OA
HETATM   74  N   UNK N   1      36.413  15.080   9.890  0.00  0.00    -0.264 N 
HETATM   75  H   UNK N   1      37.090  15.156   9.180  0.00  0.00     0.190 HD
BRANCH  74  76
HETATM   76  N   UNK N   1      36.754  14.460  11.072  0.00  0.00    -0.249 N 
HETATM   77  C   UNK N   1      37.440  13.289  11.086  0.00  0.00     0.332 C 
HETATM   78  O   UNK N   1      37.771  12.750  10.039  0.00  0.00    -0.246 OA
HETATM   79  N   UNK N   1      37.740  12.703  12.259  0.00  0.00    -0.351 N 
HETATM   80  H   UNK N   1      37.685  11.724  12.352  0.00  0.00     0.160 HD
HETATM   81  H   UNK N   1      38.015  13.254  13.026  0.00  0.00     0.160 HD
HETATM   82  H   UNK N   1      36.491  14.874  11.926  0.00  0.00     0.192 HD
ENDBRANCH  74  76
ENDBRANCH  68  72
ENDBRANCH  64  65
BRANCH  64  83
HETATM   83  C   UNK N   1      33.756  12.704   5.344  0.00  0.00     0.036 C 
BRANCH  83  84
HETATM   84  C   UNK N   1      32.769  11.767   6.033  0.00  0.00     0.023 C 
BRANCH  84  85
HETATM   85  C   UNK N   1      33.483  10.803   6.966  0.00  0.00     0.138 C 
BRANCH  85  86
HETATM   86  N   UNK N   1      34.036  11.527   8.086  0.00  0.00    -0.227 N 
HETATM   87  C   UNK N   1      33.470  11.551   9.242  0.00  0.00     0.665 C 
HETATM   88  N   UNK N   1      32.254  10.862   9.471  0.00  0.00    -0.235 N 
HETATM   89  N   UNK N   1      34.060  12.288  10.291  0.00  0.00    -0.235 N 
HETATM   90  H   UNK N   1      31.595  10.275   9.036  0.00  0.00     0.174 HD
HETATM   91  H   UNK N   1      31.965  11.031  10.396  0.00  0.00     0.174 HD
HETATM   92  H   UNK N   1      34.418  12.045  11.176  0.00  0.00     0.174 HD
HETATM   93  H   UNK N   1      34.129  13.251  10.098  0.00  0.00     0.174 HD
ATOM     94  HN  UNK N   1      34.908  12.040   7.956  1.00  0.00     0.177 HD
ENDBRANCH  85  86
ENDBRANCH  84  85
ENDBRANCH  83  84
ENDBRANCH  64  83
ENDBRANCH  62  64
ENDBRANCH  59  60
BRANCH  59  95
HETATM   95  C   UNK N   1      30.634  13.655   2.769  0.00  0.00     0.038 C 
BRANCH  95  96
HETATM   96  C   UNK N   1      30.788  12.151   3.037  0.00  0.00    -0.020 C 
HETATM   97  C   UNK N   1      29.617  11.587   3.815  0.00  0.00     0.009 C 
HETATM   98  C   UNK N   1      31.059  11.322   1.789  0.00  0.00     0.009 C 
ENDBRANCH  95  96
ENDBRANCH  59  95
ENDBRANCH  57  59
ENDBRANCH  54  55
BRANCH  54  99
HETATM   99  C   UNK N   1      29.041  17.824   6.027  0.00  0.00     0.203 C 
BRANCH  99 100
HETATM  100  O   UNK N   1      29.413  17.292   7.276  0.00  0.00    -0.379 OA
BRANCH 100 101
HETATM  101  C   UNK N   1      28.916  18.088   8.329  0.00  0.00     0.050 C 
HETATM  102  C   UNK N   1      27.931  17.306   9.184  0.00  0.00     0.045 C 
HETATM  103  C   UNK N   1      30.014  18.691   9.202  0.00  0.00     0.045 C 
HETATM  104  C   UNK N   1      28.174  19.248   7.700  0.00  0.00     0.045 C 
ENDBRANCH 100 101
ENDBRANCH  99 100
ENDBRANCH  54  99
ENDBRANCH  52  54
ENDBRANCH   1  50
BRANCH   1 105
HETATM  105  C   UNK N   1      24.470  15.677   3.097  0.00  0.00     0.073 C 
BRANCH 105 106
HETATM  106  C   UNK N   1      24.714  14.378   2.391  0.00  0.00    -0.056 A 
HETATM  107  C   UNK N   1      25.711  13.508   2.851  0.00  0.00     0.010 A 
HETATM  108  C   UNK N   1      25.916  12.278   2.220  0.00  0.00     0.037 A 
HETATM  109  C   UNK N   1      25.119  11.911   1.132  0.00  0.00     0.065 A 
HETATM  110  C   UNK N   1      24.117  12.773   0.676  0.00  0.00     0.037 A 
HETATM  111  C   UNK N   1      23.911  14.005   1.308  0.00  0.00     0.010 A 
BRANCH 109 112
HETATM  112  O   UNK N   1      25.317  10.729   0.524  0.00  0.00    -0.361 OA
HETATM  113  H   UNK N   1      25.802   9.984   0.820  0.00  0.00     0.217 HD
ENDBRANCH 109 112
ENDBRANCH 105 106
ENDBRANCH   1 105
TORSDOF 35
ENDMDL
MODEL 5
REMARK VINA RESULT:      -7.4      2.966     12.331
REMARK WARNING: 32 MAX_TORS EXCEEDED!!!
REMARK  35 active torsions:
REMARK  status: ('A' for Active; 'I' for Inactive)
REMARK    1  A    between atoms: O_4  and  C_53 
REMARK    2  A    between atoms: O_4  and  C_56 
REMARK    3  A    between atoms: O_13  and  C_82 
REMARK    4  A    between atoms: O_14  and  C_93 
REMARK       I    between atoms: N_15  and  C_39 
REMARK    5  A    between atoms: C_40  and  N_16 
REMARK       I    between atoms: N_16  and  C_45 
REMARK    6  A    between atoms: N_17  and  N_19 
REMARK       I    between atoms: N_17  and  C_41 
REMARK    7  A    between atoms: C_44  and  N_18 
REMARK       I    between atoms: N_18  and  C_51 
REMARK       I    between atoms: N_19  and  C_54 
REMARK    8  A    between atoms: N_20  and  C_48 
REMARK    9  A    between atoms: C_52  and  N_22 
REMARK       I    between atoms: N_22  and  C_58 
REMARK   10  A    between atoms: C_61  and  N_24 
REMARK       I    between atoms: N_24  and  C_66 
REMARK       I    between atoms: N_25  and  C_54 
REMARK   11  A    between atoms: C_57  and  N_26 
REMARK       I    between atoms: N_26  and  C_76 
REMARK   12  A    between atoms: C_62  and  N_27 
REMARK       I    between atoms: N_27  and  C_70 
REMARK   13  A    between atoms: C_69  and  N_28 
REMARK       I    between atoms: N_28  and  C_75 
REMARK       I    between atoms: N_29  and  C_59 
REMARK       I    between atoms: N_30  and  C_59 
REMARK   14  A    between atoms: C_35  and  C_41 
REMARK   15  A    between atoms: C_39  and  C_40 
REMARK   16  A    between atoms: C_40  and  C_42 
REMARK   17  A    between atoms: C_42  and  C_43 
REMARK   18  A    between atoms: C_43  and  C_48 
REMARK   19  A    between atoms: C_44  and  C_45 
REMARK   20  A    between atoms: C_44  and  C_46 
REMARK   21  A    between atoms: C_46  and  C_47 
REMARK   22  A    between atoms: C_51  and  C_52 
REMARK   23  A    between atoms: C_52  and  C_53 
REMARK   24  A    between atoms: C_55  and  C_66 
REMARK   25  A    between atoms: C_57  and  C_58 
REMARK   26  A    between atoms: C_57  and  C_64 
REMARK   27  A    between atoms: C_61  and  C_68 
REMARK   28  A    between atoms: C_61  and  C_70 
REMARK   29  A    between atoms: C_62  and  C_65 
REMARK   30  A    between atoms: C_62  and  C_75 
REMARK   31  A    between atoms: C_64  and  C_77 
REMARK   32  A    between atoms: C_65  and  C_74 
REMARK   33  A    between atoms: C_68  and  C_79 
REMARK   34  A    between atoms: C_69  and  C_76 
REMARK   35  A    between atoms: C_69  and  C_82 
ROOT
HETATM    1  C   UNK N   1      29.828  15.653   4.650  0.00  0.00     0.180 C 
ENDROOT
BRANCH   1   2
HETATM    2  N   UNK N   1      29.556  14.269   4.990  0.00  0.00    -0.346 N 
HETATM    3  C   UNK N   1      30.099  13.151   4.440  0.00  0.00     0.243 C 
HETATM    4  O   UNK N   1      29.807  12.072   4.933  0.00  0.00    -0.271 OA
HETATM    5  H   UNK N   1      28.899  14.122   5.708  0.00  0.00     0.163 HD
BRANCH   3   6
HETATM    6  C   UNK N   1      31.023  13.145   3.239  0.00  0.00     0.200 C 
BRANCH   6   7
HETATM    7  N   UNK N   1      31.980  14.232   3.175  0.00  0.00    -0.344 N 
HETATM    8  C   UNK N   1      33.142  14.176   3.872  0.00  0.00     0.241 C 
HETATM    9  O   UNK N   1      33.967  15.068   3.751  0.00  0.00    -0.271 OA
HETATM   10  H   UNK N   1      31.786  15.020   2.617  0.00  0.00     0.163 HD
BRANCH   8  11
HETATM   11  C   UNK N   1      33.387  13.018   4.802  0.00  0.00     0.181 C 
BRANCH  11  12
HETATM   12  N   UNK N   1      33.802  13.528   6.089  0.00  0.00    -0.346 N 
HETATM   13  C   UNK N   1      32.958  13.764   7.119  0.00  0.00     0.241 C 
HETATM   14  O   UNK N   1      31.746  13.771   6.948  0.00  0.00    -0.271 OA
HETATM   15  H   UNK N   1      34.760  13.716   6.224  0.00  0.00     0.163 HD
BRANCH  13  16
HETATM   16  C   UNK N   1      33.532  13.874   8.500  0.00  0.00     0.182 C 
BRANCH  16  17
HETATM   17  N   UNK N   1      33.537  12.667   9.317  0.00  0.00    -0.346 N 
HETATM   18  C   UNK N   1      34.110  11.469   9.026  0.00  0.00     0.241 C 
HETATM   19  O   UNK N   1      34.761  11.309   8.003  0.00  0.00    -0.271 OA
HETATM   20  H   UNK N   1      33.071  12.727  10.182  0.00  0.00     0.163 HD
BRANCH  18  21
HETATM   21  C   UNK N   1      33.860  10.310   9.952  0.00  0.00     0.177 A 
HETATM   22  N   UNK N   1      33.361  10.757  11.217  0.00  0.00    -0.348 N 
HETATM   23  C   UNK N   1      34.103  10.305  12.226  0.00  0.00     0.218 A 
HETATM   24  H   UNK N   1      32.567  11.328  11.327  0.00  0.00     0.163 HD
HETATM   25  O   UNK N   1      33.837  10.557  13.390  0.00  0.00    -0.274 OA
HETATM   26  C   UNK N   1      35.253   9.474  11.817  0.00  0.00     0.105 A 
HETATM   27  C   UNK N   1      35.135   9.506  10.286  0.00  0.00     0.044 A 
ENDBRANCH  18  21
ENDBRANCH  16  17
BRANCH  16  28
HETATM   28  C   UNK N   1      34.911  14.524   8.392  0.00  0.00     0.093 C 
BRANCH  28  29
HETATM   29  C   UNK N   1      35.383  15.156   9.654  0.00  0.00     0.028 A 
HETATM   30  N   UNK N   1      34.726  16.132  10.299  0.00  0.00    -0.354 N 
HETATM   31  C   UNK N   1      35.523  16.462  11.334  0.00  0.00     0.180 A 
HETATM   32  H   UNK N   1      33.852  16.522  10.066  0.00  0.00     0.166 HD
HETATM   33  N   UNK N   1      36.659  15.730  11.344  0.00  0.00    -0.360 N 
HETATM   34  C   UNK N   1      36.578  14.907  10.282  0.00  0.00     0.114 A 
ATOM     35  HN  UNK N   1      37.421  15.789  12.019  1.00  0.00     0.166 HD
ENDBRANCH  28  29
ENDBRANCH  16  28
ENDBRANCH  13  16
ENDBRANCH  11  12
BRANCH  11  36
HETATM   36  C   UNK N   1      34.235  11.882   4.251  0.00  0.00     0.075 C 
BRANCH  36  37
HETATM   37  C   UNK N   1      35.488  12.495   3.717  0.00  0.00    -0.028 A 
HETATM   38  C   UNK N   1      36.623  12.777   4.428  0.00  0.00    -0.002 A 
HETATM   39  C   UNK N   1      37.534  13.269   3.538  0.00  0.00     0.042 A 
HETATM   40  C   UNK N   1      36.918  12.622   5.780  0.00  0.00     0.014 A 
HETATM   41  N   UNK N   1      37.023  13.316   2.295  0.00  0.00    -0.365 N 
HETATM   42  C   UNK N   1      38.815  13.645   3.931  0.00  0.00     0.030 A 
HETATM   43  C   UNK N   1      35.755  12.839   2.393  0.00  0.00     0.096 A 
HETATM   44  H   UNK N   1      37.475  13.631   1.479  0.00  0.00     0.165 HD
HETATM   45  C   UNK N   1      39.148  13.506   5.292  0.00  0.00     0.002 A 
HETATM   46  C   UNK N   1      38.202  12.999   6.214  0.00  0.00     0.001 A 
ENDBRANCH  36  37
ENDBRANCH  11  36
ENDBRANCH   8  11
ENDBRANCH   6   7
BRANCH   6  47
HETATM   47  C   UNK N   1      30.190  13.051   1.954  0.00  0.00     0.199 C 
BRANCH  47  48
HETATM   48  O   UNK N   1      28.816  13.011   2.207  0.00  0.00    -0.398 OA
HETATM   49  H   UNK N   1      28.289  12.970   3.020  0.00  0.00     0.209 HD
ENDBRANCH  47  48
ENDBRANCH   6  47
ENDBRANCH   3   6
ENDBRANCH   1   2
BRANCH   1  50
HETATM   50  C   UNK N   1      29.102  16.263   3.446  0.00  0.00     0.241 C 
HETATM   51  O   UNK N   1      29.784  16.557   2.478  0.00  0.00    -0.271 OA
HETATM   52  N   UNK N   1      27.756  16.446   3.352  0.00  0.00    -0.344 N 
HETATM   53  H   UNK N   1      27.411  16.812   2.505  0.00  0.00     0.163 HD
BRANCH  52  54
HETATM   54  C   UNK N   1      26.789  16.150   4.381  0.00  0.00     0.200 C 
BRANCH  54  55
HETATM   55  C   UNK N   1      25.862  15.032   3.998  0.00  0.00     0.243 C 
HETATM   56  O   UNK N   1      24.657  15.214   4.097  0.00  0.00    -0.271 OA
HETATM   57  N   UNK N   1      26.343  13.846   3.531  0.00  0.00    -0.346 N 
HETATM   58  H   UNK N   1      27.319  13.721   3.484  0.00  0.00     0.163 HD
BRANCH  57  59
HETATM   59  C   UNK N   1      25.482  12.758   3.098  0.00  0.00     0.177 C 
BRANCH  59  60
HETATM   60  C   UNK N   1      25.996  11.448   3.669  0.00  0.00     0.241 C 
HETATM   61  O   UNK N   1      27.129  11.071   3.416  0.00  0.00    -0.271 OA
HETATM   62  N   UNK N   1      25.225  10.712   4.512  0.00  0.00    -0.346 N 
HETATM   63  H   UNK N   1      25.630   9.952   4.987  0.00  0.00     0.163 HD
BRANCH  62  64
HETATM   64  C   UNK N   1      23.825  11.013   4.733  0.00  0.00     0.176 C 
BRANCH  64  65
HETATM   65  C   UNK N   1      23.546  11.892   5.940  0.00  0.00     0.243 C 
HETATM   66  O   UNK N   1      24.198  11.680   6.952  0.00  0.00    -0.271 OA
HETATM   67  N   UNK N   1      22.670  12.945   5.904  0.00  0.00    -0.337 N 
HETATM   68  C   UNK N   1      22.561  13.917   6.966  0.00  0.00     0.181 C 
HETATM   69  C   UNK N   1      21.862  13.243   4.756  0.00  0.00     0.127 C 
HETATM   70  C   UNK N   1      21.505  14.904   6.500  0.00  0.00     0.037 C 
HETATM   71  C   UNK N   1      21.241  14.598   5.032  0.00  0.00     0.022 C 
BRANCH  68  72
HETATM   72  C   UNK N   1      22.166  13.366   8.303  0.00  0.00     0.259 C 
HETATM   73  O   UNK N   1      21.002  13.070   8.534  0.00  0.00    -0.269 OA
HETATM   74  N   UNK N   1      23.109  13.274   9.274  0.00  0.00    -0.264 N 
HETATM   75  H   UNK N   1      24.050  13.441   9.040  0.00  0.00     0.190 HD
BRANCH  74  76
HETATM   76  N   UNK N   1      22.793  12.955  10.577  0.00  0.00    -0.249 N 
HETATM   77  C   UNK N   1      23.690  12.352  11.397  0.00  0.00     0.332 C 
HETATM   78  O   UNK N   1      24.810  12.071  10.993  0.00  0.00    -0.246 OA
HETATM   79  N   UNK N   1      23.340  12.040  12.658  0.00  0.00    -0.351 N 
HETATM   80  H   UNK N   1      23.639  11.193  13.059  0.00  0.00     0.160 HD
HETATM   81  H   UNK N   1      22.784  12.661  13.180  0.00  0.00     0.160 HD
HETATM   82  H   UNK N   1      21.894  13.168  10.919  0.00  0.00     0.192 HD
ENDBRANCH  74  76
ENDBRANCH  68  72
ENDBRANCH  64  65
BRANCH  64  83
HETATM   83  C   UNK N   1      22.980   9.729   4.762  0.00  0.00     0.036 C 
BRANCH  83  84
HETATM   84  C   UNK N   1      23.788   8.482   5.110  0.00  0.00     0.023 C 
BRANCH  84  85
HETATM   85  C   UNK N   1      23.745   8.196   6.602  0.00  0.00     0.138 C 
BRANCH  85  86
HETATM   86  N   UNK N   1      25.035   7.719   7.044  0.00  0.00    -0.227 N 
HETATM   87  C   UNK N   1      25.173   6.651   7.749  0.00  0.00     0.665 C 
HETATM   88  N   UNK N   1      24.047   5.884   8.136  0.00  0.00    -0.235 N 
HETATM   89  N   UNK N   1      26.463   6.247   8.156  0.00  0.00    -0.235 N 
HETATM   90  H   UNK N   1      23.069   5.833   8.045  0.00  0.00     0.174 HD
HETATM   91  H   UNK N   1      24.353   5.135   8.696  0.00  0.00     0.174 HD
HETATM   92  H   UNK N   1      27.009   5.446   7.988  0.00  0.00     0.174 HD
HETATM   93  H   UNK N   1      26.913   6.908   8.730  0.00  0.00     0.174 HD
ATOM     94  HN  UNK N   1      25.867   8.250   6.788  1.00  0.00     0.177 HD
ENDBRANCH  85  86
ENDBRANCH  84  85
ENDBRANCH  83  84
ENDBRANCH  64  83
ENDBRANCH  62  64
ENDBRANCH  59  60
BRANCH  59  95
HETATM   95  C   UNK N   1      25.282  12.803   1.574  0.00  0.00     0.038 C 
BRANCH  95  96
HETATM   96  C   UNK N   1      24.024  12.091   1.055  0.00  0.00    -0.020 C 
HETATM   97  C   UNK N   1      23.244  12.950   0.082  0.00  0.00     0.009 C 
HETATM   98  C   UNK N   1      24.289  10.711   0.469  0.00  0.00     0.009 C 
ENDBRANCH  95  96
ENDBRANCH  59  95
ENDBRANCH  57  59
ENDBRANCH  54  55
BRANCH  54  99
HETATM   99  C   UNK N   1      26.004  17.401   4.749  0.00  0.00     0.203 C 
BRANCH  99 100
HETATM  100  O   UNK N   1      26.775  18.228   5.588  0.00  0.00    -0.379 OA
BRANCH 100 101
HETATM  101  C   UNK N   1      26.794  19.554   5.104  0.00  0.00     0.050 C 
HETATM  102  C   UNK N   1      25.802  19.732   3.966  0.00  0.00     0.045 C 
HETATM  103  C   UNK N   1      26.546  20.598   6.192  0.00  0.00     0.045 C 
HETATM  104  C   UNK N   1      28.183  19.812   4.563  0.00  0.00     0.045 C 
ENDBRANCH 100 101
ENDBRANCH  99 100
ENDBRANCH  54  99
ENDBRANCH  52  54
ENDBRANCH   1  50
BRANCH   1 105
HETATM  105  C   UNK N   1      29.721  16.540   5.899  0.00  0.00     0.073 C 
BRANCH 105 106
HETATM  106  C   UNK N   1      31.029  17.051   6.422  0.00  0.00    -0.056 A 
HETATM  107  C   UNK N   1      31.164  17.362   7.782  0.00  0.00     0.010 A 
HETATM  108  C   UNK N   1      32.392  17.802   8.283  0.00  0.00     0.037 A 
HETATM  109  C   UNK N   1      33.491  17.924   7.428  0.00  0.00     0.065 A 
HETATM  110  C   UNK N   1      33.361  17.606   6.072  0.00  0.00     0.037 A 
HETATM  111  C   UNK N   1      32.132  17.165   5.570  0.00  0.00     0.010 A 
BRANCH 109 112
HETATM  112  O   UNK N   1      34.671  18.349   7.909  0.00  0.00    -0.361 OA
HETATM  113  H   UNK N   1      35.292  18.934   7.523  0.00  0.00     0.217 HD
ENDBRANCH 109 112
ENDBRANCH 105 106
ENDBRANCH   1 105
TORSDOF 35
ENDMDL
MODEL 6
REMARK VINA RESULT:      -7.4      3.043     12.318
REMARK WARNING: 32 MAX_TORS EXCEEDED!!!
REMARK  35 active torsions:
REMARK  status: ('A' for Active; 'I' for Inactive)
REMARK    1  A    between atoms: O_4  and  C_53 
REMARK    2  A    between atoms: O_4  and  C_56 
REMARK    3  A    between atoms: O_13  and  C_82 
REMARK    4  A    between atoms: O_14  and  C_93 
REMARK       I    between atoms: N_15  and  C_39 
REMARK    5  A    between atoms: C_40  and  N_16 
REMARK       I    between atoms: N_16  and  C_45 
REMARK    6  A    between atoms: N_17  and  N_19 
REMARK       I    between atoms: N_17  and  C_41 
REMARK    7  A    between atoms: C_44  and  N_18 
REMARK       I    between atoms: N_18  and  C_51 
REMARK       I    between atoms: N_19  and  C_54 
REMARK    8  A    between atoms: N_20  and  C_48 
REMARK    9  A    between atoms: C_52  and  N_22 
REMARK       I    between atoms: N_22  and  C_58 
REMARK   10  A    between atoms: C_61  and  N_24 
REMARK       I    between atoms: N_24  and  C_66 
REMARK       I    between atoms: N_25  and  C_54 
REMARK   11  A    between atoms: C_57  and  N_26 
REMARK       I    between atoms: N_26  and  C_76 
REMARK   12  A    between atoms: C_62  and  N_27 
REMARK       I    between atoms: N_27  and  C_70 
REMARK   13  A    between atoms: C_69  and  N_28 
REMARK       I    between atoms: N_28  and  C_75 
REMARK       I    between atoms: N_29  and  C_59 
REMARK       I    between atoms: N_30  and  C_59 
REMARK   14  A    between atoms: C_35  and  C_41 
REMARK   15  A    between atoms: C_39  and  C_40 
REMARK   16  A    between atoms: C_40  and  C_42 
REMARK   17  A    between atoms: C_42  and  C_43 
REMARK   18  A    between atoms: C_43  and  C_48 
REMARK   19  A    between atoms: C_44  and  C_45 
REMARK   20  A    between atoms: C_44  and  C_46 
REMARK   21  A    between atoms: C_46  and  C_47 
REMARK   22  A    between atoms: C_51  and  C_52 
REMARK   23  A    between atoms: C_52  and  C_53 
REMARK   24  A    between atoms: C_55  and  C_66 
REMARK   25  A    between atoms: C_57  and  C_58 
REMARK   26  A    between atoms: C_57  and  C_64 
REMARK   27  A    between atoms: C_61  and  C_68 
REMARK   28  A    between atoms: C_61  and  C_70 
REMARK   29  A    between atoms: C_62  and  C_65 
REMARK   30  A    between atoms: C_62  and  C_75 
REMARK   31  A    between atoms: C_64  and  C_77 
REMARK   32  A    between atoms: C_65  and  C_74 
REMARK   33  A    between atoms: C_68  and  C_79 
REMARK   34  A    between atoms: C_69  and  C_76 
REMARK   35  A    between atoms: C_69  and  C_82 
ROOT
HETATM    1  C   UNK N   1      29.765  15.656   4.535  0.00  0.00     0.180 C 
ENDROOT
BRANCH   1   2
HETATM    2  N   UNK N   1      29.458  14.296   4.933  0.00  0.00    -0.346 N 
HETATM    3  C   UNK N   1      29.982  13.142   4.441  0.00  0.00     0.243 C 
HETATM    4  O   UNK N   1      29.660  12.093   4.977  0.00  0.00    -0.271 OA
HETATM    5  H   UNK N   1      28.789  14.196   5.648  0.00  0.00     0.163 HD
BRANCH   3   6
HETATM    6  C   UNK N   1      30.920  13.062   3.253  0.00  0.00     0.200 C 
BRANCH   6   7
HETATM    7  N   UNK N   1      31.857  14.159   3.114  0.00  0.00    -0.344 N 
HETATM    8  C   UNK N   1      33.044  14.146   3.771  0.00  0.00     0.241 C 
HETATM    9  O   UNK N   1      33.850  15.044   3.588  0.00  0.00    -0.271 OA
HETATM   10  H   UNK N   1      31.630  14.923   2.536  0.00  0.00     0.163 HD
BRANCH   8  11
HETATM   11  C   UNK N   1      33.340  13.026   4.733  0.00  0.00     0.181 C 
BRANCH  11  12
HETATM   12  N   UNK N   1      33.750  13.591   5.999  0.00  0.00    -0.346 N 
HETATM   13  C   UNK N   1      32.909  13.817   7.034  0.00  0.00     0.241 C 
HETATM   14  O   UNK N   1      31.696  13.766   6.881  0.00  0.00    -0.271 OA
HETATM   15  H   UNK N   1      34.699  13.825   6.114  0.00  0.00     0.163 HD
BRANCH  13  16
HETATM   16  C   UNK N   1      33.497  13.991   8.403  0.00  0.00     0.182 C 
BRANCH  16  17
HETATM   17  N   UNK N   1      33.567  12.810   9.253  0.00  0.00    -0.346 N 
HETATM   18  C   UNK N   1      34.184  11.628   8.985  0.00  0.00     0.241 C 
HETATM   19  O   UNK N   1      34.823  11.466   7.954  0.00  0.00    -0.271 OA
HETATM   20  H   UNK N   1      33.114  12.875  10.124  0.00  0.00     0.163 HD
BRANCH  18  21
HETATM   21  C   UNK N   1      33.999  10.487   9.947  0.00  0.00     0.177 A 
HETATM   22  N   UNK N   1      34.781   9.353   9.561  0.00  0.00    -0.348 N 
HETATM   23  C   UNK N   1      34.034   8.257   9.439  0.00  0.00     0.218 A 
HETATM   24  H   UNK N   1      35.752   9.379   9.404  0.00  0.00     0.163 HD
HETATM   25  O   UNK N   1      34.511   7.177   9.135  0.00  0.00    -0.274 OA
HETATM   26  C   UNK N   1      32.597   8.462   9.713  0.00  0.00     0.105 A 
HETATM   27  C   UNK N   1      32.545   9.968  10.010  0.00  0.00     0.044 A 
ENDBRANCH  18  21
ENDBRANCH  16  17
BRANCH  16  28
HETATM   28  C   UNK N   1      34.845  14.698   8.257  0.00  0.00     0.093 C 
BRANCH  28  29
HETATM   29  C   UNK N   1      35.401  15.214   9.538  0.00  0.00     0.028 A 
HETATM   30  N   UNK N   1      35.037  16.375  10.102  0.00  0.00    -0.354 N 
HETATM   31  C   UNK N   1      35.823  16.492  11.191  0.00  0.00     0.180 A 
HETATM   32  H   UNK N   1      34.348  17.005   9.789  0.00  0.00     0.166 HD
HETATM   33  N   UNK N   1      36.669  15.445  11.312  0.00  0.00    -0.360 N 
HETATM   34  C   UNK N   1      36.410  14.638  10.267  0.00  0.00     0.114 A 
ATOM     35  HN  UNK N   1      37.362  15.298  12.045  1.00  0.00     0.166 HD
ENDBRANCH  28  29
ENDBRANCH  16  28
ENDBRANCH  13  16
ENDBRANCH  11  12
BRANCH  11  36
HETATM   36  C   UNK N   1      34.223  11.905   4.207  0.00  0.00     0.075 C 
BRANCH  36  37
HETATM   37  C   UNK N   1      33.312  10.819   3.736  0.00  0.00    -0.028 A 
HETATM   38  C   UNK N   1      32.513  10.031   4.519  0.00  0.00    -0.002 A 
HETATM   39  C   UNK N   1      31.808   9.222   3.675  0.00  0.00     0.042 A 
HETATM   40  C   UNK N   1      32.350   9.980   5.900  0.00  0.00     0.014 A 
HETATM   41  N   UNK N   1      32.131   9.460   2.391  0.00  0.00    -0.365 N 
HETATM   42  C   UNK N   1      30.882   8.297   4.148  0.00  0.00     0.030 A 
HETATM   43  C   UNK N   1      33.062  10.448   2.416  0.00  0.00     0.096 A 
HETATM   44  H   UNK N   1      31.766   9.011   1.595  0.00  0.00     0.165 HD
HETATM   45  C   UNK N   1      30.693   8.215   5.541  0.00  0.00     0.002 A 
HETATM   46  C   UNK N   1      31.426   9.052   6.414  0.00  0.00     0.001 A 
ENDBRANCH  36  37
ENDBRANCH  11  36
ENDBRANCH   8  11
ENDBRANCH   6   7
BRANCH   6  47
HETATM   47  C   UNK N   1      30.103  12.853   1.970  0.00  0.00     0.199 C 
BRANCH  47  48
HETATM   48  O   UNK N   1      28.726  12.925   2.194  0.00  0.00    -0.398 OA
HETATM   49  H   UNK N   1      28.186  13.265   2.925  0.00  0.00     0.209 HD
ENDBRANCH  47  48
ENDBRANCH   6  47
ENDBRANCH   3   6
ENDBRANCH   1   2
BRANCH   1  50
HETATM   50  C   UNK N   1      29.038  16.241   3.319  0.00  0.00     0.241 C 
HETATM   51  O   UNK N   1      29.705  16.439   2.317  0.00  0.00    -0.271 OA
HETATM   52  N   UNK N   1      27.702  16.499   3.253  0.00  0.00    -0.344 N 
HETATM   53  H   UNK N   1      27.353  16.837   2.397  0.00  0.00     0.163 HD
BRANCH  52  54
HETATM   54  C   UNK N   1      26.754  16.320   4.325  0.00  0.00     0.200 C 
BRANCH  54  55
HETATM   55  C   UNK N   1      25.832  15.157   4.092  0.00  0.00     0.243 C 
HETATM   56  O   UNK N   1      24.710  15.196   4.576  0.00  0.00    -0.271 OA
HETATM   57  N   UNK N   1      26.223  14.088   3.343  0.00  0.00    -0.346 N 
HETATM   58  H   UNK N   1      27.140  14.074   2.986  0.00  0.00     0.163 HD
BRANCH  57  59
HETATM   59  C   UNK N   1      25.346  12.967   3.047  0.00  0.00     0.177 C 
BRANCH  59  60
HETATM   60  C   UNK N   1      25.805  11.745   3.825  0.00  0.00     0.241 C 
HETATM   61  O   UNK N   1      26.904  11.258   3.608  0.00  0.00    -0.271 OA
HETATM   62  N   UNK N   1      25.028  11.219   4.807  0.00  0.00    -0.346 N 
HETATM   63  H   UNK N   1      25.407  10.528   5.396  0.00  0.00     0.163 HD
BRANCH  62  64
HETATM   64  C   UNK N   1      23.658  11.644   5.013  0.00  0.00     0.176 C 
BRANCH  64  65
HETATM   65  C   UNK N   1      23.393  12.309   6.352  0.00  0.00     0.243 C 
HETATM   66  O   UNK N   1      24.001  11.881   7.322  0.00  0.00    -0.271 OA
HETATM   67  N   UNK N   1      22.579  13.403   6.489  0.00  0.00    -0.337 N 
HETATM   68  C   UNK N   1      22.494  14.175   7.706  0.00  0.00     0.181 C 
HETATM   69  C   UNK N   1      21.824  13.949   5.398  0.00  0.00     0.127 C 
HETATM   70  C   UNK N   1      21.509  15.292   7.404  0.00  0.00     0.037 C 
HETATM   71  C   UNK N   1      21.273  15.269   5.900  0.00  0.00     0.022 C 
BRANCH  68  72
HETATM   72  C   UNK N   1      22.028  13.420   8.915  0.00  0.00     0.259 C 
HETATM   73  O   UNK N   1      20.862  13.063   9.013  0.00  0.00    -0.269 OA
HETATM   74  N   UNK N   1      22.905  13.207   9.927  0.00  0.00    -0.264 N 
HETATM   75  H   UNK N   1      23.853  13.431   9.790  0.00  0.00     0.190 HD
BRANCH  74  76
HETATM   76  N   UNK N   1      22.513  12.688  11.142  0.00  0.00    -0.249 N 
HETATM   77  C   UNK N   1      23.395  12.072  11.969  0.00  0.00     0.332 C 
HETATM   78  O   UNK N   1      24.570  11.956  11.648  0.00  0.00    -0.246 OA
HETATM   79  N   UNK N   1      22.971  11.562  13.139  0.00  0.00    -0.351 N 
HETATM   80  H   UNK N   1      23.325  10.702  13.462  0.00  0.00     0.160 HD
HETATM   81  H   UNK N   1      22.306  12.051  13.675  0.00  0.00     0.160 HD
HETATM   82  H   UNK N   1      21.569  12.766  11.415  0.00  0.00     0.192 HD
ENDBRANCH  74  76
ENDBRANCH  68  72
ENDBRANCH  64  65
BRANCH  64  83
HETATM   83  C   UNK N   1      22.675  10.490   4.751  0.00  0.00     0.036 C 
BRANCH  83  84
HETATM   84  C   UNK N   1      21.488  10.894   3.882  0.00  0.00     0.023 C 
BRANCH  84  85
HETATM   85  C   UNK N   1      20.172  10.682   4.614  0.00  0.00     0.138 C 
BRANCH  85  86
HETATM   86  N   UNK N   1      20.196   9.413   5.302  0.00  0.00    -0.227 N 
HETATM   87  C   UNK N   1      19.182   8.620   5.327  0.00  0.00     0.665 C 
HETATM   88  N   UNK N   1      17.973   8.965   4.675  0.00  0.00    -0.235 N 
HETATM   89  N   UNK N   1      19.271   7.398   6.027  0.00  0.00    -0.235 N 
HETATM   90  H   UNK N   1      17.558   9.660   4.116  0.00  0.00     0.174 HD
HETATM   91  H   UNK N   1      17.312   8.254   4.838  0.00  0.00     0.174 HD
HETATM   92  H   UNK N   1      19.200   6.454   5.759  0.00  0.00     0.174 HD
HETATM   93  H   UNK N   1      19.439   7.515   6.991  0.00  0.00     0.174 HD
ATOM     94  HN  UNK N   1      21.048   9.135   5.788  1.00  0.00     0.177 HD
ENDBRANCH  85  86
ENDBRANCH  84  85
ENDBRANCH  83  84
ENDBRANCH  64  83
ENDBRANCH  62  64
ENDBRANCH  59  60
BRANCH  59  95
HETATM   95  C   UNK N   1      25.195  12.787   1.527  0.00  0.00     0.038 C 
BRANCH  95  96
HETATM   96  C   UNK N   1      23.982  13.490   0.899  0.00  0.00    -0.020 C 
HETATM   97  C   UNK N   1      23.449  12.740  -0.303  0.00  0.00     0.009 C 
HETATM   98  C   UNK N   1      22.864  13.799   1.885  0.00  0.00     0.009 C 
ENDBRANCH  95  96
ENDBRANCH  59  95
ENDBRANCH  57  59
ENDBRANCH  54  55
BRANCH  54  99
HETATM   99  C   UNK N   1      25.961  17.599   4.554  0.00  0.00     0.203 C 
BRANCH  99 100
HETATM  100  O   UNK N   1      26.579  18.380   5.549  0.00  0.00    -0.379 OA
BRANCH 100 101
HETATM  101  C   UNK N   1      26.806  19.694   5.087  0.00  0.00     0.050 C 
HETATM  102  C   UNK N   1      28.225  19.849   4.563  0.00  0.00     0.045 C 
HETATM  103  C   UNK N   1      25.799  20.146   4.030  0.00  0.00     0.045 C 
HETATM  104  C   UNK N   1      26.637  20.621   6.271  0.00  0.00     0.045 C 
ENDBRANCH 100 101
ENDBRANCH  99 100
ENDBRANCH  54  99
ENDBRANCH  52  54
ENDBRANCH   1  50
BRANCH   1 105
HETATM  105  C   UNK N   1      29.705  16.594   5.749  0.00  0.00     0.073 C 
BRANCH 105 106
HETATM  106  C   UNK N   1      31.036  17.073   6.242  0.00  0.00    -0.056 A 
HETATM  107  C   UNK N   1      31.225  17.334   7.606  0.00  0.00     0.010 A 
HETATM  108  C   UNK N   1      32.476  17.744   8.076  0.00  0.00     0.037 A 
HETATM  109  C   UNK N   1      33.544  17.887   7.186  0.00  0.00     0.065 A 
HETATM  110  C   UNK N   1      33.361  17.618   5.825  0.00  0.00     0.037 A 
HETATM  111  C   UNK N   1      32.109  17.207   5.354  0.00  0.00     0.010 A 
BRANCH 109 112
HETATM  112  O   UNK N   1      34.745  18.282   7.637  0.00  0.00    -0.361 OA
HETATM  113  H   UNK N   1      35.558  17.816   7.647  0.00  0.00     0.217 HD
ENDBRANCH 109 112
ENDBRANCH 105 106
ENDBRANCH   1 105
TORSDOF 35
ENDMDL
MODEL 7
REMARK VINA RESULT:      -7.3      3.314      8.089
REMARK WARNING: 32 MAX_TORS EXCEEDED!!!
REMARK  35 active torsions:
REMARK  status: ('A' for Active; 'I' for Inactive)
REMARK    1  A    between atoms: O_4  and  C_53 
REMARK    2  A    between atoms: O_4  and  C_56 
REMARK    3  A    between atoms: O_13  and  C_82 
REMARK    4  A    between atoms: O_14  and  C_93 
REMARK       I    between atoms: N_15  and  C_39 
REMARK    5  A    between atoms: C_40  and  N_16 
REMARK       I    between atoms: N_16  and  C_45 
REMARK    6  A    between atoms: N_17  and  N_19 
REMARK       I    between atoms: N_17  and  C_41 
REMARK    7  A    between atoms: C_44  and  N_18 
REMARK       I    between atoms: N_18  and  C_51 
REMARK       I    between atoms: N_19  and  C_54 
REMARK    8  A    between atoms: N_20  and  C_48 
REMARK    9  A    between atoms: C_52  and  N_22 
REMARK       I    between atoms: N_22  and  C_58 
REMARK   10  A    between atoms: C_61  and  N_24 
REMARK       I    between atoms: N_24  and  C_66 
REMARK       I    between atoms: N_25  and  C_54 
REMARK   11  A    between atoms: C_57  and  N_26 
REMARK       I    between atoms: N_26  and  C_76 
REMARK   12  A    between atoms: C_62  and  N_27 
REMARK       I    between atoms: N_27  and  C_70 
REMARK   13  A    between atoms: C_69  and  N_28 
REMARK       I    between atoms: N_28  and  C_75 
REMARK       I    between atoms: N_29  and  C_59 
REMARK       I    between atoms: N_30  and  C_59 
REMARK   14  A    between atoms: C_35  and  C_41 
REMARK   15  A    between atoms: C_39  and  C_40 
REMARK   16  A    between atoms: C_40  and  C_42 
REMARK   17  A    between atoms: C_42  and  C_43 
REMARK   18  A    between atoms: C_43  and  C_48 
REMARK   19  A    between atoms: C_44  and  C_45 
REMARK   20  A    between atoms: C_44  and  C_46 
REMARK   21  A    between atoms: C_46  and  C_47 
REMARK   22  A    between atoms: C_51  and  C_52 
REMARK   23  A    between atoms: C_52  and  C_53 
REMARK   24  A    between atoms: C_55  and  C_66 
REMARK   25  A    between atoms: C_57  and  C_58 
REMARK   26  A    between atoms: C_57  and  C_64 
REMARK   27  A    between atoms: C_61  and  C_68 
REMARK   28  A    between atoms: C_61  and  C_70 
REMARK   29  A    between atoms: C_62  and  C_65 
REMARK   30  A    between atoms: C_62  and  C_75 
REMARK   31  A    between atoms: C_64  and  C_77 
REMARK   32  A    between atoms: C_65  and  C_74 
REMARK   33  A    between atoms: C_68  and  C_79 
REMARK   34  A    between atoms: C_69  and  C_76 
REMARK   35  A    between atoms: C_69  and  C_82 
ROOT
HETATM    1  C   UNK N   1      24.433  14.915   4.012  0.00  0.00     0.180 C 
ENDROOT
BRANCH   1   2
HETATM    2  N   UNK N   1      25.030  14.316   2.834  0.00  0.00    -0.346 N 
HETATM    3  C   UNK N   1      24.549  13.290   2.083  0.00  0.00     0.243 C 
HETATM    4  O   UNK N   1      25.159  12.990   1.068  0.00  0.00    -0.271 OA
HETATM    5  H   UNK N   1      25.889  14.699   2.543  0.00  0.00     0.163 HD
BRANCH   3   6
HETATM    6  C   UNK N   1      23.321  12.472   2.429  0.00  0.00     0.200 C 
BRANCH   6   7
HETATM    7  N   UNK N   1      23.573  11.211   3.098  0.00  0.00    -0.344 N 
HETATM    8  C   UNK N   1      22.674  10.699   3.975  0.00  0.00     0.241 C 
HETATM    9  O   UNK N   1      22.870   9.602   4.475  0.00  0.00    -0.271 OA
HETATM   10  H   UNK N   1      24.405  10.719   2.912  0.00  0.00     0.163 HD
BRANCH   8  11
HETATM   11  C   UNK N   1      21.453  11.504   4.333  0.00  0.00     0.181 C 
BRANCH  11  12
HETATM   12  N   UNK N   1      21.724  12.261   5.534  0.00  0.00    -0.346 N 
HETATM   13  C   UNK N   1      20.908  13.221   6.024  0.00  0.00     0.241 C 
HETATM   14  O   UNK N   1      19.990  13.669   5.351  0.00  0.00    -0.271 OA
HETATM   15  H   UNK N   1      22.555  12.064   6.025  0.00  0.00     0.163 HD
BRANCH  13  16
HETATM   16  C   UNK N   1      21.065  13.623   7.461  0.00  0.00     0.182 C 
BRANCH  16  17
HETATM   17  N   UNK N   1      21.770  12.697   8.339  0.00  0.00    -0.346 N 
HETATM   18  C   UNK N   1      21.565  12.492   9.667  0.00  0.00     0.241 C 
HETATM   19  O   UNK N   1      20.671  13.071  10.268  0.00  0.00    -0.271 OA
HETATM   20  H   UNK N   1      22.479  12.158   7.920  0.00  0.00     0.163 HD
BRANCH  18  21
HETATM   21  C   UNK N   1      22.517  11.594  10.410  0.00  0.00     0.177 A 
HETATM   22  N   UNK N   1      22.339  11.710  11.825  0.00  0.00    -0.348 N 
HETATM   23  C   UNK N   1      23.479  12.012  12.442  0.00  0.00     0.218 A 
HETATM   24  H   UNK N   1      21.479  11.581  12.286  0.00  0.00     0.163 HD
HETATM   25  O   UNK N   1      23.548  12.138  13.653  0.00  0.00    -0.274 OA
HETATM   26  C   UNK N   1      24.640  12.168  11.542  0.00  0.00     0.105 A 
HETATM   27  C   UNK N   1      24.002  11.939  10.164  0.00  0.00     0.044 A 
ENDBRANCH  18  21
ENDBRANCH  16  17
BRANCH  16  28
HETATM   28  C   UNK N   1      21.645  15.036   7.500  0.00  0.00     0.093 C 
BRANCH  28  29
HETATM   29  C   UNK N   1      20.702  16.064   8.021  0.00  0.00     0.028 A 
HETATM   30  N   UNK N   1      19.742  15.815   8.924  0.00  0.00    -0.354 N 
HETATM   31  C   UNK N   1      19.082  16.982   9.059  0.00  0.00     0.180 A 
HETATM   32  H   UNK N   1      19.559  14.965   9.387  0.00  0.00     0.166 HD
HETATM   33  N   UNK N   1      19.595  17.942   8.259  0.00  0.00    -0.360 N 
HETATM   34  C   UNK N   1      20.616  17.366   7.597  0.00  0.00     0.114 A 
ATOM     35  HN  UNK N   1      19.274  18.907   8.174  1.00  0.00     0.166 HD
ENDBRANCH  28  29
ENDBRANCH  16  28
ENDBRANCH  13  16
ENDBRANCH  11  12
BRANCH  11  36
HETATM   36  C   UNK N   1      20.129  10.756   4.322  0.00  0.00     0.075 C 
BRANCH  36  37
HETATM   37  C   UNK N   1      19.752  10.561   2.890  0.00  0.00    -0.028 A 
HETATM   38  C   UNK N   1      19.254  11.513   2.043  0.00  0.00    -0.002 A 
HETATM   39  C   UNK N   1      19.111  10.919   0.822  0.00  0.00     0.042 A 
HETATM   40  C   UNK N   1      18.933  12.851   2.256  0.00  0.00     0.014 A 
HETATM   41  N   UNK N   1      19.493   9.629   0.861  0.00  0.00    -0.365 N 
HETATM   42  C   UNK N   1      18.636  11.618  -0.284  0.00  0.00     0.030 A 
HETATM   43  C   UNK N   1      19.891   9.395   2.138  0.00  0.00     0.096 A 
HETATM   44  H   UNK N   1      19.484   8.986   0.116  0.00  0.00     0.165 HD
HETATM   45  C   UNK N   1      18.297  12.973  -0.104  0.00  0.00     0.002 A 
HETATM   46  C   UNK N   1      18.443  13.586   1.162  0.00  0.00     0.001 A 
ENDBRANCH  36  37
ENDBRANCH  11  36
ENDBRANCH   8  11
ENDBRANCH   6   7
BRANCH   6  47
HETATM   47  C   UNK N   1      22.462  12.283   1.172  0.00  0.00     0.199 C 
BRANCH  47  48
HETATM   48  O   UNK N   1      22.197  13.488   0.516  0.00  0.00    -0.398 OA
HETATM   49  H   UNK N   1      21.420  13.838   0.054  0.00  0.00     0.209 HD
ENDBRANCH  47  48
ENDBRANCH   6  47
ENDBRANCH   3   6
ENDBRANCH   1   2
BRANCH   1  50
HETATM   50  C   UNK N   1      25.081  14.649   5.374  0.00  0.00     0.241 C 
HETATM   51  O   UNK N   1      24.465  13.939   6.152  0.00  0.00    -0.271 OA
HETATM   52  N   UNK N   1      26.311  15.091   5.757  0.00  0.00    -0.344 N 
HETATM   53  H   UNK N   1      26.630  14.815   6.648  0.00  0.00     0.163 HD
BRANCH  52  54
HETATM   54  C   UNK N   1      27.189  15.928   4.976  0.00  0.00     0.200 C 
BRANCH  54  55
HETATM   55  C   UNK N   1      28.537  15.303   4.758  0.00  0.00     0.243 C 
HETATM   56  O   UNK N   1      28.869  14.367   5.471  0.00  0.00    -0.271 OA
HETATM   57  N   UNK N   1      29.371  15.749   3.776  0.00  0.00    -0.346 N 
HETATM   58  H   UNK N   1      29.086  16.520   3.233  0.00  0.00     0.163 HD
BRANCH  57  59
HETATM   59  C   UNK N   1      30.660  15.140   3.495  0.00  0.00     0.177 C 
BRANCH  59  60
HETATM   60  C   UNK N   1      31.642  16.212   3.057  0.00  0.00     0.241 C 
HETATM   61  O   UNK N   1      31.420  16.876   2.057  0.00  0.00    -0.271 OA
HETATM   62  N   UNK N   1      32.745  16.484   3.802  0.00  0.00    -0.346 N 
HETATM   63  H   UNK N   1      33.284  17.278   3.584  0.00  0.00     0.163 HD
BRANCH  62  64
HETATM   64  C   UNK N   1      33.154  15.639   4.907  0.00  0.00     0.176 C 
BRANCH  64  65
HETATM   65  C   UNK N   1      33.476  16.384   6.190  0.00  0.00     0.243 C 
HETATM   66  O   UNK N   1      34.654  16.594   6.438  0.00  0.00    -0.271 OA
HETATM   67  N   UNK N   1      32.507  16.890   7.017  0.00  0.00    -0.337 N 
HETATM   68  C   UNK N   1      32.794  17.783   8.114  0.00  0.00     0.181 C 
HETATM   69  C   UNK N   1      31.107  16.669   6.797  0.00  0.00     0.127 C 
HETATM   70  C   UNK N   1      31.445  18.109   8.730  0.00  0.00     0.037 C 
HETATM   71  C   UNK N   1      30.389  17.589   7.765  0.00  0.00     0.022 C 
BRANCH  68  72
HETATM   72  C   UNK N   1      33.701  17.230   9.173  0.00  0.00     0.259 C 
HETATM   73  O   UNK N   1      34.794  17.737   9.381  0.00  0.00    -0.269 OA
HETATM   74  N   UNK N   1      33.316  16.114   9.841  0.00  0.00    -0.264 N 
HETATM   75  H   UNK N   1      32.402  15.775   9.713  0.00  0.00     0.190 HD
BRANCH  74  76
HETATM   76  N   UNK N   1      34.165  15.439  10.692  0.00  0.00    -0.249 N 
HETATM   77  C   UNK N   1      34.813  14.313  10.300  0.00  0.00     0.332 C 
HETATM   78  O   UNK N   1      34.653  13.864   9.174  0.00  0.00    -0.246 OA
HETATM   79  N   UNK N   1      35.620  13.671  11.164  0.00  0.00    -0.351 N 
HETATM   80  H   UNK N   1      35.636  12.687  11.189  0.00  0.00     0.160 HD
HETATM   81  H   UNK N   1      36.196  14.187  11.773  0.00  0.00     0.160 HD
HETATM   82  H   UNK N   1      34.302  15.781  11.605  0.00  0.00     0.192 HD
ENDBRANCH  74  76
ENDBRANCH  68  72
ENDBRANCH  64  65
BRANCH  64  83
HETATM   83  C   UNK N   1      34.301  14.702   4.493  0.00  0.00     0.036 C 
BRANCH  83  84
HETATM   84  C   UNK N   1      34.423  13.467   5.381  0.00  0.00     0.023 C 
BRANCH  84  85
HETATM   85  C   UNK N   1      35.875  13.053   5.553  0.00  0.00     0.138 C 
BRANCH  85  86
HETATM   86  N   UNK N   1      36.317  13.367   6.891  0.00  0.00    -0.227 N 
HETATM   87  C   UNK N   1      37.559  13.524   7.191  0.00  0.00     0.665 C 
HETATM   88  N   UNK N   1      38.567  13.386   6.207  0.00  0.00    -0.235 N 
HETATM   89  N   UNK N   1      37.922  13.821   8.522  0.00  0.00    -0.235 N 
HETATM   90  H   UNK N   1      38.704  13.214   5.248  0.00  0.00     0.174 HD
HETATM   91  H   UNK N   1      39.445  13.505   6.635  0.00  0.00     0.174 HD
HETATM   92  H   UNK N   1      38.378  14.582   8.949  0.00  0.00     0.174 HD
HETATM   93  H   UNK N   1      37.664  13.117   9.161  0.00  0.00     0.174 HD
ATOM     94  HN  UNK N   1      35.618  13.468   7.626  1.00  0.00     0.177 HD
ENDBRANCH  85  86
ENDBRANCH  84  85
ENDBRANCH  83  84
ENDBRANCH  64  83
ENDBRANCH  62  64
ENDBRANCH  59  60
BRANCH  59  95
HETATM   95  C   UNK N   1      30.494  13.942   2.544  0.00  0.00     0.038 C 
BRANCH  95  96
HETATM   96  C   UNK N   1      31.159  12.637   3.007  0.00  0.00    -0.020 C 
HETATM   97  C   UNK N   1      32.519  12.434   2.372  0.00  0.00     0.009 C 
HETATM   98  C   UNK N   1      31.239  12.485   4.520  0.00  0.00     0.009 C 
ENDBRANCH  95  96
ENDBRANCH  59  95
ENDBRANCH  57  59
ENDBRANCH  54  55
BRANCH  54  99
HETATM   99  C   UNK N   1      27.328  17.301   5.618  0.00  0.00     0.203 C 
BRANCH  99 100
HETATM  100  O   UNK N   1      27.785  18.235   4.669  0.00  0.00    -0.379 OA
BRANCH 100 101
HETATM  101  C   UNK N   1      27.057  19.441   4.762  0.00  0.00     0.050 C 
HETATM  102  C   UNK N   1      27.787  20.451   5.633  0.00  0.00     0.045 C 
HETATM  103  C   UNK N   1      26.726  20.054   3.403  0.00  0.00     0.045 C 
HETATM  104  C   UNK N   1      25.736  19.116   5.425  0.00  0.00     0.045 C 
ENDBRANCH 100 101
ENDBRANCH  99 100
ENDBRANCH  54  99
ENDBRANCH  52  54
ENDBRANCH   1  50
BRANCH   1 105
HETATM  105  C   UNK N   1      24.177  16.411   3.777  0.00  0.00     0.073 C 
BRANCH 105 106
HETATM  106  C   UNK N   1      22.735  16.786   3.616  0.00  0.00    -0.056 A 
HETATM  107  C   UNK N   1      22.315  18.091   3.907  0.00  0.00     0.010 A 
HETATM  108  C   UNK N   1      20.979  18.458   3.722  0.00  0.00     0.037 A 
HETATM  109  C   UNK N   1      20.061  17.522   3.238  0.00  0.00     0.065 A 
HETATM  110  C   UNK N   1      20.478  16.221   2.938  0.00  0.00     0.037 A 
HETATM  111  C   UNK N   1      21.816  15.855   3.122  0.00  0.00     0.010 A 
BRANCH 109 112
HETATM  112  O   UNK N   1      18.776  17.873   3.062  0.00  0.00    -0.361 OA
HETATM  113  H   UNK N   1      18.330  18.113   2.274  0.00  0.00     0.217 HD
ENDBRANCH 109 112
ENDBRANCH 105 106
ENDBRANCH   1 105
TORSDOF 35
ENDMDL
MODEL 8
REMARK VINA RESULT:      -7.3      2.767      7.743
REMARK WARNING: 32 MAX_TORS EXCEEDED!!!
REMARK  35 active torsions:
REMARK  status: ('A' for Active; 'I' for Inactive)
REMARK    1  A    between atoms: O_4  and  C_53 
REMARK    2  A    between atoms: O_4  and  C_56 
REMARK    3  A    between atoms: O_13  and  C_82 
REMARK    4  A    between atoms: O_14  and  C_93 
REMARK       I    between atoms: N_15  and  C_39 
REMARK    5  A    between atoms: C_40  and  N_16 
REMARK       I    between atoms: N_16  and  C_45 
REMARK    6  A    between atoms: N_17  and  N_19 
REMARK       I    between atoms: N_17  and  C_41 
REMARK    7  A    between atoms: C_44  and  N_18 
REMARK       I    between atoms: N_18  and  C_51 
REMARK       I    between atoms: N_19  and  C_54 
REMARK    8  A    between atoms: N_20  and  C_48 
REMARK    9  A    between atoms: C_52  and  N_22 
REMARK       I    between atoms: N_22  and  C_58 
REMARK   10  A    between atoms: C_61  and  N_24 
REMARK       I    between atoms: N_24  and  C_66 
REMARK       I    between atoms: N_25  and  C_54 
REMARK   11  A    between atoms: C_57  and  N_26 
REMARK       I    between atoms: N_26  and  C_76 
REMARK   12  A    between atoms: C_62  and  N_27 
REMARK       I    between atoms: N_27  and  C_70 
REMARK   13  A    between atoms: C_69  and  N_28 
REMARK       I    between atoms: N_28  and  C_75 
REMARK       I    between atoms: N_29  and  C_59 
REMARK       I    between atoms: N_30  and  C_59 
REMARK   14  A    between atoms: C_35  and  C_41 
REMARK   15  A    between atoms: C_39  and  C_40 
REMARK   16  A    between atoms: C_40  and  C_42 
REMARK   17  A    between atoms: C_42  and  C_43 
REMARK   18  A    between atoms: C_43  and  C_48 
REMARK   19  A    between atoms: C_44  and  C_45 
REMARK   20  A    between atoms: C_44  and  C_46 
REMARK   21  A    between atoms: C_46  and  C_47 
REMARK   22  A    between atoms: C_51  and  C_52 
REMARK   23  A    between atoms: C_52  and  C_53 
REMARK   24  A    between atoms: C_55  and  C_66 
REMARK   25  A    between atoms: C_57  and  C_58 
REMARK   26  A    between atoms: C_57  and  C_64 
REMARK   27  A    between atoms: C_61  and  C_68 
REMARK   28  A    between atoms: C_61  and  C_70 
REMARK   29  A    between atoms: C_62  and  C_65 
REMARK   30  A    between atoms: C_62  and  C_75 
REMARK   31  A    between atoms: C_64  and  C_77 
REMARK   32  A    between atoms: C_65  and  C_74 
REMARK   33  A    between atoms: C_68  and  C_79 
REMARK   34  A    between atoms: C_69  and  C_76 
REMARK   35  A    between atoms: C_69  and  C_82 
ROOT
HETATM    1  C   UNK N   1      26.112  14.287   2.497  0.00  0.00     0.180 C 
ENDROOT
BRANCH   1   2
HETATM    2  N   UNK N   1      26.327  12.901   2.864  0.00  0.00    -0.346 N 
HETATM    3  C   UNK N   1      25.688  12.181   3.824  0.00  0.00     0.243 C 
HETATM    4  O   UNK N   1      25.949  10.992   3.917  0.00  0.00    -0.271 OA
HETATM    5  H   UNK N   1      27.020  12.422   2.354  0.00  0.00     0.163 HD
BRANCH   3   6
HETATM    6  C   UNK N   1      24.690  12.757   4.809  0.00  0.00     0.200 C 
BRANCH   6   7
HETATM    7  N   UNK N   1      24.998  12.551   6.211  0.00  0.00    -0.344 N 
HETATM    8  C   UNK N   1      25.030  13.596   7.075  0.00  0.00     0.241 C 
HETATM    9  O   UNK N   1      25.222  13.395   8.264  0.00  0.00    -0.271 OA
HETATM   10  H   UNK N   1      25.186  11.642   6.540  0.00  0.00     0.163 HD
BRANCH   8  11
HETATM   11  C   UNK N   1      24.844  14.994   6.549  0.00  0.00     0.181 C 
BRANCH  11  12
HETATM   12  N   UNK N   1      25.950  15.813   6.990  0.00  0.00    -0.346 N 
HETATM   13  C   UNK N   1      27.200  15.738   6.478  0.00  0.00     0.241 C 
HETATM   14  O   UNK N   1      27.529  14.805   5.757  0.00  0.00    -0.271 OA
HETATM   15  H   UNK N   1      25.783  16.466   7.708  0.00  0.00     0.163 HD
BRANCH  13  16
HETATM   16  C   UNK N   1      28.130  16.894   6.697  0.00  0.00     0.182 C 
BRANCH  16  17
HETATM   17  N   UNK N   1      29.519  16.583   7.009  0.00  0.00    -0.346 N 
HETATM   18  C   UNK N   1      30.317  17.179   7.934  0.00  0.00     0.241 C 
HETATM   19  O   UNK N   1      29.887  18.055   8.672  0.00  0.00    -0.271 OA
HETATM   20  H   UNK N   1      29.928  15.855   6.488  0.00  0.00     0.163 HD
BRANCH  18  21
HETATM   21  C   UNK N   1      31.771  16.798   7.981  0.00  0.00     0.177 A 
HETATM   22  N   UNK N   1      32.545  17.792   8.660  0.00  0.00    -0.348 N 
HETATM   23  C   UNK N   1      33.557  18.224   7.912  0.00  0.00     0.218 A 
HETATM   24  H   UNK N   1      32.352  18.116   9.570  0.00  0.00     0.163 HD
HETATM   25  O   UNK N   1      34.349  19.060   8.313  0.00  0.00    -0.274 OA
HETATM   26  C   UNK N   1      33.640  17.602   6.576  0.00  0.00     0.105 A 
HETATM   27  C   UNK N   1      32.417  16.673   6.584  0.00  0.00     0.044 A 
ENDBRANCH  18  21
ENDBRANCH  16  17
BRANCH  16  28
HETATM   28  C   UNK N   1      27.988  17.850   5.513  0.00  0.00     0.093 C 
BRANCH  28  29
HETATM   29  C   UNK N   1      27.360  19.155   5.858  0.00  0.00     0.028 A 
HETATM   30  N   UNK N   1      26.520  19.822   5.053  0.00  0.00    -0.354 N 
HETATM   31  C   UNK N   1      26.250  20.969   5.708  0.00  0.00     0.180 A 
HETATM   32  H   UNK N   1      26.177  19.537   4.176  0.00  0.00     0.166 HD
HETATM   33  N   UNK N   1      26.906  21.038   6.887  0.00  0.00    -0.360 N 
HETATM   34  C   UNK N   1      27.613  19.897   6.985  0.00  0.00     0.114 A 
ATOM     35  HN  UNK N   1      26.872  21.799   7.565  1.00  0.00     0.166 HD
ENDBRANCH  28  29
ENDBRANCH  16  28
ENDBRANCH  13  16
ENDBRANCH  11  12
BRANCH  11  36
HETATM   36  C   UNK N   1      23.466  15.607   6.742  0.00  0.00     0.075 C 
BRANCH  36  37
HETATM   37  C   UNK N   1      23.198  16.457   5.543  0.00  0.00    -0.028 A 
HETATM   38  C   UNK N   1      21.993  16.624   4.917  0.00  0.00    -0.002 A 
HETATM   39  C   UNK N   1      22.191  17.527   3.913  0.00  0.00     0.042 A 
HETATM   40  C   UNK N   1      20.745  16.060   5.169  0.00  0.00     0.014 A 
HETATM   41  N   UNK N   1      23.473  17.936   3.873  0.00  0.00    -0.365 N 
HETATM   42  C   UNK N   1      21.155  17.939   3.080  0.00  0.00     0.030 A 
HETATM   43  C   UNK N   1      24.107  17.278   4.878  0.00  0.00     0.096 A 
HETATM   44  H   UNK N   1      23.870  18.579   3.243  0.00  0.00     0.165 HD
HETATM   45  C   UNK N   1      19.879  17.386   3.302  0.00  0.00     0.002 A 
HETATM   46  C   UNK N   1      19.675  16.448   4.341  0.00  0.00     0.001 A 
ENDBRANCH  36  37
ENDBRANCH  11  36
ENDBRANCH   8  11
ENDBRANCH   6   7
BRANCH   6  47
HETATM   47  C   UNK N   1      23.282  12.257   4.462  0.00  0.00     0.199 C 
BRANCH  47  48
HETATM   48  O   UNK N   1      23.259  11.487   3.296  0.00  0.00    -0.398 OA
HETATM   49  H   UNK N   1      23.740  11.536   2.455  0.00  0.00     0.209 HD
ENDBRANCH  47  48
ENDBRANCH   6  47
ENDBRANCH   3   6
ENDBRANCH   1   2
BRANCH   1  50
HETATM   50  C   UNK N   1      27.270  15.276   2.674  0.00  0.00     0.241 C 
HETATM   51  O   UNK N   1      26.980  16.457   2.772  0.00  0.00    -0.271 OA
HETATM   52  N   UNK N   1      28.583  14.933   2.791  0.00  0.00    -0.344 N 
HETATM   53  H   UNK N   1      29.226  15.664   2.942  0.00  0.00     0.163 HD
BRANCH  52  54
HETATM   54  C   UNK N   1      29.117  13.595   2.713  0.00  0.00     0.200 C 
BRANCH  54  55
HETATM   55  C   UNK N   1      30.412  13.447   3.459  0.00  0.00     0.243 C 
HETATM   56  O   UNK N   1      30.373  13.322   4.675  0.00  0.00    -0.271 OA
HETATM   57  N   UNK N   1      31.606  13.430   2.803  0.00  0.00    -0.346 N 
HETATM   58  H   UNK N   1      31.607  13.556   1.826  0.00  0.00     0.163 HD
BRANCH  57  59
HETATM   59  C   UNK N   1      32.878  13.234   3.479  0.00  0.00     0.177 C 
BRANCH  59  60
HETATM   60  C   UNK N   1      33.555  14.579   3.684  0.00  0.00     0.241 C 
HETATM   61  O   UNK N   1      33.198  15.550   3.036  0.00  0.00    -0.271 OA
HETATM   62  N   UNK N   1      34.520  14.729   4.628  0.00  0.00    -0.346 N 
HETATM   63  H   UNK N   1      34.835  15.635   4.847  0.00  0.00     0.163 HD
BRANCH  62  64
HETATM   64  C   UNK N   1      35.100  13.596   5.322  0.00  0.00     0.176 C 
BRANCH  64  65
HETATM   65  C   UNK N   1      34.709  13.478   6.784  0.00  0.00     0.243 C 
HETATM   66  O   UNK N   1      34.837  14.473   7.482  0.00  0.00    -0.271 OA
HETATM   67  N   UNK N   1      34.151  12.344   7.313  0.00  0.00    -0.337 N 
HETATM   68  C   UNK N   1      33.574  12.292   8.635  0.00  0.00     0.181 C 
HETATM   69  C   UNK N   1      33.984  11.136   6.557  0.00  0.00     0.127 C 
HETATM   70  C   UNK N   1      33.056  10.873   8.792  0.00  0.00     0.037 C 
HETATM   71  C   UNK N   1      33.118  10.233   7.412  0.00  0.00     0.022 C 
BRANCH  68  72
HETATM   72  C   UNK N   1      34.517  12.601   9.760  0.00  0.00     0.259 C 
HETATM   73  O   UNK N   1      35.571  11.991   9.871  0.00  0.00    -0.269 OA
HETATM   74  N   UNK N   1      34.144  13.515  10.691  0.00  0.00    -0.264 N 
HETATM   75  H   UNK N   1      33.332  14.047  10.535  0.00  0.00     0.190 HD
BRANCH  74  76
HETATM   76  N   UNK N   1      34.864  13.720  11.847  0.00  0.00    -0.249 N 
HETATM   77  C   UNK N   1      35.662  14.806  12.002  0.00  0.00     0.332 C 
HETATM   78  O   UNK N   1      35.766  15.633  11.107  0.00  0.00    -0.246 OA
HETATM   79  N   UNK N   1      36.364  14.965  13.139  0.00  0.00    -0.351 N 
HETATM   80  H   UNK N   1      37.284  15.313  13.108  0.00  0.00     0.160 HD
HETATM   81  H   UNK N   1      35.956  14.732  14.003  0.00  0.00     0.160 HD
HETATM   82  H   UNK N   1      34.798  13.062  12.578  0.00  0.00     0.192 HD
ENDBRANCH  74  76
ENDBRANCH  68  72
ENDBRANCH  64  65
BRANCH  64  83
HETATM   83  C   UNK N   1      36.627  13.558   5.139  0.00  0.00     0.036 C 
BRANCH  83  84
HETATM   84  C   UNK N   1      37.209  12.150   5.220  0.00  0.00     0.023 C 
BRANCH  84  85
HETATM   85  C   UNK N   1      38.316  12.070   6.259  0.00  0.00     0.138 C 
BRANCH  85  86
HETATM   86  N   UNK N   1      37.828  12.552   7.529  0.00  0.00    -0.227 N 
HETATM   87  C   UNK N   1      38.401  13.509   8.173  0.00  0.00     0.665 C 
HETATM   88  N   UNK N   1      39.560  14.138   7.660  0.00  0.00    -0.235 N 
HETATM   89  N   UNK N   1      37.875  13.925   9.416  0.00  0.00    -0.235 N 
HETATM   90  H   UNK N   1      40.169  14.143   6.887  0.00  0.00     0.174 HD
HETATM   91  H   UNK N   1      39.867  14.812   8.309  0.00  0.00     0.174 HD
HETATM   92  H   UNK N   1      37.505  14.774   9.747  0.00  0.00     0.174 HD
HETATM   93  H   UNK N   1      37.881  13.213  10.096  0.00  0.00     0.174 HD
ATOM     94  HN  UNK N   1      36.997  12.118   7.932  1.00  0.00     0.177 HD
ENDBRANCH  85  86
ENDBRANCH  84  85
ENDBRANCH  83  84
ENDBRANCH  64  83
ENDBRANCH  62  64
ENDBRANCH  59  60
BRANCH  59  95
HETATM   95  C   UNK N   1      33.709  12.158   2.762  0.00  0.00     0.038 C 
BRANCH  95  96
HETATM   96  C   UNK N   1      34.365  12.602   1.445  0.00  0.00    -0.020 C 
HETATM   97  C   UNK N   1      35.877  12.614   1.537  0.00  0.00     0.009 C 
HETATM   98  C   UNK N   1      33.902  11.818   0.226  0.00  0.00     0.009 C 
ENDBRANCH  95  96
ENDBRANCH  59  95
ENDBRANCH  57  59
ENDBRANCH  54  55
BRANCH  54  99
HETATM   99  C   UNK N   1      29.279  13.170   1.261  0.00  0.00     0.203 C 
BRANCH  99 100
HETATM  100  O   UNK N   1      28.679  11.914   1.054  0.00  0.00    -0.379 OA
BRANCH 100 101
HETATM  101  C   UNK N   1      29.508  11.085   0.268  0.00  0.00     0.050 C 
HETATM  102  C   UNK N   1      28.712   9.944  -0.345  0.00  0.00     0.045 C 
HETATM  103  C   UNK N   1      30.267  11.845  -0.818  0.00  0.00     0.045 C 
HETATM  104  C   UNK N   1      30.549  10.490   1.191  0.00  0.00     0.045 C 
ENDBRANCH 100 101
ENDBRANCH  99 100
ENDBRANCH  54  99
ENDBRANCH  52  54
ENDBRANCH   1  50
BRANCH   1 105
HETATM  105  C   UNK N   1      25.486  14.378   1.098  0.00  0.00     0.073 C 
BRANCH 105 106
HETATM  106  C   UNK N   1      24.030  14.029   1.036  0.00  0.00    -0.056 A 
HETATM  107  C   UNK N   1      23.103  14.759   1.792  0.00  0.00     0.010 A 
HETATM  108  C   UNK N   1      21.739  14.463   1.709  0.00  0.00     0.037 A 
HETATM  109  C   UNK N   1      21.298  13.441   0.863  0.00  0.00     0.065 A 
HETATM  110  C   UNK N   1      22.220  12.717   0.101  0.00  0.00     0.037 A 
HETATM  111  C   UNK N   1      23.585  13.013   0.183  0.00  0.00     0.010 A 
BRANCH 109 112
HETATM  112  O   UNK N   1      19.988  13.155   0.784  0.00  0.00    -0.361 OA
HETATM  113  H   UNK N   1      19.561  12.321   0.800  0.00  0.00     0.217 HD
ENDBRANCH 109 112
ENDBRANCH 105 106
ENDBRANCH   1 105
TORSDOF 35
ENDMDL
MODEL 9
REMARK VINA RESULT:      -7.3      3.144      7.563
REMARK WARNING: 32 MAX_TORS EXCEEDED!!!
REMARK  35 active torsions:
REMARK  status: ('A' for Active; 'I' for Inactive)
REMARK    1  A    between atoms: O_4  and  C_53 
REMARK    2  A    between atoms: O_4  and  C_56 
REMARK    3  A    between atoms: O_13  and  C_82 
REMARK    4  A    between atoms: O_14  and  C_93 
REMARK       I    between atoms: N_15  and  C_39 
REMARK    5  A    between atoms: C_40  and  N_16 
REMARK       I    between atoms: N_16  and  C_45 
REMARK    6  A    between atoms: N_17  and  N_19 
REMARK       I    between atoms: N_17  and  C_41 
REMARK    7  A    between atoms: C_44  and  N_18 
REMARK       I    between atoms: N_18  and  C_51 
REMARK       I    between atoms: N_19  and  C_54 
REMARK    8  A    between atoms: N_20  and  C_48 
REMARK    9  A    between atoms: C_52  and  N_22 
REMARK       I    between atoms: N_22  and  C_58 
REMARK   10  A    between atoms: C_61  and  N_24 
REMARK       I    between atoms: N_24  and  C_66 
REMARK       I    between atoms: N_25  and  C_54 
REMARK   11  A    between atoms: C_57  and  N_26 
REMARK       I    between atoms: N_26  and  C_76 
REMARK   12  A    between atoms: C_62  and  N_27 
REMARK       I    between atoms: N_27  and  C_70 
REMARK   13  A    between atoms: C_69  and  N_28 
REMARK       I    between atoms: N_28  and  C_75 
REMARK       I    between atoms: N_29  and  C_59 
REMARK       I    between atoms: N_30  and  C_59 
REMARK   14  A    between atoms: C_35  and  C_41 
REMARK   15  A    between atoms: C_39  and  C_40 
REMARK   16  A    between atoms: C_40  and  C_42 
REMARK   17  A    between atoms: C_42  and  C_43 
REMARK   18  A    between atoms: C_43  and  C_48 
REMARK   19  A    between atoms: C_44  and  C_45 
REMARK   20  A    between atoms: C_44  and  C_46 
REMARK   21  A    between atoms: C_46  and  C_47 
REMARK   22  A    between atoms: C_51  and  C_52 
REMARK   23  A    between atoms: C_52  and  C_53 
REMARK   24  A    between atoms: C_55  and  C_66 
REMARK   25  A    between atoms: C_57  and  C_58 
REMARK   26  A    between atoms: C_57  and  C_64 
REMARK   27  A    between atoms: C_61  and  C_68 
REMARK   28  A    between atoms: C_61  and  C_70 
REMARK   29  A    between atoms: C_62  and  C_65 
REMARK   30  A    between atoms: C_62  and  C_75 
REMARK   31  A    between atoms: C_64  and  C_77 
REMARK   32  A    between atoms: C_65  and  C_74 
REMARK   33  A    between atoms: C_68  and  C_79 
REMARK   34  A    between atoms: C_69  and  C_76 
REMARK   35  A    between atoms: C_69  and  C_82 
ROOT
HETATM    1  C   UNK N   1      26.265  13.631   3.547  0.00  0.00     0.180 C 
ENDROOT
BRANCH   1   2
HETATM    2  N   UNK N   1      27.234  12.787   2.875  0.00  0.00    -0.346 N 
HETATM    3  C   UNK N   1      27.164  11.448   2.650  0.00  0.00     0.243 C 
HETATM    4  O   UNK N   1      28.046  10.934   1.980  0.00  0.00    -0.271 OA
HETATM    5  H   UNK N   1      28.042  13.240   2.541  0.00  0.00     0.163 HD
BRANCH   3   6
HETATM    6  C   UNK N   1      26.080  10.540   3.195  0.00  0.00     0.200 C 
BRANCH   6   7
HETATM    7  N   UNK N   1      26.532   9.469   4.062  0.00  0.00    -0.344 N 
HETATM    8  C   UNK N   1      25.664   8.826   4.881  0.00  0.00     0.241 C 
HETATM    9  O   UNK N   1      26.048   7.880   5.551  0.00  0.00    -0.271 OA
HETATM   10  H   UNK N   1      27.480   9.204   4.054  0.00  0.00     0.163 HD
BRANCH   8  11
HETATM   11  C   UNK N   1      24.238   9.302   4.964  0.00  0.00     0.181 C 
BRANCH  11  12
HETATM   12  N   UNK N   1      24.131  10.281   6.021  0.00  0.00    -0.346 N 
HETATM   13  C   UNK N   1      23.583  11.508   5.865  0.00  0.00     0.241 C 
HETATM   14  O   UNK N   1      23.345  11.953   4.750  0.00  0.00    -0.271 OA
HETATM   15  H   UNK N   1      24.478  10.040   6.911  0.00  0.00     0.163 HD
BRANCH  13  16
HETATM   16  C   UNK N   1      23.142  12.252   7.091  0.00  0.00     0.182 C 
BRANCH  16  17
HETATM   17  N   UNK N   1      22.065  13.221   6.930  0.00  0.00    -0.346 N 
HETATM   18  C   UNK N   1      22.163  14.578   6.919  0.00  0.00     0.241 C 
HETATM   19  O   UNK N   1      23.249  15.136   6.994  0.00  0.00    -0.271 OA
HETATM   20  H   UNK N   1      21.161  12.850   6.817  0.00  0.00     0.163 HD
BRANCH  18  21
HETATM   21  C   UNK N   1      20.896  15.388   6.893  0.00  0.00     0.177 A 
HETATM   22  N   UNK N   1      21.161  16.750   6.544  0.00  0.00    -0.348 N 
HETATM   23  C   UNK N   1      20.679  17.595   7.453  0.00  0.00     0.218 A 
HETATM   24  H   UNK N   1      21.641  17.029   5.731  0.00  0.00     0.163 HD
HETATM   25  O   UNK N   1      20.783  18.804   7.335  0.00  0.00    -0.274 OA
HETATM   26  C   UNK N   1      20.006  16.945   8.596  0.00  0.00     0.105 A 
HETATM   27  C   UNK N   1      20.185  15.457   8.262  0.00  0.00     0.044 A 
ENDBRANCH  18  21
ENDBRANCH  16  17
BRANCH  16  28
HETATM   28  C   UNK N   1      22.861  11.231   8.193  0.00  0.00     0.093 C 
BRANCH  28  29
HETATM   29  C   UNK N   1      23.374  11.629   9.533  0.00  0.00     0.028 A 
HETATM   30  N   UNK N   1      22.795  11.284  10.693  0.00  0.00    -0.354 N 
HETATM   31  C   UNK N   1      23.524  11.903  11.642  0.00  0.00     0.180 A 
HETATM   32  H   UNK N   1      22.009  10.705  10.822  0.00  0.00     0.166 HD
HETATM   33  N   UNK N   1      24.528  12.631  11.106  0.00  0.00    -0.360 N 
HETATM   34  C   UNK N   1      24.434  12.465   9.773  0.00  0.00     0.114 A 
ATOM     35  HN  UNK N   1      25.216  13.191  11.609  1.00  0.00     0.166 HD
ENDBRANCH  28  29
ENDBRANCH  16  28
ENDBRANCH  13  16
ENDBRANCH  11  12
BRANCH  11  36
HETATM   36  C   UNK N   1      23.168   8.222   4.969  0.00  0.00     0.075 C 
BRANCH  36  37
HETATM   37  C   UNK N   1      22.184   8.581   3.904  0.00  0.00    -0.028 A 
HETATM   38  C   UNK N   1      21.056   9.338   4.060  0.00  0.00    -0.002 A 
HETATM   39  C   UNK N   1      20.490   9.464   2.824  0.00  0.00     0.042 A 
HETATM   40  C   UNK N   1      20.501   9.931   5.191  0.00  0.00     0.014 A 
HETATM   41  N   UNK N   1      21.210   8.814   1.891  0.00  0.00    -0.365 N 
HETATM   42  C   UNK N   1      19.324  10.195   2.621  0.00  0.00     0.030 A 
HETATM   43  C   UNK N   1      22.263   8.262   2.549  0.00  0.00     0.096 A 
HETATM   44  H   UNK N   1      21.015   8.751   0.929  0.00  0.00     0.165 HD
HETATM   45  C   UNK N   1      18.732  10.806   3.743  0.00  0.00     0.002 A 
HETATM   46  C   UNK N   1      19.317  10.672   5.024  0.00  0.00     0.001 A 
ENDBRANCH  36  37
ENDBRANCH  11  36
ENDBRANCH   8  11
ENDBRANCH   6   7
BRANCH   6  47
HETATM   47  C   UNK N   1      25.229  10.006   2.035  0.00  0.00     0.199 C 
BRANCH  47  48
HETATM   48  O   UNK N   1      25.893   9.029   1.289  0.00  0.00    -0.398 OA
HETATM   49  H   UNK N   1      26.061   8.915   0.340  0.00  0.00     0.209 HD
ENDBRANCH  47  48
ENDBRANCH   6  47
ENDBRANCH   3   6
ENDBRANCH   1   2
BRANCH   1  50
HETATM   50  C   UNK N   1      26.609  14.171   4.939  0.00  0.00     0.241 C 
HETATM   51  O   UNK N   1      25.856  13.872   5.852  0.00  0.00    -0.271 OA
HETATM   52  N   UNK N   1      27.715  14.904   5.244  0.00  0.00    -0.344 N 
HETATM   53  H   UNK N   1      27.840  15.156   6.189  0.00  0.00     0.163 HD
BRANCH  52  54
HETATM   54  C   UNK N   1      28.722  15.345   4.309  0.00  0.00     0.200 C 
BRANCH  54  55
HETATM   55  C   UNK N   1      29.958  14.493   4.348  0.00  0.00     0.243 C 
HETATM   56  O   UNK N   1      30.124  13.749   5.305  0.00  0.00    -0.271 OA
HETATM   57  N   UNK N   1      30.870  14.528   3.337  0.00  0.00    -0.346 N 
HETATM   58  H   UNK N   1      30.721  15.153   2.591  0.00  0.00     0.163 HD
BRANCH  57  59
HETATM   59  C   UNK N   1      32.052  13.682   3.308  0.00  0.00     0.177 C 
BRANCH  59  60
HETATM   60  C   UNK N   1      33.280  14.537   3.048  0.00  0.00     0.241 C 
HETATM   61  O   UNK N   1      33.706  14.668   1.911  0.00  0.00    -0.271 OA
HETATM   62  N   UNK N   1      33.881  15.210   4.063  0.00  0.00    -0.346 N 
HETATM   63  H   UNK N   1      34.576  15.873   3.850  0.00  0.00     0.163 HD
BRANCH  62  64
HETATM   64  C   UNK N   1      33.530  14.981   5.451  0.00  0.00     0.176 C 
BRANCH  64  65
HETATM   65  C   UNK N   1      33.851  16.133   6.386  0.00  0.00     0.243 C 
HETATM   66  O   UNK N   1      34.993  16.568   6.371  0.00  0.00    -0.271 OA
HETATM   67  N   UNK N   1      32.902  16.742   7.165  0.00  0.00    -0.337 N 
HETATM   68  C   UNK N   1      33.143  17.970   7.886  0.00  0.00     0.181 C 
HETATM   69  C   UNK N   1      31.547  16.277   7.244  0.00  0.00     0.127 C 
HETATM   70  C   UNK N   1      31.831  18.292   8.580  0.00  0.00     0.037 C 
HETATM   71  C   UNK N   1      30.786  17.352   7.993  0.00  0.00     0.022 C 
BRANCH  68  72
HETATM   72  C   UNK N   1      34.241  17.912   8.905  0.00  0.00     0.259 C 
HETATM   73  O   UNK N   1      35.217  18.642   8.808  0.00  0.00    -0.269 OA
HETATM   74  N   UNK N   1      34.165  16.984   9.892  0.00  0.00    -0.264 N 
HETATM   75  H   UNK N   1      33.335  16.466   9.995  0.00  0.00     0.190 HD
BRANCH  74  76
HETATM   76  N   UNK N   1      35.213  16.742  10.753  0.00  0.00    -0.249 N 
HETATM   77  C   UNK N   1      35.230  15.650  11.560  0.00  0.00     0.332 C 
HETATM   78  O   UNK N   1      34.304  14.852  11.544  0.00  0.00    -0.246 OA
HETATM   79  N   UNK N   1      36.262  15.455  12.401  0.00  0.00    -0.351 N 
HETATM   80  H   UNK N   1      36.102  15.107  13.308  0.00  0.00     0.160 HD
HETATM   81  H   UNK N   1      37.178  15.662  12.108  0.00  0.00     0.160 HD
HETATM   82  H   UNK N   1      35.966  17.376  10.786  0.00  0.00     0.192 HD
ENDBRANCH  74  76
ENDBRANCH  68  72
ENDBRANCH  64  65
BRANCH  64  83
HETATM   83  C   UNK N   1      34.123  13.656   5.961  0.00  0.00     0.036 C 
BRANCH  83  84
HETATM   84  C   UNK N   1      33.683  13.304   7.379  0.00  0.00     0.023 C 
BRANCH  84  85
HETATM   85  C   UNK N   1      34.747  12.493   8.100  0.00  0.00     0.138 C 
BRANCH  85  86
HETATM   86  N   UNK N   1      34.590  12.641   9.528  0.00  0.00    -0.227 N 
HETATM   87  C   UNK N   1      34.637  11.642  10.338  0.00  0.00     0.665 C 
HETATM   88  N   UNK N   1      34.842  10.326   9.856  0.00  0.00    -0.235 N 
HETATM   89  N   UNK N   1      34.466  11.858  11.722  0.00  0.00    -0.235 N 
HETATM   90  H   UNK N   1      35.006   9.812   9.034  0.00  0.00     0.174 HD
HETATM   91  H   UNK N   1      34.810   9.703  10.618  0.00  0.00     0.174 HD
HETATM   92  H   UNK N   1      35.038  11.709  12.509  0.00  0.00     0.174 HD
HETATM   93  H   UNK N   1      33.587  12.239  11.949  0.00  0.00     0.174 HD
ATOM     94  HN  UNK N   1      34.435  13.575   9.909  1.00  0.00     0.177 HD
ENDBRANCH  85  86
ENDBRANCH  84  85
ENDBRANCH  83  84
ENDBRANCH  64  83
ENDBRANCH  62  64
ENDBRANCH  59  60
BRANCH  59  95
HETATM   95  C   UNK N   1      31.840  12.491   2.357  0.00  0.00     0.038 C 
BRANCH  95  96
HETATM   96  C   UNK N   1      31.648  11.129   3.042  0.00  0.00    -0.020 C 
HETATM   97  C   UNK N   1      31.560   9.996   2.042  0.00  0.00     0.009 C 
HETATM   98  C   UNK N   1      32.682  10.824   4.117  0.00  0.00     0.009 C 
ENDBRANCH  95  96
ENDBRANCH  59  95
ENDBRANCH  57  59
ENDBRANCH  54  55
BRANCH  54  99
HETATM   99  C   UNK N   1      29.065  16.808   4.547  0.00  0.00     0.203 C 
BRANCH  99 100
HETATM  100  O   UNK N   1      28.448  17.265   5.727  0.00  0.00    -0.379 OA
BRANCH 100 101
HETATM  101  C   UNK N   1      27.736  18.460   5.490  0.00  0.00     0.050 C 
HETATM  102  C   UNK N   1      26.313  18.165   5.042  0.00  0.00     0.045 C 
HETATM  103  C   UNK N   1      27.729  19.408   6.688  0.00  0.00     0.045 C 
HETATM  104  C   UNK N   1      28.442  19.186   4.366  0.00  0.00     0.045 C 
ENDBRANCH 100 101
ENDBRANCH  99 100
ENDBRANCH  54  99
ENDBRANCH  52  54
ENDBRANCH   1  50
BRANCH   1 105
HETATM  105  C   UNK N   1      25.777  14.739   2.602  0.00  0.00     0.073 C 
BRANCH 105 106
HETATM  106  C   UNK N   1      24.360  14.593   2.139  0.00  0.00    -0.056 A 
HETATM  107  C   UNK N   1      24.081  13.927   0.938  0.00  0.00     0.010 A 
HETATM  108  C   UNK N   1      22.758  13.754   0.521  0.00  0.00     0.037 A 
HETATM  109  C   UNK N   1      21.710  14.240   1.307  0.00  0.00     0.065 A 
HETATM  110  C   UNK N   1      21.984  14.897   2.511  0.00  0.00     0.037 A 
HETATM  111  C   UNK N   1      23.308  15.070   2.929  0.00  0.00     0.010 A 
BRANCH 109 112
HETATM  112  O   UNK N   1      20.439  14.075   0.906  0.00  0.00    -0.361 OA
HETATM  113  H   UNK N   1      19.678  14.576   1.126  0.00  0.00     0.217 HD
ENDBRANCH 109 112
ENDBRANCH 105 106
ENDBRANCH   1 105
TORSDOF 35
ENDMDL
