MODEL 1
REMARK VINA RESULT:      -8.1      0.000      0.000
REMARK  20 active torsions:
REMARK  status: ('A' for Active; 'I' for Inactive)
REMARK       I    between atoms: N_1  and  C_2 
REMARK    1  A    between atoms: C_2  and  C_3 
REMARK    2  A    between atoms: C_3  and  N_4 
REMARK       I    between atoms: N_4  and  C_5 
REMARK    3  A    between atoms: C_5  and  C_6 
REMARK    4  A    between atoms: C_6  and  N_7 
REMARK    5  A    between atoms: C_6  and  C_12 
REMARK       I    between atoms: N_7  and  C_8 
REMARK    6  A    between atoms: C_16  and  C_8 
REMARK    7  A    between atoms: C_12  and  C_13 
REMARK    8  A    between atoms: C_13  and  C_14 
REMARK    9  A    between atoms: C_14  and  N_15 
REMARK       I    between atoms: N_15  and  C_72 
REMARK       I    between atoms: N_18  and  C_21 
REMARK   10  A    between atoms: C_22  and  C_21 
REMARK   11  A    between atoms: C_25  and  C_32 
REMARK   12  A    between atoms: C_32  and  C_33 
REMARK       I    between atoms: C_33  and  N_35 
REMARK   13  A    between atoms: C_37  and  C_39 
REMARK   14  A    between atoms: C_39  and  C_40 
REMARK   15  A    between atoms: C_40  and  C_41 
REMARK       I    between atoms: C_41  and  N_42 
REMARK   16  A    between atoms: C_45  and  C_47 
REMARK   17  A    between atoms: C_48  and  C_47 
REMARK   18  A    between atoms: C_60  and  C_63 
REMARK   19  A    between atoms: C_63  and  C_65 
REMARK   20  A    between atoms: C_67  and  O_71 
REMARK       I    between atoms: C_72  and  N_75 
ROOT
HETATM    1  C   UNK N   1      25.860  13.264   3.420  0.00  0.00     0.186 C 
HETATM    2  N   UNK N   1      25.575  13.802   2.111  0.00  0.00    -0.345 N 
HETATM    3  C   UNK N   1      24.453  14.511   1.787  0.00  0.00     0.241 C 
HETATM    4  C   UNK N   1      23.396  14.953   2.795  0.00  0.00     0.185 C 
HETATM    5  N   UNK N   1      23.770  14.812   4.181  0.00  0.00    -0.346 N 
HETATM    6  C   UNK N   1      27.135  13.753   4.096  0.00  0.00     0.120 C 
HETATM    7  S   UNK N   1      28.606  12.744   3.796  0.00  0.00    -0.095 SA
HETATM    8  S   UNK N   1      28.770  13.268   1.728  0.00  0.00    -0.097 SA
HETATM    9  O   UNK N   1      24.294  14.843   0.624  0.00  0.00    -0.271 OA
HETATM   10  C   UNK N   1      24.411  15.802   4.833  0.00  0.00     0.241 C 
HETATM   11  C   UNK N   1      24.786  17.064   4.095  0.00  0.00     0.177 C 
HETATM   12  O   UNK N   1      24.647  15.679   6.026  0.00  0.00    -0.271 OA
HETATM   13  N   UNK N   1      26.194  17.333   3.847  0.00  0.00    -0.346 N 
HETATM   14  C   UNK N   1      28.625  17.442   4.199  0.00  0.00     0.180 C 
HETATM   15  C   UNK N   1      27.258  16.970   4.612  0.00  0.00     0.241 C 
HETATM   16  N   UNK N   1      31.224  14.186   3.291  0.00  0.00    -0.347 N 
HETATM   17  C   UNK N   1      31.731  12.992   2.894  0.00  0.00     0.219 C 
HETATM   18  C   UNK N   1      31.453  12.507   1.509  0.00  0.00     0.114 C 
HETATM   19  C   UNK N   1      30.021  11.973   1.418  0.00  0.00     0.095 C 
HETATM   20  C   UNK N   1      30.087  15.573   4.971  0.00  0.00     0.241 C 
HETATM   21  O   UNK N   1      29.714  15.712   6.125  0.00  0.00    -0.271 OA
HETATM   22  C   UNK N   1      31.195  14.585   4.677  0.00  0.00     0.180 C 
HETATM   23  N   UNK N   1      29.574  16.357   3.978  0.00  0.00    -0.346 N 
HETATM   24  O   UNK N   1      27.108  16.356   5.655  0.00  0.00    -0.271 OA
HETATM   25  O   UNK N   1      32.309  12.261   3.684  0.00  0.00    -0.274 OA
HETATM   26  H   UNK N   1      26.238  13.647   1.399  0.00  0.00     0.163 HD
HETATM   27  H   UNK N   1      23.551  13.979   4.660  0.00  0.00     0.163 HD
HETATM   28  H   UNK N   1      26.401  17.836   3.028  0.00  0.00     0.163 HD
HETATM   29  H   UNK N   1      30.863  14.801   2.611  0.00  0.00     0.163 HD
HETATM   30  H   UNK N   1      29.862  16.178   3.054  0.00  0.00     0.163 HD
ENDROOT
BRANCH   1  31
HETATM   31  C   UNK N   1      25.128  11.993   3.732  0.00  0.00     0.244 C 
HETATM   32  N   UNK N   1      25.228  10.853   2.981  0.00  0.00    -0.337 N 
HETATM   33  C   UNK N   1      24.359   9.735   3.189  0.00  0.00     0.179 C 
HETATM   34  C   UNK N   1      26.193  10.654   1.945  0.00  0.00     0.127 C 
HETATM   35  C   UNK N   1      24.838   8.649   2.247  0.00  0.00     0.037 C 
HETATM   36  C   UNK N   1      26.159   9.160   1.669  0.00  0.00     0.022 C 
HETATM   37  O   UNK N   1      24.340  12.020   4.671  0.00  0.00    -0.271 OA
BRANCH  33  38
HETATM   38  C   UNK N   1      22.904  10.158   3.010  0.00  0.00     0.241 C 
HETATM   39  N   UNK N   1      21.929  10.064   3.966  0.00  0.00    -0.346 N 
HETATM   40  H   UNK N   1      21.006  10.106   3.626  0.00  0.00     0.163 HD
HETATM   41  O   UNK N   1      22.576  10.535   1.899  0.00  0.00    -0.271 OA
BRANCH  39  42
HETATM   42  C   UNK N   1      22.049   9.908   5.407  0.00  0.00     0.176 C 
BRANCH  42  43
HETATM   43  C   UNK N   1      22.044   8.436   5.748  0.00  0.00     0.240 C 
HETATM   44  N   UNK N   1      23.184   7.802   6.094  0.00  0.00    -0.351 N 
HETATM   45  H   UNK N   1      24.018   8.324   6.146  0.00  0.00     0.163 HD
HETATM   46  O   UNK N   1      20.989   7.817   5.695  0.00  0.00    -0.271 OA
BRANCH  44  47
HETATM   47  C   UNK N   1      23.232   6.396   6.391  0.00  0.00     0.225 C 
BRANCH  47  48
HETATM   48  C   UNK N   1      24.114   6.194   7.571  0.00  0.00     0.233 C 
HETATM   49  N   UNK N   1      25.452   6.217   7.424  0.00  0.00    -0.369 N 
HETATM   50  H   UNK N   1      26.084   6.729   7.977  0.00  0.00     0.159 HD
HETATM   51  H   UNK N   1      25.832   5.671   6.697  0.00  0.00     0.159 HD
HETATM   52  O   UNK N   1      23.625   6.027   8.676  0.00  0.00    -0.272 OA
ENDBRANCH  47  48
ENDBRANCH  44  47
ENDBRANCH  42  43
BRANCH  42  53
HETATM   53  C   UNK N   1      21.168  10.869   6.232  0.00  0.00     0.036 C 
BRANCH  53  54
HETATM   54  C   UNK N   1      21.930  11.800   7.181  0.00  0.00     0.023 C 
BRANCH  54  55
HETATM   55  C   UNK N   1      23.191  11.124   7.713  0.00  0.00     0.138 C 
BRANCH  55  56
HETATM   56  N   UNK N   1      23.782  11.854   8.818  0.00  0.00    -0.227 N 
HETATM   57  C   UNK N   1      24.725  12.906   8.646  0.00  0.00     0.665 C 
HETATM   58  N   UNK N   1      25.170  13.201   7.480  0.00  0.00    -0.235 N 
HETATM   59  N   UNK N   1      25.157  13.650   9.766  0.00  0.00    -0.235 N 
HETATM   60  H   UNK N   1      25.290  13.912   6.810  0.00  0.00     0.174 HD
ATOM     61  HN  UNK N   1      25.562  12.347   7.084  1.00  0.00     0.174 HD
HETATM   62  H   UNK N   1      24.776  13.872  10.646  0.00  0.00     0.174 HD
HETATM   63  H   UNK N   1      26.051  14.041   9.635  0.00  0.00     0.174 HD
HETATM   64  H   UNK N   1      23.517  11.611   9.735  0.00  0.00     0.177 HD
ENDBRANCH  55  56
ENDBRANCH  54  55
ENDBRANCH  53  54
ENDBRANCH  42  53
ENDBRANCH  39  42
ENDBRANCH  33  38
ENDBRANCH   1  31
BRANCH   4  65
HETATM   65  C   UNK N   1      22.010  14.368   2.535  0.00  0.00     0.137 C 
BRANCH  65  66
HETATM   66  C   UNK N   1      20.934  15.386   2.784  0.00  0.00     0.217 C 
HETATM   67  O   UNK N   1      21.234  16.507   3.159  0.00  0.00    -0.274 OA
HETATM   68  N   UNK N   1      19.638  15.074   2.577  0.00  0.00    -0.370 N 
HETATM   69  H   UNK N   1      18.944  15.151   3.271  0.00  0.00     0.159 HD
HETATM   70  H   UNK N   1      19.372  14.751   1.686  0.00  0.00     0.159 HD
ENDBRANCH  65  66
ENDBRANCH   4  65
BRANCH  11  71
HETATM   71  C   UNK N   1      23.977  18.306   4.444  0.00  0.00     0.044 C 
BRANCH  71  72
HETATM   72  C   UNK N   1      24.284  19.484   3.538  0.00  0.00     0.105 C 
BRANCH  72  73
HETATM   73  C   UNK N   1      23.013  20.165   3.158  0.00  0.00     0.215 C 
HETATM   74  N   UNK N   1      21.853  19.481   3.150  0.00  0.00    -0.370 N 
HETATM   75  H   UNK N   1      20.921  19.637   3.423  0.00  0.00     0.159 HD
HETATM   76  H   UNK N   1      21.969  18.581   2.766  0.00  0.00     0.159 HD
HETATM   77  O   UNK N   1      23.024  21.346   2.854  0.00  0.00    -0.274 OA
ENDBRANCH  72  73
ENDBRANCH  71  72
ENDBRANCH  11  71
BRANCH  22  78
HETATM   78  C   UNK N   1      32.583  14.976   5.211  0.00  0.00     0.073 C 
BRANCH  78  79
HETATM   79  C   UNK N   1      32.657  14.974   6.703  0.00  0.00    -0.056 A 
HETATM   80  C   UNK N   1      32.794  16.188   7.390  0.00  0.00     0.010 A 
HETATM   81  C   UNK N   1      32.908  16.201   8.779  0.00  0.00     0.037 A 
HETATM   82  C   UNK N   1      32.881  15.001   9.490  0.00  0.00     0.065 A 
HETATM   83  C   UNK N   1      32.728  13.787   8.811  0.00  0.00     0.037 A 
HETATM   84  C   UNK N   1      32.617  13.773   7.416  0.00  0.00     0.010 A 
BRANCH  82  85
HETATM   85  O   UNK N   1      33.002  15.014  10.827  0.00  0.00    -0.361 OA
HETATM   86  H   UNK N   1      33.609  14.506  11.325  0.00  0.00     0.217 HD
ENDBRANCH  82  85
ENDBRANCH  78  79
ENDBRANCH  22  78
BRANCH  14  87
HETATM   87  C   UNK N   1      29.226  18.496   5.144  0.00  0.00     0.073 C 
BRANCH  87  88
HETATM   88  C   UNK N   1      28.235  19.484   5.678  0.00  0.00    -0.056 A 
HETATM   89  C   UNK N   1      27.668  20.440   4.830  0.00  0.00     0.007 A 
HETATM   90  C   UNK N   1      26.758  21.374   5.338  0.00  0.00     0.001 A 
HETATM   91  C   UNK N   1      26.421  21.360   6.695  0.00  0.00     0.000 A 
HETATM   92  C   UNK N   1      26.998  20.415   7.547  0.00  0.00     0.001 A 
HETATM   93  C   UNK N   1      27.904  19.482   7.040  0.00  0.00     0.007 A 
ENDBRANCH  87  88
ENDBRANCH  14  87
TORSDOF 20
ENDMDL
MODEL 2
REMARK VINA RESULT:      -8.1      1.113      2.589
REMARK  20 active torsions:
REMARK  status: ('A' for Active; 'I' for Inactive)
REMARK       I    between atoms: N_1  and  C_2 
REMARK    1  A    between atoms: C_2  and  C_3 
REMARK    2  A    between atoms: C_3  and  N_4 
REMARK       I    between atoms: N_4  and  C_5 
REMARK    3  A    between atoms: C_5  and  C_6 
REMARK    4  A    between atoms: C_6  and  N_7 
REMARK    5  A    between atoms: C_6  and  C_12 
REMARK       I    between atoms: N_7  and  C_8 
REMARK    6  A    between atoms: C_16  and  C_8 
REMARK    7  A    between atoms: C_12  and  C_13 
REMARK    8  A    between atoms: C_13  and  C_14 
REMARK    9  A    between atoms: C_14  and  N_15 
REMARK       I    between atoms: N_15  and  C_72 
REMARK       I    between atoms: N_18  and  C_21 
REMARK   10  A    between atoms: C_22  and  C_21 
REMARK   11  A    between atoms: C_25  and  C_32 
REMARK   12  A    between atoms: C_32  and  C_33 
REMARK       I    between atoms: C_33  and  N_35 
REMARK   13  A    between atoms: C_37  and  C_39 
REMARK   14  A    between atoms: C_39  and  C_40 
REMARK   15  A    between atoms: C_40  and  C_41 
REMARK       I    between atoms: C_41  and  N_42 
REMARK   16  A    between atoms: C_45  and  C_47 
REMARK   17  A    between atoms: C_48  and  C_47 
REMARK   18  A    between atoms: C_60  and  C_63 
REMARK   19  A    between atoms: C_63  and  C_65 
REMARK   20  A    between atoms: C_67  and  O_71 
REMARK       I    between atoms: C_72  and  N_75 
ROOT
HETATM    1  C   UNK N   1      25.617  13.240   3.701  0.00  0.00     0.186 C 
HETATM    2  N   UNK N   1      25.304  13.717   2.375  0.00  0.00    -0.345 N 
HETATM    3  C   UNK N   1      24.179  14.419   2.045  0.00  0.00     0.241 C 
HETATM    4  C   UNK N   1      23.150  14.917   3.055  0.00  0.00     0.185 C 
HETATM    5  N   UNK N   1      23.557  14.841   4.437  0.00  0.00    -0.346 N 
HETATM    6  C   UNK N   1      26.911  13.751   4.321  0.00  0.00     0.120 C 
HETATM    7  S   UNK N   1      28.368  12.717   4.035  0.00  0.00    -0.095 SA
HETATM    8  S   UNK N   1      28.484  13.138   1.941  0.00  0.00    -0.097 SA
HETATM    9  O   UNK N   1      23.993  14.695   0.871  0.00  0.00    -0.271 OA
HETATM   10  C   UNK N   1      24.222  15.856   5.024  0.00  0.00     0.241 C 
HETATM   11  C   UNK N   1      24.587  17.077   4.216  0.00  0.00     0.177 C 
HETATM   12  O   UNK N   1      24.486  15.789   6.215  0.00  0.00    -0.271 OA
HETATM   13  N   UNK N   1      25.990  17.322   3.922  0.00  0.00    -0.346 N 
HETATM   14  C   UNK N   1      28.430  17.428   4.208  0.00  0.00     0.180 C 
HETATM   15  C   UNK N   1      27.070  16.989   4.677  0.00  0.00     0.241 C 
HETATM   16  N   UNK N   1      30.983  14.110   3.396  0.00  0.00    -0.347 N 
HETATM   17  C   UNK N   1      31.471  12.894   3.045  0.00  0.00     0.219 C 
HETATM   18  C   UNK N   1      31.156  12.345   1.694  0.00  0.00     0.114 C 
HETATM   19  C   UNK N   1      29.718  11.820   1.663  0.00  0.00     0.095 C 
HETATM   20  C   UNK N   1      29.897  15.587   5.034  0.00  0.00     0.241 C 
HETATM   21  O   UNK N   1      29.554  15.785   6.189  0.00  0.00    -0.271 OA
HETATM   22  C   UNK N   1      30.991  14.577   4.762  0.00  0.00     0.180 C 
HETATM   23  N   UNK N   1      29.365  16.326   4.017  0.00  0.00    -0.346 N 
HETATM   24  O   UNK N   1      26.942  16.427   5.752  0.00  0.00    -0.271 OA
HETATM   25  O   UNK N   1      32.064  12.198   3.856  0.00  0.00    -0.274 OA
HETATM   26  H   UNK N   1      25.947  13.522   1.655  0.00  0.00     0.163 HD
HETATM   27  H   UNK N   1      23.344  14.034   4.961  0.00  0.00     0.163 HD
HETATM   28  H   UNK N   1      26.180  17.784   3.074  0.00  0.00     0.163 HD
HETATM   29  H   UNK N   1      30.609  14.695   2.696  0.00  0.00     0.163 HD
HETATM   30  H   UNK N   1      29.629  16.100   3.096  0.00  0.00     0.163 HD
ENDROOT
BRANCH   1  31
HETATM   31  C   UNK N   1      24.884  11.992   4.093  0.00  0.00     0.244 C 
HETATM   32  N   UNK N   1      24.879  10.847   3.344  0.00  0.00    -0.337 N 
HETATM   33  C   UNK N   1      24.003   9.755   3.644  0.00  0.00     0.179 C 
HETATM   34  C   UNK N   1      25.732  10.615   2.221  0.00  0.00     0.127 C 
HETATM   35  C   UNK N   1      24.358   8.650   2.668  0.00  0.00     0.037 C 
HETATM   36  C   UNK N   1      25.630   9.121   1.960  0.00  0.00     0.022 C 
HETATM   37  O   UNK N   1      24.192  12.046   5.103  0.00  0.00    -0.271 OA
BRANCH  33  38
HETATM   38  C   UNK N   1      22.551  10.218   3.604  0.00  0.00     0.241 C 
HETATM   39  N   UNK N   1      21.643  10.063   4.617  0.00  0.00    -0.346 N 
HETATM   40  H   UNK N   1      20.699  10.151   4.349  0.00  0.00     0.163 HD
HETATM   41  O   UNK N   1      22.154  10.691   2.553  0.00  0.00    -0.271 OA
BRANCH  39  42
HETATM   42  C   UNK N   1      21.859   9.788   6.029  0.00  0.00     0.176 C 
BRANCH  42  43
HETATM   43  C   UNK N   1      21.848  11.091   6.794  0.00  0.00     0.240 C 
HETATM   44  N   UNK N   1      22.877  11.429   7.598  0.00  0.00    -0.351 N 
HETATM   45  H   UNK N   1      23.651  10.822   7.657  0.00  0.00     0.163 HD
HETATM   46  O   UNK N   1      20.883  11.836   6.685  0.00  0.00    -0.271 OA
BRANCH  44  47
HETATM   47  C   UNK N   1      22.892  12.641   8.372  0.00  0.00     0.225 C 
BRANCH  47  48
HETATM   48  C   UNK N   1      24.308  13.021   8.623  0.00  0.00     0.233 C 
HETATM   49  N   UNK N   1      25.126  13.293   7.589  0.00  0.00    -0.369 N 
HETATM   50  H   UNK N   1      25.710  14.080   7.508  0.00  0.00     0.159 HD
HETATM   51  H   UNK N   1      25.140  12.645   6.847  0.00  0.00     0.159 HD
HETATM   52  O   UNK N   1      24.723  13.105   9.768  0.00  0.00    -0.272 OA
ENDBRANCH  47  48
ENDBRANCH  44  47
ENDBRANCH  42  43
BRANCH  42  53
HETATM   53  C   UNK N   1      22.971   8.760   6.319  0.00  0.00     0.036 C 
BRANCH  53  54
HETATM   54  C   UNK N   1      22.512   7.299   6.371  0.00  0.00     0.023 C 
BRANCH  54  55
HETATM   55  C   UNK N   1      23.615   6.364   5.883  0.00  0.00     0.138 C 
BRANCH  55  56
HETATM   56  N   UNK N   1      24.898   6.662   6.489  0.00  0.00    -0.227 N 
HETATM   57  C   UNK N   1      25.293   6.172   7.766  0.00  0.00     0.665 C 
HETATM   58  N   UNK N   1      24.475   5.501   8.491  0.00  0.00    -0.235 N 
HETATM   59  N   UNK N   1      26.607   6.403   8.230  0.00  0.00    -0.235 N 
HETATM   60  H   UNK N   1      24.320   4.662   8.981  0.00  0.00     0.174 HD
ATOM     61  HN  UNK N   1      23.639   6.074   8.608  1.00  0.00     0.174 HD
HETATM   62  H   UNK N   1      27.480   6.563   7.804  0.00  0.00     0.174 HD
HETATM   63  H   UNK N   1      26.663   6.404   9.213  0.00  0.00     0.174 HD
HETATM   64  H   UNK N   1      25.530   7.232   5.993  0.00  0.00     0.177 HD
ENDBRANCH  55  56
ENDBRANCH  54  55
ENDBRANCH  53  54
ENDBRANCH  42  53
ENDBRANCH  39  42
ENDBRANCH  33  38
ENDBRANCH   1  31
BRANCH   4  65
HETATM   65  C   UNK N   1      21.754  14.332   2.858  0.00  0.00     0.137 C 
BRANCH  65  66
HETATM   66  C   UNK N   1      20.718  15.415   2.763  0.00  0.00     0.217 C 
HETATM   67  O   UNK N   1      21.009  16.492   2.271  0.00  0.00    -0.274 OA
HETATM   68  N   UNK N   1      19.461  15.198   3.202  0.00  0.00    -0.370 N 
HETATM   69  H   UNK N   1      19.019  15.757   3.881  0.00  0.00     0.159 HD
HETATM   70  H   UNK N   1      18.959  14.440   2.823  0.00  0.00     0.159 HD
ENDBRANCH  65  66
ENDBRANCH   4  65
BRANCH  11  71
HETATM   71  C   UNK N   1      23.796  18.342   4.524  0.00  0.00     0.044 C 
BRANCH  71  72
HETATM   72  C   UNK N   1      24.083  19.469   3.550  0.00  0.00     0.105 C 
BRANCH  72  73
HETATM   73  C   UNK N   1      22.798  20.082   3.104  0.00  0.00     0.215 C 
HETATM   74  N   UNK N   1      21.690  19.325   2.988  0.00  0.00    -0.370 N 
HETATM   75  H   UNK N   1      20.733  19.410   3.199  0.00  0.00     0.159 HD
HETATM   76  H   UNK N   1      21.892  18.451   2.581  0.00  0.00     0.159 HD
HETATM   77  O   UNK N   1      22.751  21.273   2.845  0.00  0.00    -0.274 OA
ENDBRANCH  72  73
ENDBRANCH  71  72
ENDBRANCH  11  71
BRANCH  22  78
HETATM   78  C   UNK N   1      32.394  14.981   5.242  0.00  0.00     0.073 C 
BRANCH  78  79
HETATM   79  C   UNK N   1      32.532  14.963   6.730  0.00  0.00    -0.056 A 
HETATM   80  C   UNK N   1      32.655  16.171   7.427  0.00  0.00     0.010 A 
HETATM   81  C   UNK N   1      32.827  16.170   8.811  0.00  0.00     0.037 A 
HETATM   82  C   UNK N   1      32.871  14.961   9.505  0.00  0.00     0.065 A 
HETATM   83  C   UNK N   1      32.731  13.751   8.815  0.00  0.00     0.037 A 
HETATM   84  C   UNK N   1      32.562  13.751   7.426  0.00  0.00     0.010 A 
BRANCH  82  85
HETATM   85  O   UNK N   1      33.048  14.961  10.835  0.00  0.00    -0.361 OA
HETATM   86  H   UNK N   1      32.835  14.257  11.414  0.00  0.00     0.217 HD
ENDBRANCH  82  85
ENDBRANCH  78  79
ENDBRANCH  22  78
BRANCH  14  87
HETATM   87  C   UNK N   1      29.062  18.522   5.086  0.00  0.00     0.073 C 
BRANCH  87  88
HETATM   88  C   UNK N   1      28.095  19.555   5.578  0.00  0.00    -0.056 A 
HETATM   89  C   UNK N   1      27.518  20.462   4.684  0.00  0.00     0.007 A 
HETATM   90  C   UNK N   1      26.631  21.437   5.152  0.00  0.00     0.001 A 
HETATM   91  C   UNK N   1      26.327  21.514   6.515  0.00  0.00     0.000 A 
HETATM   92  C   UNK N   1      26.914  20.619   7.412  0.00  0.00     0.001 A 
HETATM   93  C   UNK N   1      27.797  19.644   6.944  0.00  0.00     0.007 A 
ENDBRANCH  87  88
ENDBRANCH  14  87
TORSDOF 20
ENDMDL
MODEL 3
REMARK VINA RESULT:      -8.0      1.754      2.111
REMARK  20 active torsions:
REMARK  status: ('A' for Active; 'I' for Inactive)
REMARK       I    between atoms: N_1  and  C_2 
REMARK    1  A    between atoms: C_2  and  C_3 
REMARK    2  A    between atoms: C_3  and  N_4 
REMARK       I    between atoms: N_4  and  C_5 
REMARK    3  A    between atoms: C_5  and  C_6 
REMARK    4  A    between atoms: C_6  and  N_7 
REMARK    5  A    between atoms: C_6  and  C_12 
REMARK       I    between atoms: N_7  and  C_8 
REMARK    6  A    between atoms: C_16  and  C_8 
REMARK    7  A    between atoms: C_12  and  C_13 
REMARK    8  A    between atoms: C_13  and  C_14 
REMARK    9  A    between atoms: C_14  and  N_15 
REMARK       I    between atoms: N_15  and  C_72 
REMARK       I    between atoms: N_18  and  C_21 
REMARK   10  A    between atoms: C_22  and  C_21 
REMARK   11  A    between atoms: C_25  and  C_32 
REMARK   12  A    between atoms: C_32  and  C_33 
REMARK       I    between atoms: C_33  and  N_35 
REMARK   13  A    between atoms: C_37  and  C_39 
REMARK   14  A    between atoms: C_39  and  C_40 
REMARK   15  A    between atoms: C_40  and  C_41 
REMARK       I    between atoms: C_41  and  N_42 
REMARK   16  A    between atoms: C_45  and  C_47 
REMARK   17  A    between atoms: C_48  and  C_47 
REMARK   18  A    between atoms: C_60  and  C_63 
REMARK   19  A    between atoms: C_63  and  C_65 
REMARK   20  A    between atoms: C_67  and  O_71 
REMARK       I    between atoms: C_72  and  N_75 
ROOT
HETATM    1  C   UNK N   1      26.978  12.693   4.019  0.00  0.00     0.186 C 
HETATM    2  N   UNK N   1      26.435  12.984   2.714  0.00  0.00    -0.345 N 
HETATM    3  C   UNK N   1      25.159  13.411   2.478  0.00  0.00     0.241 C 
HETATM    4  C   UNK N   1      24.158  13.771   3.572  0.00  0.00     0.185 C 
HETATM    5  N   UNK N   1      24.712  13.894   4.898  0.00  0.00    -0.346 N 
HETATM    6  C   UNK N   1      28.191  13.507   4.451  0.00  0.00     0.120 C 
HETATM    7  S   UNK N   1      29.796  12.772   4.056  0.00  0.00    -0.095 SA
HETATM    8  S   UNK N   1      29.603  13.034   1.941  0.00  0.00    -0.097 SA
HETATM    9  O   UNK N   1      24.799  13.547   1.320  0.00  0.00    -0.271 OA
HETATM   10  C   UNK N   1      25.203  15.068   5.341  0.00  0.00     0.241 C 
HETATM   11  C   UNK N   1      25.215  16.267   4.425  0.00  0.00     0.177 C 
HETATM   12  O   UNK N   1      25.597  15.155   6.494  0.00  0.00    -0.271 OA
HETATM   13  N   UNK N   1      26.496  16.769   3.952  0.00  0.00    -0.346 N 
HETATM   14  C   UNK N   1      28.874  17.395   3.942  0.00  0.00     0.180 C 
HETATM   15  C   UNK N   1      27.694  16.727   4.593  0.00  0.00     0.241 C 
HETATM   16  N   UNK N   1      31.975  14.614   3.031  0.00  0.00    -0.347 N 
HETATM   17  C   UNK N   1      32.672  13.498   2.697  0.00  0.00     0.219 C 
HETATM   18  C   UNK N   1      32.342  12.787   1.427  0.00  0.00     0.114 C 
HETATM   19  C   UNK N   1      31.054  11.978   1.598  0.00  0.00     0.095 C 
HETATM   20  C   UNK N   1      30.776  15.967   4.696  0.00  0.00     0.241 C 
HETATM   21  O   UNK N   1      30.520  16.186   5.869  0.00  0.00    -0.271 OA
HETATM   22  C   UNK N   1      32.025  15.183   4.356  0.00  0.00     0.180 C 
HETATM   23  N   UNK N   1      29.997  16.495   3.707  0.00  0.00    -0.346 N 
HETATM   24  O   UNK N   1      27.800  16.241   5.707  0.00  0.00    -0.271 OA
HETATM   25  O   UNK N   1      33.479  13.007   3.472  0.00  0.00    -0.274 OA
HETATM   26  H   UNK N   1      27.027  12.866   1.936  0.00  0.00     0.163 HD
HETATM   27  H   UNK N   1      24.731  13.106   5.490  0.00  0.00     0.163 HD
HETATM   28  H   UNK N   1      26.495  17.188   3.062  0.00  0.00     0.163 HD
HETATM   29  H   UNK N   1      31.416  15.049   2.347  0.00  0.00     0.163 HD
HETATM   30  H   UNK N   1      30.206  16.252   2.776  0.00  0.00     0.163 HD
ENDROOT
BRANCH   1  31
HETATM   31  C   UNK N   1      26.571  11.358   4.569  0.00  0.00     0.244 C 
HETATM   32  N   UNK N   1      26.810  10.170   3.933  0.00  0.00    -0.337 N 
HETATM   33  C   UNK N   1      26.224   8.944   4.383  0.00  0.00     0.179 C 
HETATM   34  C   UNK N   1      27.655  10.024   2.790  0.00  0.00     0.127 C 
HETATM   35  C   UNK N   1      26.796   7.854   3.498  0.00  0.00     0.037 C 
HETATM   36  C   UNK N   1      27.897   8.528   2.677  0.00  0.00     0.022 C 
HETATM   37  O   UNK N   1      25.920  11.357   5.607  0.00  0.00    -0.271 OA
BRANCH  33  38
HETATM   38  C   UNK N   1      24.703   9.054   4.383  0.00  0.00     0.241 C 
HETATM   39  N   UNK N   1      23.895   8.848   5.467  0.00  0.00    -0.346 N 
HETATM   40  H   UNK N   1      22.948   8.679   5.257  0.00  0.00     0.163 HD
HETATM   41  O   UNK N   1      24.169   9.264   3.308  0.00  0.00    -0.271 OA
BRANCH  39  42
HETATM   42  C   UNK N   1      24.221   8.840   6.885  0.00  0.00     0.176 C 
BRANCH  42  43
HETATM   43  C   UNK N   1      24.378   7.411   7.349  0.00  0.00     0.240 C 
HETATM   44  N   UNK N   1      25.576   6.793   7.294  0.00  0.00    -0.351 N 
HETATM   45  H   UNK N   1      26.355   7.301   6.969  0.00  0.00     0.163 HD
HETATM   46  O   UNK N   1      23.396   6.811   7.768  0.00  0.00    -0.271 OA
BRANCH  44  47
HETATM   47  C   UNK N   1      25.763   5.424   7.690  0.00  0.00     0.225 C 
BRANCH  47  48
HETATM   48  C   UNK N   1      26.667   5.395   8.870  0.00  0.00     0.233 C 
HETATM   49  N   UNK N   1      27.659   6.298   8.980  0.00  0.00    -0.369 N 
HETATM   50  H   UNK N   1      27.860   6.839   9.777  0.00  0.00     0.159 HD
HETATM   51  H   UNK N   1      28.236   6.429   8.192  0.00  0.00     0.159 HD
HETATM   52  O   UNK N   1      26.499   4.564   9.748  0.00  0.00    -0.272 OA
ENDBRANCH  47  48
ENDBRANCH  44  47
ENDBRANCH  42  43
BRANCH  42  53
HETATM   53  C   UNK N   1      23.388   9.816   7.741  0.00  0.00     0.036 C 
BRANCH  53  54
HETATM   54  C   UNK N   1      22.934  11.091   7.022  0.00  0.00     0.023 C 
BRANCH  54  55
HETATM   55  C   UNK N   1      22.641  12.206   8.022  0.00  0.00     0.138 C 
BRANCH  55  56
HETATM   56  N   UNK N   1      23.323  12.005   9.286  0.00  0.00    -0.227 N 
HETATM   57  C   UNK N   1      24.521  12.684   9.645  0.00  0.00     0.665 C 
HETATM   58  N   UNK N   1      25.111  13.456   8.808  0.00  0.00    -0.235 N 
HETATM   59  N   UNK N   1      25.053  12.527  10.944  0.00  0.00    -0.235 N 
HETATM   60  H   UNK N   1      25.464  14.359   8.642  0.00  0.00     0.174 HD
ATOM     61  HN  UNK N   1      25.291  12.906   7.968  1.00  0.00     0.174 HD
HETATM   62  H   UNK N   1      24.682  12.305  11.828  0.00  0.00     0.174 HD
HETATM   63  H   UNK N   1      26.026  12.676  10.972  0.00  0.00     0.174 HD
HETATM   64  H   UNK N   1      22.937  11.367   9.929  0.00  0.00     0.177 HD
ENDBRANCH  55  56
ENDBRANCH  54  55
ENDBRANCH  53  54
ENDBRANCH  42  53
ENDBRANCH  39  42
ENDBRANCH  33  38
ENDBRANCH   1  31
BRANCH   4  65
HETATM   65  C   UNK N   1      22.905  12.899   3.576  0.00  0.00     0.137 C 
BRANCH  65  66
HETATM   66  C   UNK N   1      21.711  13.657   3.069  0.00  0.00     0.217 C 
HETATM   67  O   UNK N   1      20.762  13.856   3.808  0.00  0.00    -0.274 OA
HETATM   68  N   UNK N   1      21.691  14.134   1.808  0.00  0.00    -0.370 N 
HETATM   69  H   UNK N   1      20.989  13.911   1.155  0.00  0.00     0.159 HD
HETATM   70  H   UNK N   1      22.415  14.738   1.526  0.00  0.00     0.159 HD
ENDBRANCH  65  66
ENDBRANCH   4  65
BRANCH  11  71
HETATM   71  C   UNK N   1      24.209  17.364   4.749  0.00  0.00     0.044 C 
BRANCH  71  72
HETATM   72  C   UNK N   1      22.774  16.943   4.493  0.00  0.00     0.105 C 
BRANCH  72  73
HETATM   73  C   UNK N   1      22.045  16.845   5.791  0.00  0.00     0.215 C 
HETATM   74  N   UNK N   1      21.504  15.674   6.178  0.00  0.00    -0.370 N 
HETATM   75  H   UNK N   1      21.426  15.155   7.011  0.00  0.00     0.159 HD
HETATM   76  H   UNK N   1      21.068  15.213   5.425  0.00  0.00     0.159 HD
HETATM   77  O   UNK N   1      21.939  17.829   6.504  0.00  0.00    -0.274 OA
ENDBRANCH  72  73
ENDBRANCH  71  72
ENDBRANCH  11  71
BRANCH  22  78
HETATM   78  C   UNK N   1      33.353  15.904   4.642  0.00  0.00     0.073 C 
BRANCH  78  79
HETATM   79  C   UNK N   1      33.558  16.199   6.092  0.00  0.00    -0.056 A 
HETATM   80  C   UNK N   1      33.695  17.527   6.515  0.00  0.00     0.010 A 
HETATM   81  C   UNK N   1      33.930  17.817   7.858  0.00  0.00     0.037 A 
HETATM   82  C   UNK N   1      34.023  16.781   8.787  0.00  0.00     0.065 A 
HETATM   83  C   UNK N   1      33.870  15.452   8.373  0.00  0.00     0.037 A 
HETATM   84  C   UNK N   1      33.638  15.160   7.024  0.00  0.00     0.010 A 
BRANCH  82  85
HETATM   85  O   UNK N   1      34.260  17.060  10.078  0.00  0.00    -0.361 OA
HETATM   86  H   UNK N   1      33.665  16.918  10.786  0.00  0.00     0.217 HD
ENDBRANCH  82  85
ENDBRANCH  78  79
ENDBRANCH  22  78
BRANCH  14  87
HETATM   87  C   UNK N   1      29.346  18.663   4.672  0.00  0.00     0.073 C 
BRANCH  87  88
HETATM   88  C   UNK N   1      28.238  19.561   5.131  0.00  0.00    -0.056 A 
HETATM   89  C   UNK N   1      28.005  19.751   6.496  0.00  0.00     0.007 A 
HETATM   90  C   UNK N   1      26.957  20.575   6.920  0.00  0.00     0.001 A 
HETATM   91  C   UNK N   1      26.133  21.201   5.979  0.00  0.00     0.000 A 
HETATM   92  C   UNK N   1      26.354  21.001   4.614  0.00  0.00     0.001 A 
HETATM   93  C   UNK N   1      27.402  20.181   4.192  0.00  0.00     0.007 A 
ENDBRANCH  87  88
ENDBRANCH  14  87
TORSDOF 20
ENDMDL
MODEL 4
REMARK VINA RESULT:      -7.9      3.760     10.953
REMARK  20 active torsions:
REMARK  status: ('A' for Active; 'I' for Inactive)
REMARK       I    between atoms: N_1  and  C_2 
REMARK    1  A    between atoms: C_2  and  C_3 
REMARK    2  A    between atoms: C_3  and  N_4 
REMARK       I    between atoms: N_4  and  C_5 
REMARK    3  A    between atoms: C_5  and  C_6 
REMARK    4  A    between atoms: C_6  and  N_7 
REMARK    5  A    between atoms: C_6  and  C_12 
REMARK       I    between atoms: N_7  and  C_8 
REMARK    6  A    between atoms: C_16  and  C_8 
REMARK    7  A    between atoms: C_12  and  C_13 
REMARK    8  A    between atoms: C_13  and  C_14 
REMARK    9  A    between atoms: C_14  and  N_15 
REMARK       I    between atoms: N_15  and  C_72 
REMARK       I    between atoms: N_18  and  C_21 
REMARK   10  A    between atoms: C_22  and  C_21 
REMARK   11  A    between atoms: C_25  and  C_32 
REMARK   12  A    between atoms: C_32  and  C_33 
REMARK       I    between atoms: C_33  and  N_35 
REMARK   13  A    between atoms: C_37  and  C_39 
REMARK   14  A    between atoms: C_39  and  C_40 
REMARK   15  A    between atoms: C_40  and  C_41 
REMARK       I    between atoms: C_41  and  N_42 
REMARK   16  A    between atoms: C_45  and  C_47 
REMARK   17  A    between atoms: C_48  and  C_47 
REMARK   18  A    between atoms: C_60  and  C_63 
REMARK   19  A    between atoms: C_63  and  C_65 
REMARK   20  A    between atoms: C_67  and  O_71 
REMARK       I    between atoms: C_72  and  N_75 
ROOT
HETATM    1  C   UNK N   1      29.928  15.180   5.148  0.00  0.00     0.186 C 
HETATM    2  N   UNK N   1      30.342  15.973   4.016  0.00  0.00    -0.345 N 
HETATM    3  C   UNK N   1      31.444  15.720   3.248  0.00  0.00     0.241 C 
HETATM    4  C   UNK N   1      32.325  14.484   3.392  0.00  0.00     0.185 C 
HETATM    5  N   UNK N   1      31.785  13.435   4.223  0.00  0.00    -0.346 N 
HETATM    6  C   UNK N   1      28.544  14.546   5.067  0.00  0.00     0.120 C 
HETATM    7  S   UNK N   1      27.201  15.533   5.771  0.00  0.00    -0.095 SA
HETATM    8  S   UNK N   1      27.272  17.045   4.259  0.00  0.00    -0.097 SA
HETATM    9  O   UNK N   1      31.729  16.514   2.367  0.00  0.00    -0.271 OA
HETATM   10  C   UNK N   1      30.994  12.474   3.704  0.00  0.00     0.241 C 
HETATM   11  C   UNK N   1      30.630  12.515   2.240  0.00  0.00     0.177 C 
HETATM   12  O   UNK N   1      30.615  11.561   4.420  0.00  0.00    -0.271 OA
HETATM   13  N   UNK N   1      29.251  12.798   1.873  0.00  0.00    -0.346 N 
HETATM   14  C   UNK N   1      26.793  12.806   1.946  0.00  0.00     0.180 C 
HETATM   15  C   UNK N   1      28.125  12.492   2.571  0.00  0.00     0.241 C 
HETATM   16  N   UNK N   1      24.575  15.619   4.259  0.00  0.00    -0.347 N 
HETATM   17  C   UNK N   1      24.211  16.638   5.077  0.00  0.00     0.219 C 
HETATM   18  C   UNK N   1      24.701  18.017   4.784  0.00  0.00     0.114 C 
HETATM   19  C   UNK N   1      26.167  18.153   5.203  0.00  0.00     0.095 C 
HETATM   20  C   UNK N   1      25.381  13.319   3.938  0.00  0.00     0.241 C 
HETATM   21  O   UNK N   1      25.588  12.214   4.413  0.00  0.00    -0.271 OA
HETATM   22  C   UNK N   1      24.394  14.236   4.628  0.00  0.00     0.180 C 
HETATM   23  N   UNK N   1      25.962  13.687   2.758  0.00  0.00    -0.346 N 
HETATM   24  O   UNK N   1      28.180  11.897   3.634  0.00  0.00    -0.271 OA
HETATM   25  O   UNK N   1      23.588  16.426   6.106  0.00  0.00    -0.274 OA
HETATM   26  H   UNK N   1      29.791  16.755   3.780  0.00  0.00     0.163 HD
HETATM   27  H   UNK N   1      31.998  13.420   5.184  0.00  0.00     0.163 HD
HETATM   28  H   UNK N   1      29.118  13.268   1.020  0.00  0.00     0.163 HD
HETATM   29  H   UNK N   1      24.976  15.829   3.384  0.00  0.00     0.163 HD
HETATM   30  H   UNK N   1      25.811  14.604   2.436  0.00  0.00     0.163 HD
ENDROOT
BRANCH   1  31
HETATM   31  C   UNK N   1      30.702  15.451   6.403  0.00  0.00     0.244 C 
HETATM   32  N   UNK N   1      30.560  16.588   7.152  0.00  0.00    -0.337 N 
HETATM   33  C   UNK N   1      31.460  16.903   8.220  0.00  0.00     0.179 C 
HETATM   34  C   UNK N   1      29.520  17.551   6.966  0.00  0.00     0.127 C 
HETATM   35  C   UNK N   1      30.925  18.168   8.862  0.00  0.00     0.037 C 
HETATM   36  C   UNK N   1      29.555  18.404   8.223  0.00  0.00     0.022 C 
HETATM   37  O   UNK N   1      31.560  14.635   6.717  0.00  0.00    -0.271 OA
BRANCH  33  38
HETATM   38  C   UNK N   1      32.889  16.993   7.695  0.00  0.00     0.241 C 
HETATM   39  N   UNK N   1      33.980  16.389   8.260  0.00  0.00    -0.346 N 
HETATM   40  H   UNK N   1      34.851  16.758   7.986  0.00  0.00     0.163 HD
HETATM   41  O   UNK N   1      33.078  17.728   6.742  0.00  0.00    -0.271 OA
BRANCH  39  42
HETATM   42  C   UNK N   1      34.048  15.285   9.206  0.00  0.00     0.176 C 
BRANCH  42  43
HETATM   43  C   UNK N   1      34.817  15.728  10.429  0.00  0.00     0.240 C 
HETATM   44  N   UNK N   1      35.119  14.853  11.410  0.00  0.00    -0.351 N 
HETATM   45  H   UNK N   1      34.852  13.911  11.303  0.00  0.00     0.163 HD
HETATM   46  O   UNK N   1      35.155  16.901  10.526  0.00  0.00    -0.271 OA
BRANCH  44  47
HETATM   47  C   UNK N   1      35.816  15.239  12.607  0.00  0.00     0.225 C 
BRANCH  47  48
HETATM   48  C   UNK N   1      35.844  14.074  13.531  0.00  0.00     0.233 C 
HETATM   49  N   UNK N   1      36.898  13.887  14.348  0.00  0.00    -0.369 N 
HETATM   50  H   UNK N   1      36.853  13.702  15.313  0.00  0.00     0.159 HD
HETATM   51  H   UNK N   1      37.794  13.941  13.942  0.00  0.00     0.159 HD
HETATM   52  O   UNK N   1      34.903  13.298  13.563  0.00  0.00    -0.272 OA
ENDBRANCH  47  48
ENDBRANCH  44  47
ENDBRANCH  42  43
BRANCH  42  53
HETATM   53  C   UNK N   1      34.375  13.917   8.573  0.00  0.00     0.036 C 
BRANCH  53  54
HETATM   54  C   UNK N   1      35.245  13.972   7.313  0.00  0.00     0.023 C 
BRANCH  54  55
HETATM   55  C   UNK N   1      36.727  13.892   7.670  0.00  0.00     0.138 C 
BRANCH  55  56
HETATM   56  N   UNK N   1      36.977  12.999   8.785  0.00  0.00    -0.227 N 
HETATM   57  C   UNK N   1      37.774  13.355   9.909  0.00  0.00     0.665 C 
HETATM   58  N   UNK N   1      38.393  14.478   9.943  0.00  0.00    -0.235 N 
HETATM   59  N   UNK N   1      37.864  12.476  11.011  0.00  0.00    -0.235 N 
HETATM   60  H   UNK N   1      38.539  15.312  10.443  0.00  0.00     0.174 HD
ATOM     61  HN  UNK N   1      38.974  14.525   9.106  1.00  0.00     0.174 HD
HETATM   62  H   UNK N   1      37.289  11.774  11.394  0.00  0.00     0.174 HD
HETATM   63  H   UNK N   1      38.701  12.592  11.517  0.00  0.00     0.174 HD
HETATM   64  H   UNK N   1      36.574  12.101   8.765  0.00  0.00     0.177 HD
ENDBRANCH  55  56
ENDBRANCH  54  55
ENDBRANCH  53  54
ENDBRANCH  42  53
ENDBRANCH  39  42
ENDBRANCH  33  38
ENDBRANCH   1  31
BRANCH   4  65
HETATM   65  C   UNK N   1      33.772  14.795   3.768  0.00  0.00     0.137 C 
BRANCH  65  66
HETATM   66  C   UNK N   1      34.735  14.144   2.817  0.00  0.00     0.217 C 
HETATM   67  O   UNK N   1      35.559  13.350   3.238  0.00  0.00    -0.274 OA
HETATM   68  N   UNK N   1      34.681  14.418   1.498  0.00  0.00    -0.370 N 
HETATM   69  H   UNK N   1      35.447  14.765   0.984  0.00  0.00     0.159 HD
HETATM   70  H   UNK N   1      33.833  14.263   1.023  0.00  0.00     0.159 HD
ENDBRANCH  65  66
ENDBRANCH   4  65
BRANCH  11  71
HETATM   71  C   UNK N   1      31.296  11.467   1.358  0.00  0.00     0.044 C 
BRANCH  71  72
HETATM   72  C   UNK N   1      32.240  12.071   0.335  0.00  0.00     0.105 C 
BRANCH  72  73
HETATM   73  C   UNK N   1      31.737  11.783  -1.040  0.00  0.00     0.215 C 
HETATM   74  N   UNK N   1      30.453  12.039  -1.359  0.00  0.00    -0.370 N 
HETATM   75  H   UNK N   1      29.962  12.418  -2.123  0.00  0.00     0.159 HD
HETATM   76  H   UNK N   1      29.842  11.776  -0.632  0.00  0.00     0.159 HD
HETATM   77  O   UNK N   1      32.489  11.314  -1.876  0.00  0.00    -0.274 OA
ENDBRANCH  72  73
ENDBRANCH  71  72
ENDBRANCH  11  71
BRANCH  22  78
HETATM   78  C   UNK N   1      22.923  13.791   4.559  0.00  0.00     0.073 C 
BRANCH  78  79
HETATM   79  C   UNK N   1      22.343  13.476   5.899  0.00  0.00    -0.056 A 
HETATM   80  C   UNK N   1      21.182  14.136   6.322  0.00  0.00     0.010 A 
HETATM   81  C   UNK N   1      20.652  13.886   7.587  0.00  0.00     0.037 A 
HETATM   82  C   UNK N   1      21.278  12.971   8.434  0.00  0.00     0.065 A 
HETATM   83  C   UNK N   1      22.429  12.297   8.011  0.00  0.00     0.037 A 
HETATM   84  C   UNK N   1      22.963  12.550   6.742  0.00  0.00     0.010 A 
BRANCH  82  85
HETATM   85  O   UNK N   1      20.773  12.740   9.656  0.00  0.00    -0.361 OA
HETATM   86  H   UNK N   1      19.920  12.400   9.840  0.00  0.00     0.217 HD
ENDBRANCH  82  85
ENDBRANCH  78  79
ENDBRANCH  22  78
BRANCH  14  87
HETATM   87  C   UNK N   1      26.000  11.558   1.523  0.00  0.00     0.073 C 
BRANCH  87  88
HETATM   88  C   UNK N   1      24.557  11.818   1.213  0.00  0.00    -0.056 A 
HETATM   89  C   UNK N   1      24.198  12.869   0.364  0.00  0.00     0.007 A 
HETATM   90  C   UNK N   1      22.849  13.120   0.093  0.00  0.00     0.001 A 
HETATM   91  C   UNK N   1      21.856  12.328   0.679  0.00  0.00     0.000 A 
HETATM   92  C   UNK N   1      22.212  11.287   1.541  0.00  0.00     0.001 A 
HETATM   93  C   UNK N   1      23.559  11.035   1.808  0.00  0.00     0.007 A 
ENDBRANCH  87  88
ENDBRANCH  14  87
TORSDOF 20
ENDMDL
MODEL 5
REMARK VINA RESULT:      -7.7      7.227     13.836
REMARK  20 active torsions:
REMARK  status: ('A' for Active; 'I' for Inactive)
REMARK       I    between atoms: N_1  and  C_2 
REMARK    1  A    between atoms: C_2  and  C_3 
REMARK    2  A    between atoms: C_3  and  N_4 
REMARK       I    between atoms: N_4  and  C_5 
REMARK    3  A    between atoms: C_5  and  C_6 
REMARK    4  A    between atoms: C_6  and  N_7 
REMARK    5  A    between atoms: C_6  and  C_12 
REMARK       I    between atoms: N_7  and  C_8 
REMARK    6  A    between atoms: C_16  and  C_8 
REMARK    7  A    between atoms: C_12  and  C_13 
REMARK    8  A    between atoms: C_13  and  C_14 
REMARK    9  A    between atoms: C_14  and  N_15 
REMARK       I    between atoms: N_15  and  C_72 
REMARK       I    between atoms: N_18  and  C_21 
REMARK   10  A    between atoms: C_22  and  C_21 
REMARK   11  A    between atoms: C_25  and  C_32 
REMARK   12  A    between atoms: C_32  and  C_33 
REMARK       I    between atoms: C_33  and  N_35 
REMARK   13  A    between atoms: C_37  and  C_39 
REMARK   14  A    between atoms: C_39  and  C_40 
REMARK   15  A    between atoms: C_40  and  C_41 
REMARK       I    between atoms: C_41  and  N_42 
REMARK   16  A    between atoms: C_45  and  C_47 
REMARK   17  A    between atoms: C_48  and  C_47 
REMARK   18  A    between atoms: C_60  and  C_63 
REMARK   19  A    between atoms: C_63  and  C_65 
REMARK   20  A    between atoms: C_67  and  O_71 
REMARK       I    between atoms: C_72  and  N_75 
ROOT
HETATM    1  C   UNK N   1      36.556  12.404   7.587  0.00  0.00     0.186 C 
HETATM    2  N   UNK N   1      35.617  11.493   8.198  0.00  0.00    -0.345 N 
HETATM    3  C   UNK N   1      35.580  11.188   9.529  0.00  0.00     0.241 C 
HETATM    4  C   UNK N   1      36.443  11.866  10.589  0.00  0.00     0.185 C 
HETATM    5  N   UNK N   1      37.131  13.057  10.154  0.00  0.00    -0.346 N 
HETATM    6  C   UNK N   1      35.967  13.612   6.870  0.00  0.00     0.120 C 
HETATM    7  S   UNK N   1      35.648  13.383   5.104  0.00  0.00    -0.095 SA
HETATM    8  S   UNK N   1      34.044  11.995   5.385  0.00  0.00    -0.097 SA
HETATM    9  O   UNK N   1      34.787  10.342   9.907  0.00  0.00    -0.271 OA
HETATM   10  C   UNK N   1      36.550  14.269  10.244  0.00  0.00     0.241 C 
HETATM   11  C   UNK N   1      35.139  14.385  10.768  0.00  0.00     0.177 C 
HETATM   12  O   UNK N   1      37.188  15.264   9.936  0.00  0.00    -0.271 OA
HETATM   13  N   UNK N   1      34.085  14.779   9.845  0.00  0.00    -0.346 N 
HETATM   14  C   UNK N   1      32.936  15.929   8.000  0.00  0.00     0.180 C 
HETATM   15  C   UNK N   1      34.189  15.588   8.758  0.00  0.00     0.241 C 
HETATM   16  N   UNK N   1      33.074  14.522   3.978  0.00  0.00    -0.347 N 
HETATM   17  C   UNK N   1      33.324  13.805   2.854  0.00  0.00     0.219 C 
HETATM   18  C   UNK N   1      32.977  12.354   2.824  0.00  0.00     0.114 C 
HETATM   19  C   UNK N   1      34.013  11.550   3.613  0.00  0.00     0.095 C 
HETATM   20  C   UNK N   1      33.776  16.168   5.663  0.00  0.00     0.241 C 
HETATM   21  O   UNK N   1      34.550  17.052   5.995  0.00  0.00    -0.271 OA
HETATM   22  C   UNK N   1      33.638  15.833   4.193  0.00  0.00     0.180 C 
HETATM   23  N   UNK N   1      32.985  15.555   6.592  0.00  0.00    -0.346 N 
HETATM   24  O   UNK N   1      35.252  16.101   8.450  0.00  0.00    -0.271 OA
HETATM   25  O   UNK N   1      33.930  14.299   1.915  0.00  0.00    -0.274 OA
HETATM   26  H   UNK N   1      34.954  11.060   7.612  0.00  0.00     0.163 HD
HETATM   27  H   UNK N   1      38.042  12.983   9.787  0.00  0.00     0.163 HD
HETATM   28  H   UNK N   1      33.189  14.416  10.030  0.00  0.00     0.163 HD
HETATM   29  H   UNK N   1      32.489  14.136   4.670  0.00  0.00     0.163 HD
HETATM   30  H   UNK N   1      32.413  14.811   6.293  0.00  0.00     0.163 HD
ENDROOT
BRANCH   1  31
HETATM   31  C   UNK N   1      37.916  11.817   7.354  0.00  0.00     0.244 C 
HETATM   32  N   UNK N   1      38.147  10.721   6.567  0.00  0.00    -0.337 N 
HETATM   33  C   UNK N   1      39.421  10.069   6.538  0.00  0.00     0.179 C 
HETATM   34  C   UNK N   1      37.173  10.132   5.702  0.00  0.00     0.127 C 
HETATM   35  C   UNK N   1      39.312   8.978   5.491  0.00  0.00     0.037 C 
HETATM   36  C   UNK N   1      37.972   9.214   4.792  0.00  0.00     0.022 C 
HETATM   37  O   UNK N   1      38.851  12.311   7.975  0.00  0.00    -0.271 OA
BRANCH  33  38
HETATM   38  C   UNK N   1      39.802   9.595   7.937  0.00  0.00     0.241 C 
HETATM   39  N   UNK N   1      41.080   9.481   8.413  0.00  0.00    -0.346 N 
HETATM   40  H   UNK N   1      41.180   8.909   9.208  0.00  0.00     0.163 HD
HETATM   41  O   UNK N   1      38.893   9.214   8.654  0.00  0.00    -0.271 OA
BRANCH  39  42
HETATM   42  C   UNK N   1      42.314  10.074   7.922  0.00  0.00     0.176 C 
BRANCH  42  43
HETATM   43  C   UNK N   1      43.485   9.240   8.389  0.00  0.00     0.240 C 
HETATM   44  N   UNK N   1      44.748   9.701   8.283  0.00  0.00    -0.351 N 
HETATM   45  H   UNK N   1      44.893  10.604   7.919  0.00  0.00     0.163 HD
HETATM   46  O   UNK N   1      43.273   8.129   8.857  0.00  0.00    -0.271 OA
BRANCH  44  47
HETATM   47  C   UNK N   1      45.893   8.927   8.681  0.00  0.00     0.225 C 
BRANCH  47  48
HETATM   48  C   UNK N   1      46.608   9.663   9.757  0.00  0.00     0.233 C 
HETATM   49  N   UNK N   1      46.643  11.008   9.743  0.00  0.00    -0.369 N 
HETATM   50  H   UNK N   1      46.439  11.598  10.504  0.00  0.00     0.159 HD
HETATM   51  H   UNK N   1      46.897  11.442   8.895  0.00  0.00     0.159 HD
HETATM   52  O   UNK N   1      47.146   9.048  10.663  0.00  0.00    -0.272 OA
ENDBRANCH  47  48
ENDBRANCH  44  47
ENDBRANCH  42  43
BRANCH  42  53
HETATM   53  C   UNK N   1      42.388  11.608   8.060  0.00  0.00     0.036 C 
BRANCH  53  54
HETATM   54  C   UNK N   1      42.760  12.362   6.779  0.00  0.00     0.023 C 
BRANCH  54  55
HETATM   55  C   UNK N   1      41.734  13.449   6.468  0.00  0.00     0.138 C 
BRANCH  55  56
HETATM   56  N   UNK N   1      40.971  13.159   5.269  0.00  0.00    -0.227 N 
HETATM   57  C   UNK N   1      39.774  13.844   4.919  0.00  0.00     0.665 C 
HETATM   58  N   UNK N   1      39.258  14.707   5.715  0.00  0.00    -0.235 N 
HETATM   59  N   UNK N   1      39.160  13.590   3.673  0.00  0.00    -0.235 N 
HETATM   60  H   UNK N   1      38.942  15.634   5.817  0.00  0.00     0.174 HD
ATOM     61  HN  UNK N   1      39.114  14.242   6.610  1.00  0.00     0.174 HD
HETATM   62  H   UNK N   1      39.470  13.277   2.793  0.00  0.00     0.174 HD
HETATM   63  H   UNK N   1      38.192  13.769   3.687  0.00  0.00     0.174 HD
HETATM   64  H   UNK N   1      41.298  12.453   4.665  0.00  0.00     0.177 HD
ENDBRANCH  55  56
ENDBRANCH  54  55
ENDBRANCH  53  54
ENDBRANCH  42  53
ENDBRANCH  39  42
ENDBRANCH  33  38
ENDBRANCH   1  31
BRANCH   4  65
HETATM   65  C   UNK N   1      37.389  10.916  11.318  0.00  0.00     0.137 C 
BRANCH  65  66
HETATM   66  C   UNK N   1      36.936  10.670  12.729  0.00  0.00     0.217 C 
HETATM   67  O   UNK N   1      37.705  10.865  13.655  0.00  0.00    -0.274 OA
HETATM   68  N   UNK N   1      35.678  10.253  12.979  0.00  0.00    -0.370 N 
HETATM   69  H   UNK N   1      35.469   9.430  13.476  0.00  0.00     0.159 HD
HETATM   70  H   UNK N   1      34.931  10.800  12.646  0.00  0.00     0.159 HD
ENDBRANCH  65  66
ENDBRANCH   4  65
BRANCH  11  71
HETATM   71  C   UNK N   1      34.990  14.985  12.159  0.00  0.00     0.044 C 
BRANCH  71  72
HETATM   72  C   UNK N   1      36.148  14.638  13.077  0.00  0.00     0.105 C 
BRANCH  72  73
HETATM   73  C   UNK N   1      35.693  13.656  14.104  0.00  0.00     0.215 C 
HETATM   74  N   UNK N   1      36.469  13.382  15.170  0.00  0.00    -0.370 N 
HETATM   75  H   UNK N   1      36.344  13.240  16.136  0.00  0.00     0.159 HD
HETATM   76  H   UNK N   1      37.417  13.302  14.915  0.00  0.00     0.159 HD
HETATM   77  O   UNK N   1      34.615  13.100  13.977  0.00  0.00    -0.274 OA
ENDBRANCH  72  73
ENDBRANCH  71  72
ENDBRANCH  11  71
BRANCH  22  78
HETATM   78  C   UNK N   1      32.969  16.916   3.332  0.00  0.00     0.073 C 
BRANCH  78  79
HETATM   79  C   UNK N   1      31.488  16.981   3.520  0.00  0.00    -0.056 A 
HETATM   80  C   UNK N   1      30.957  17.748   4.565  0.00  0.00     0.010 A 
HETATM   81  C   UNK N   1      29.580  17.785   4.782  0.00  0.00     0.037 A 
HETATM   82  C   UNK N   1      28.726  17.060   3.951  0.00  0.00     0.065 A 
HETATM   83  C   UNK N   1      29.250  16.305   2.895  0.00  0.00     0.037 A 
HETATM   84  C   UNK N   1      30.632  16.264   2.679  0.00  0.00     0.010 A 
BRANCH  82  85
HETATM   85  O   UNK N   1      27.402  17.087   4.167  0.00  0.00    -0.361 OA
HETATM   86  H   UNK N   1      26.935  17.766   4.610  0.00  0.00     0.217 HD
ENDBRANCH  82  85
ENDBRANCH  78  79
ENDBRANCH  22  78
BRANCH  14  87
HETATM   87  C   UNK N   1      32.504  17.398   8.150  0.00  0.00     0.073 C 
BRANCH  87  88
HETATM   88  C   UNK N   1      31.046  17.588   8.438  0.00  0.00    -0.056 A 
HETATM   89  C   UNK N   1      30.104  16.695   7.917  0.00  0.00     0.007 A 
HETATM   90  C   UNK N   1      28.741  16.888   8.172  0.00  0.00     0.001 A 
HETATM   91  C   UNK N   1      28.319  17.978   8.939  0.00  0.00     0.000 A 
HETATM   92  C   UNK N   1      29.257  18.879   9.448  0.00  0.00     0.001 A 
HETATM   93  C   UNK N   1      30.617  18.685   9.196  0.00  0.00     0.007 A 
ENDBRANCH  87  88
ENDBRANCH  14  87
TORSDOF 20
ENDMDL
MODEL 6
REMARK VINA RESULT:      -7.7      4.194     10.569
REMARK  20 active torsions:
REMARK  status: ('A' for Active; 'I' for Inactive)
REMARK       I    between atoms: N_1  and  C_2 
REMARK    1  A    between atoms: C_2  and  C_3 
REMARK    2  A    between atoms: C_3  and  N_4 
REMARK       I    between atoms: N_4  and  C_5 
REMARK    3  A    between atoms: C_5  and  C_6 
REMARK    4  A    between atoms: C_6  and  N_7 
REMARK    5  A    between atoms: C_6  and  C_12 
REMARK       I    between atoms: N_7  and  C_8 
REMARK    6  A    between atoms: C_16  and  C_8 
REMARK    7  A    between atoms: C_12  and  C_13 
REMARK    8  A    between atoms: C_13  and  C_14 
REMARK    9  A    between atoms: C_14  and  N_15 
REMARK       I    between atoms: N_15  and  C_72 
REMARK       I    between atoms: N_18  and  C_21 
REMARK   10  A    between atoms: C_22  and  C_21 
REMARK   11  A    between atoms: C_25  and  C_32 
REMARK   12  A    between atoms: C_32  and  C_33 
REMARK       I    between atoms: C_33  and  N_35 
REMARK   13  A    between atoms: C_37  and  C_39 
REMARK   14  A    between atoms: C_39  and  C_40 
REMARK   15  A    between atoms: C_40  and  C_41 
REMARK       I    between atoms: C_41  and  N_42 
REMARK   16  A    between atoms: C_45  and  C_47 
REMARK   17  A    between atoms: C_48  and  C_47 
REMARK   18  A    between atoms: C_60  and  C_63 
REMARK   19  A    between atoms: C_63  and  C_65 
REMARK   20  A    between atoms: C_67  and  O_71 
REMARK       I    between atoms: C_72  and  N_75 
ROOT
HETATM    1  C   UNK N   1      32.540  13.667   4.947  0.00  0.00     0.186 C 
HETATM    2  N   UNK N   1      32.274  13.336   6.327  0.00  0.00    -0.345 N 
HETATM    3  C   UNK N   1      32.282  14.232   7.359  0.00  0.00     0.241 C 
HETATM    4  C   UNK N   1      32.442  15.739   7.186  0.00  0.00     0.185 C 
HETATM    5  N   UNK N   1      32.322  16.220   5.831  0.00  0.00    -0.346 N 
HETATM    6  C   UNK N   1      31.428  13.373   3.948  0.00  0.00     0.120 C 
HETATM    7  S   UNK N   1      31.507  11.746   3.160  0.00  0.00    -0.095 SA
HETATM    8  S   UNK N   1      31.036  10.657   4.940  0.00  0.00    -0.097 SA
HETATM    9  O   UNK N   1      32.118  13.811   8.492  0.00  0.00    -0.271 OA
HETATM   10  C   UNK N   1      31.124  16.565   5.318  0.00  0.00     0.241 C 
HETATM   11  C   UNK N   1      29.878  16.407   6.155  0.00  0.00     0.177 C 
HETATM   12  O   UNK N   1      31.068  17.038   4.193  0.00  0.00    -0.271 OA
HETATM   13  N   UNK N   1      28.908  15.392   5.774  0.00  0.00    -0.346 N 
HETATM   14  C   UNK N   1      27.511  13.941   4.363  0.00  0.00     0.180 C 
HETATM   15  C   UNK N   1      28.626  14.938   4.524  0.00  0.00     0.241 C 
HETATM   16  N   UNK N   1      28.908  10.230   2.796  0.00  0.00    -0.347 N 
HETATM   17  C   UNK N   1      29.659   9.144   2.487  0.00  0.00     0.219 C 
HETATM   18  C   UNK N   1      30.257   8.334   3.589  0.00  0.00     0.114 C 
HETATM   19  C   UNK N   1      31.474   9.058   4.172  0.00  0.00     0.095 C 
HETATM   20  C   UNK N   1      28.292  12.580   2.424  0.00  0.00     0.241 C 
HETATM   21  O   UNK N   1      28.339  13.566   1.706  0.00  0.00    -0.271 OA
HETATM   22  C   UNK N   1      28.545  11.219   1.811  0.00  0.00     0.180 C 
HETATM   23  N   UNK N   1      27.930  12.694   3.735  0.00  0.00    -0.346 N 
HETATM   24  O   UNK N   1      29.195  15.387   3.543  0.00  0.00    -0.271 OA
HETATM   25  O   UNK N   1      29.947   8.889   1.327  0.00  0.00    -0.274 OA
HETATM   26  H   UNK N   1      32.073  12.396   6.541  0.00  0.00     0.163 HD
HETATM   27  H   UNK N   1      33.129  16.300   5.272  0.00  0.00     0.163 HD
HETATM   28  H   UNK N   1      28.396  14.985   6.509  0.00  0.00     0.163 HD
HETATM   29  H   UNK N   1      28.599  10.348   3.725  0.00  0.00     0.163 HD
HETATM   30  H   UNK N   1      27.955  11.883   4.293  0.00  0.00     0.163 HD
ENDROOT
BRANCH   1  31
HETATM   31  C   UNK N   1      33.996  13.826   4.624  0.00  0.00     0.244 C 
HETATM   32  N   UNK N   1      34.903  12.802   4.681  0.00  0.00    -0.337 N 
HETATM   33  C   UNK N   1      36.311  13.037   4.571  0.00  0.00     0.179 C 
HETATM   34  C   UNK N   1      34.554  11.425   4.839  0.00  0.00     0.127 C 
HETATM   35  C   UNK N   1      36.967  11.670   4.581  0.00  0.00     0.037 C 
HETATM   36  C   UNK N   1      35.820  10.663   4.481  0.00  0.00     0.022 C 
HETATM   37  O   UNK N   1      34.392  14.958   4.375  0.00  0.00    -0.271 OA
BRANCH  33  38
HETATM   38  C   UNK N   1      36.774  13.990   5.668  0.00  0.00     0.241 C 
HETATM   39  N   UNK N   1      36.618  13.785   7.012  0.00  0.00    -0.346 N 
HETATM   40  H   UNK N   1      36.706  14.592   7.570  0.00  0.00     0.163 HD
HETATM   41  O   UNK N   1      37.248  15.053   5.307  0.00  0.00    -0.271 OA
BRANCH  39  42
HETATM   42  C   UNK N   1      36.342  12.558   7.742  0.00  0.00     0.176 C 
BRANCH  42  43
HETATM   43  C   UNK N   1      35.440  12.871   8.914  0.00  0.00     0.240 C 
HETATM   44  N   UNK N   1      35.570  14.028   9.596  0.00  0.00    -0.351 N 
HETATM   45  H   UNK N   1      36.248  14.678   9.300  0.00  0.00     0.163 HD
HETATM   46  O   UNK N   1      34.592  12.053   9.246  0.00  0.00    -0.271 OA
BRANCH  44  47
HETATM   47  C   UNK N   1      34.758  14.350  10.739  0.00  0.00     0.225 C 
BRANCH  47  48
HETATM   48  C   UNK N   1      35.355  15.530  11.421  0.00  0.00     0.233 C 
HETATM   49  N   UNK N   1      35.096  16.771  10.970  0.00  0.00    -0.369 N 
HETATM   50  H   UNK N   1      34.811  17.536  11.519  0.00  0.00     0.159 HD
HETATM   51  H   UNK N   1      35.202  16.928  10.003  0.00  0.00     0.159 HD
HETATM   52  O   UNK N   1      36.064  15.372  12.402  0.00  0.00    -0.272 OA
ENDBRANCH  47  48
ENDBRANCH  44  47
ENDBRANCH  42  43
BRANCH  42  53
HETATM   53  C   UNK N   1      37.571  11.653   7.966  0.00  0.00     0.036 C 
BRANCH  53  54
HETATM   54  C   UNK N   1      38.867  12.390   8.319  0.00  0.00     0.023 C 
BRANCH  54  55
HETATM   55  C   UNK N   1      39.048  12.480   9.832  0.00  0.00     0.138 C 
BRANCH  55  56
HETATM   56  N   UNK N   1      38.218  11.528  10.544  0.00  0.00    -0.227 N 
HETATM   57  C   UNK N   1      37.541  11.833  11.757  0.00  0.00     0.665 C 
HETATM   58  N   UNK N   1      37.711  12.966  12.334  0.00  0.00    -0.235 N 
HETATM   59  N   UNK N   1      36.652  10.891  12.320  0.00  0.00    -0.235 N 
HETATM   60  H   UNK N   1      37.274  13.772  12.691  0.00  0.00     0.174 HD
ATOM     61  HN  UNK N   1      38.713  13.078  12.486  1.00  0.00     0.174 HD
HETATM   62  H   UNK N   1      36.101  10.155  11.969  0.00  0.00     0.174 HD
HETATM   63  H   UNK N   1      36.561  10.996  13.295  0.00  0.00     0.174 HD
HETATM   64  H   UNK N   1      38.118  10.623  10.168  0.00  0.00     0.177 HD
ENDBRANCH  55  56
ENDBRANCH  54  55
ENDBRANCH  53  54
ENDBRANCH  42  53
ENDBRANCH  39  42
ENDBRANCH  33  38
ENDBRANCH   1  31
BRANCH   4  65
HETATM   65  C   UNK N   1      33.682  16.312   7.868  0.00  0.00     0.137 C 
BRANCH  65  66
HETATM   66  C   UNK N   1      33.907  17.745   7.475  0.00  0.00     0.217 C 
HETATM   67  O   UNK N   1      34.407  18.006   6.394  0.00  0.00    -0.274 OA
HETATM   68  N   UNK N   1      33.543  18.745   8.304  0.00  0.00    -0.370 N 
HETATM   69  H   UNK N   1      34.166  19.433   8.630  0.00  0.00     0.159 HD
HETATM   70  H   UNK N   1      32.604  18.788   8.598  0.00  0.00     0.159 HD
ENDBRANCH  65  66
ENDBRANCH   4  65
BRANCH  11  71
HETATM   71  C   UNK N   1      29.248  17.696   6.664  0.00  0.00     0.044 C 
BRANCH  71  72
HETATM   72  C   UNK N   1      28.643  17.551   8.048  0.00  0.00     0.105 C 
BRANCH  72  73
HETATM   73  C   UNK N   1      29.703  17.747   9.079  0.00  0.00     0.215 C 
HETATM   74  N   UNK N   1      29.571  17.195  10.300  0.00  0.00    -0.370 N 
HETATM   75  H   UNK N   1      30.148  16.729  10.948  0.00  0.00     0.159 HD
HETATM   76  H   UNK N   1      28.649  17.280  10.636  0.00  0.00     0.159 HD
HETATM   77  O   UNK N   1      30.693  18.408   8.814  0.00  0.00    -0.274 OA
ENDBRANCH  72  73
ENDBRANCH  71  72
ENDBRANCH  11  71
BRANCH  22  78
HETATM   78  C   UNK N   1      27.460  10.722   0.842  0.00  0.00     0.073 C 
BRANCH  78  79
HETATM   79  C   UNK N   1      26.077  10.870   1.386  0.00  0.00    -0.056 A 
HETATM   80  C   UNK N   1      25.637  10.010   2.400  0.00  0.00     0.010 A 
HETATM   81  C   UNK N   1      24.335  10.107   2.890  0.00  0.00     0.037 A 
HETATM   82  C   UNK N   1      23.468  11.068   2.372  0.00  0.00     0.065 A 
HETATM   83  C   UNK N   1      23.907  11.942   1.370  0.00  0.00     0.037 A 
HETATM   84  C   UNK N   1      25.213  11.843   0.876  0.00  0.00     0.010 A 
BRANCH  82  85
HETATM   85  O   UNK N   1      22.211  11.154   2.835  0.00  0.00    -0.361 OA
HETATM   86  H   UNK N   1      21.433  11.047   2.327  0.00  0.00     0.217 HD
ENDBRANCH  82  85
ENDBRANCH  78  79
ENDBRANCH  22  78
BRANCH  14  87
HETATM   87  C   UNK N   1      26.272  14.511   3.652  0.00  0.00     0.073 C 
BRANCH  87  88
HETATM   88  C   UNK N   1      24.966  14.087   4.251  0.00  0.00    -0.056 A 
HETATM   89  C   UNK N   1      23.777  14.710   3.859  0.00  0.00     0.007 A 
HETATM   90  C   UNK N   1      22.562  14.325   4.436  0.00  0.00     0.001 A 
HETATM   91  C   UNK N   1      22.535  13.325   5.413  0.00  0.00     0.000 A 
HETATM   92  C   UNK N   1      23.723  12.712   5.817  0.00  0.00     0.001 A 
HETATM   93  C   UNK N   1      24.935  13.095   5.239  0.00  0.00     0.007 A 
ENDBRANCH  87  88
ENDBRANCH  14  87
TORSDOF 20
ENDMDL
MODEL 7
REMARK VINA RESULT:      -7.7      3.684     11.287
REMARK  20 active torsions:
REMARK  status: ('A' for Active; 'I' for Inactive)
REMARK       I    between atoms: N_1  and  C_2 
REMARK    1  A    between atoms: C_2  and  C_3 
REMARK    2  A    between atoms: C_3  and  N_4 
REMARK       I    between atoms: N_4  and  C_5 
REMARK    3  A    between atoms: C_5  and  C_6 
REMARK    4  A    between atoms: C_6  and  N_7 
REMARK    5  A    between atoms: C_6  and  C_12 
REMARK       I    between atoms: N_7  and  C_8 
REMARK    6  A    between atoms: C_16  and  C_8 
REMARK    7  A    between atoms: C_12  and  C_13 
REMARK    8  A    between atoms: C_13  and  C_14 
REMARK    9  A    between atoms: C_14  and  N_15 
REMARK       I    between atoms: N_15  and  C_72 
REMARK       I    between atoms: N_18  and  C_21 
REMARK   10  A    between atoms: C_22  and  C_21 
REMARK   11  A    between atoms: C_25  and  C_32 
REMARK   12  A    between atoms: C_32  and  C_33 
REMARK       I    between atoms: C_33  and  N_35 
REMARK   13  A    between atoms: C_37  and  C_39 
REMARK   14  A    between atoms: C_39  and  C_40 
REMARK   15  A    between atoms: C_40  and  C_41 
REMARK       I    between atoms: C_41  and  N_42 
REMARK   16  A    between atoms: C_45  and  C_47 
REMARK   17  A    between atoms: C_48  and  C_47 
REMARK   18  A    between atoms: C_60  and  C_63 
REMARK   19  A    between atoms: C_63  and  C_65 
REMARK   20  A    between atoms: C_67  and  O_71 
REMARK       I    between atoms: C_72  and  N_75 
ROOT
HETATM    1  C   UNK N   1      30.559  15.004   5.199  0.00  0.00     0.186 C 
HETATM    2  N   UNK N   1      31.193  15.709   4.110  0.00  0.00    -0.345 N 
HETATM    3  C   UNK N   1      32.413  15.392   3.582  0.00  0.00     0.241 C 
HETATM    4  C   UNK N   1      33.227  14.164   3.978  0.00  0.00     0.185 C 
HETATM    5  N   UNK N   1      32.521  13.184   4.766  0.00  0.00    -0.346 N 
HETATM    6  C   UNK N   1      29.203  14.376   4.907  0.00  0.00     0.120 C 
HETATM    7  S   UNK N   1      27.772  15.420   5.273  0.00  0.00    -0.095 SA
HETATM    8  S   UNK N   1      28.154  16.815   3.696  0.00  0.00    -0.097 SA
HETATM    9  O   UNK N   1      32.873  16.116   2.715  0.00  0.00    -0.271 OA
HETATM   10  C   UNK N   1      31.821  12.192   4.179  0.00  0.00     0.241 C 
HETATM   11  C   UNK N   1      31.737  12.125   2.674  0.00  0.00     0.177 C 
HETATM   12  O   UNK N   1      31.297  11.337   4.875  0.00  0.00    -0.271 OA
HETATM   13  N   UNK N   1      30.457  12.389   2.036  0.00  0.00    -0.346 N 
HETATM   14  C   UNK N   1      28.028  12.418   1.647  0.00  0.00     0.180 C 
HETATM   15  C   UNK N   1      29.214  12.143   2.531  0.00  0.00     0.241 C 
HETATM   16  N   UNK N   1      25.475  15.409   3.295  0.00  0.00    -0.347 N 
HETATM   17  C   UNK N   1      24.986  16.489   3.954  0.00  0.00     0.219 C 
HETATM   18  C   UNK N   1      25.550  17.839   3.659  0.00  0.00     0.114 C 
HETATM   19  C   UNK N   1      26.915  17.997   4.334  0.00  0.00     0.095 C 
HETATM   20  C   UNK N   1      26.281  13.087   3.297  0.00  0.00     0.241 C 
HETATM   21  O   UNK N   1      26.374  12.019   3.881  0.00  0.00    -0.271 OA
HETATM   22  C   UNK N   1      25.201  14.059   3.722  0.00  0.00     0.180 C 
HETATM   23  N   UNK N   1      27.078  13.362   2.223  0.00  0.00    -0.346 N 
HETATM   24  O   UNK N   1      29.059  11.629   3.626  0.00  0.00    -0.271 OA
HETATM   25  O   UNK N   1      24.178  16.358   4.861  0.00  0.00    -0.274 OA
HETATM   26  H   UNK N   1      30.712  16.473   3.719  0.00  0.00     0.163 HD
HETATM   27  H   UNK N   1      32.551  13.240   5.749  0.00  0.00     0.163 HD
HETATM   28  H   UNK N   1      30.494  12.794   1.141  0.00  0.00     0.163 HD
HETATM   29  H   UNK N   1      26.037  15.551   2.498  0.00  0.00     0.163 HD
HETATM   30  H   UNK N   1      27.008  14.254   1.813  0.00  0.00     0.163 HD
ENDROOT
BRANCH   1  31
HETATM   31  C   UNK N   1      31.091  15.364   6.554  0.00  0.00     0.244 C 
HETATM   32  N   UNK N   1      30.785  16.527   7.206  0.00  0.00    -0.337 N 
HETATM   33  C   UNK N   1      31.473  16.927   8.396  0.00  0.00     0.179 C 
HETATM   34  C   UNK N   1      29.765  17.438   6.792  0.00  0.00     0.127 C 
HETATM   35  C   UNK N   1      30.793  18.198   8.868  0.00  0.00     0.037 C 
HETATM   36  C   UNK N   1      29.551  18.349   7.989  0.00  0.00     0.022 C 
HETATM   37  O   UNK N   1      31.907  14.598   7.054  0.00  0.00    -0.271 OA
BRANCH  33  38
HETATM   38  C   UNK N   1      32.969  17.050   8.124  0.00  0.00     0.241 C 
HETATM   39  N   UNK N   1      33.960  16.499   8.890  0.00  0.00    -0.346 N 
HETATM   40  H   UNK N   1      34.855  16.889   8.759  0.00  0.00     0.163 HD
HETATM   41  O   UNK N   1      33.300  17.763   7.194  0.00  0.00    -0.271 OA
BRANCH  39  42
HETATM   42  C   UNK N   1      33.893  15.426   9.870  0.00  0.00     0.176 C 
BRANCH  42  43
HETATM   43  C   UNK N   1      34.847  15.730  11.002  0.00  0.00     0.240 C 
HETATM   44  N   UNK N   1      35.231  14.763  11.861  0.00  0.00    -0.351 N 
HETATM   45  H   UNK N   1      34.899  13.846  11.721  0.00  0.00     0.163 HD
HETATM   46  O   UNK N   1      35.262  16.873  11.139  0.00  0.00    -0.271 OA
BRANCH  44  47
HETATM   47  C   UNK N   1      36.108  15.015  12.973  0.00  0.00     0.225 C 
BRANCH  47  48
HETATM   48  C   UNK N   1      36.007  13.872  13.920  0.00  0.00     0.233 C 
HETATM   49  N   UNK N   1      37.121  13.345  14.461  0.00  0.00    -0.369 N 
HETATM   50  H   UNK N   1      37.263  13.156  15.416  0.00  0.00     0.159 HD
HETATM   51  H   UNK N   1      37.860  13.131  13.846  0.00  0.00     0.159 HD
HETATM   52  O   UNK N   1      34.912  13.425  14.221  0.00  0.00    -0.272 OA
ENDBRANCH  47  48
ENDBRANCH  44  47
ENDBRANCH  42  43
BRANCH  42  53
HETATM   53  C   UNK N   1      33.876  14.007   9.268  0.00  0.00     0.036 C 
BRANCH  53  54
HETATM   54  C   UNK N   1      35.103  13.640   8.426  0.00  0.00     0.023 C 
BRANCH  54  55
HETATM   55  C   UNK N   1      35.158  12.137   8.168  0.00  0.00     0.138 C 
BRANCH  55  56
HETATM   56  N   UNK N   1      33.934  11.635   7.574  0.00  0.00    -0.227 N 
HETATM   57  C   UNK N   1      33.489  10.291   7.717  0.00  0.00     0.665 C 
HETATM   58  N   UNK N   1      34.215   9.422   8.318  0.00  0.00    -0.235 N 
HETATM   59  N   UNK N   1      32.224   9.915   7.214  0.00  0.00    -0.235 N 
HETATM   60  H   UNK N   1      34.258   8.758   9.043  0.00  0.00     0.174 HD
ATOM     61  HN  UNK N   1      35.122   9.414   7.852  1.00  0.00     0.174 HD
HETATM   62  H   UNK N   1      31.376  10.383   7.034  0.00  0.00     0.174 HD
HETATM   63  H   UNK N   1      32.177   8.957   6.992  0.00  0.00     0.174 HD
HETATM   64  H   UNK N   1      33.381  12.256   7.046  0.00  0.00     0.177 HD
ENDBRANCH  55  56
ENDBRANCH  54  55
ENDBRANCH  53  54
ENDBRANCH  42  53
ENDBRANCH  39  42
ENDBRANCH  33  38
ENDBRANCH   1  31
BRANCH   4  65
HETATM   65  C   UNK N   1      34.585  14.494   4.594  0.00  0.00     0.137 C 
BRANCH  65  66
HETATM   66  C   UNK N   1      35.549  13.353   4.432  0.00  0.00     0.217 C 
HETATM   67  O   UNK N   1      35.257  12.248   4.857  0.00  0.00    -0.274 OA
HETATM   68  N   UNK N   1      36.727  13.540   3.803  0.00  0.00    -0.370 N 
HETATM   69  H   UNK N   1      37.599  13.342   4.215  0.00  0.00     0.159 HD
HETATM   70  H   UNK N   1      36.714  13.892   2.884  0.00  0.00     0.159 HD
ENDBRANCH  65  66
ENDBRANCH   4  65
BRANCH  11  71
HETATM   71  C   UNK N   1      32.534  11.010   2.010  0.00  0.00     0.044 C 
BRANCH  71  72
HETATM   72  C   UNK N   1      33.931  11.444   1.606  0.00  0.00     0.105 C 
BRANCH  72  73
HETATM   73  C   UNK N   1      33.842  12.593   0.659  0.00  0.00     0.215 C 
HETATM   74  N   UNK N   1      34.474  13.750   0.937  0.00  0.00    -0.370 N 
HETATM   75  H   UNK N   1      35.002  14.420   0.445  0.00  0.00     0.159 HD
HETATM   76  H   UNK N   1      34.383  13.991   1.888  0.00  0.00     0.159 HD
HETATM   77  O   UNK N   1      33.196  12.485  -0.369  0.00  0.00    -0.274 OA
ENDBRANCH  72  73
ENDBRANCH  71  72
ENDBRANCH  11  71
BRANCH  22  78
HETATM   78  C   UNK N   1      23.761  13.619   3.411  0.00  0.00     0.073 C 
BRANCH  78  79
HETATM   79  C   UNK N   1      23.652  12.817   2.155  0.00  0.00    -0.056 A 
HETATM   80  C   UNK N   1      23.549  11.422   2.233  0.00  0.00     0.010 A 
HETATM   81  C   UNK N   1      23.491  10.655   1.070  0.00  0.00     0.037 A 
HETATM   82  C   UNK N   1      23.529  11.280  -0.177  0.00  0.00     0.065 A 
HETATM   83  C   UNK N   1      23.615  12.675  -0.260  0.00  0.00     0.037 A 
HETATM   84  C   UNK N   1      23.677  13.444   0.907  0.00  0.00     0.010 A 
BRANCH  82  85
HETATM   85  O   UNK N   1      23.484  10.540  -1.296  0.00  0.00    -0.361 OA
HETATM   86  H   UNK N   1      23.062   9.710  -1.385  0.00  0.00     0.217 HD
ENDBRANCH  82  85
ENDBRANCH  78  79
ENDBRANCH  22  78
BRANCH  14  87
HETATM   87  C   UNK N   1      27.303  11.147   1.175  0.00  0.00     0.073 C 
BRANCH  87  88
HETATM   88  C   UNK N   1      28.208  10.087   0.625  0.00  0.00    -0.056 A 
HETATM   89  C   UNK N   1      28.251   8.821   1.217  0.00  0.00     0.007 A 
HETATM   90  C   UNK N   1      29.112   7.841   0.712  0.00  0.00     0.001 A 
HETATM   91  C   UNK N   1      29.939   8.127  -0.379  0.00  0.00     0.000 A 
HETATM   92  C   UNK N   1      29.909   9.396  -0.963  0.00  0.00     0.001 A 
HETATM   93  C   UNK N   1      29.047  10.373  -0.460  0.00  0.00     0.007 A 
ENDBRANCH  87  88
ENDBRANCH  14  87
TORSDOF 20
ENDMDL
MODEL 8
REMARK VINA RESULT:      -7.6      1.921      3.451
REMARK  20 active torsions:
REMARK  status: ('A' for Active; 'I' for Inactive)
REMARK       I    between atoms: N_1  and  C_2 
REMARK    1  A    between atoms: C_2  and  C_3 
REMARK    2  A    between atoms: C_3  and  N_4 
REMARK       I    between atoms: N_4  and  C_5 
REMARK    3  A    between atoms: C_5  and  C_6 
REMARK    4  A    between atoms: C_6  and  N_7 
REMARK    5  A    between atoms: C_6  and  C_12 
REMARK       I    between atoms: N_7  and  C_8 
REMARK    6  A    between atoms: C_16  and  C_8 
REMARK    7  A    between atoms: C_12  and  C_13 
REMARK    8  A    between atoms: C_13  and  C_14 
REMARK    9  A    between atoms: C_14  and  N_15 
REMARK       I    between atoms: N_15  and  C_72 
REMARK       I    between atoms: N_18  and  C_21 
REMARK   10  A    between atoms: C_22  and  C_21 
REMARK   11  A    between atoms: C_25  and  C_32 
REMARK   12  A    between atoms: C_32  and  C_33 
REMARK       I    between atoms: C_33  and  N_35 
REMARK   13  A    between atoms: C_37  and  C_39 
REMARK   14  A    between atoms: C_39  and  C_40 
REMARK   15  A    between atoms: C_40  and  C_41 
REMARK       I    between atoms: C_41  and  N_42 
REMARK   16  A    between atoms: C_45  and  C_47 
REMARK   17  A    between atoms: C_48  and  C_47 
REMARK   18  A    between atoms: C_60  and  C_63 
REMARK   19  A    between atoms: C_63  and  C_65 
REMARK   20  A    between atoms: C_67  and  O_71 
REMARK       I    between atoms: C_72  and  N_75 
ROOT
HETATM    1  C   UNK N   1      24.716  13.094   3.954  0.00  0.00     0.186 C 
HETATM    2  N   UNK N   1      24.278  13.532   2.650  0.00  0.00    -0.345 N 
HETATM    3  C   UNK N   1      23.199  14.340   2.421  0.00  0.00     0.241 C 
HETATM    4  C   UNK N   1      22.377  15.006   3.520  0.00  0.00     0.185 C 
HETATM    5  N   UNK N   1      22.958  14.957   4.840  0.00  0.00    -0.346 N 
HETATM    6  C   UNK N   1      26.130  13.486   4.366  0.00  0.00     0.120 C 
HETATM    7  S   UNK N   1      27.415  12.278   3.965  0.00  0.00    -0.095 SA
HETATM    8  S   UNK N   1      27.289  12.571   1.850  0.00  0.00    -0.097 SA
HETATM    9  O   UNK N   1      22.887  14.573   1.265  0.00  0.00    -0.271 OA
HETATM   10  C   UNK N   1      23.800  15.919   5.266  0.00  0.00     0.241 C 
HETATM   11  C   UNK N   1      24.180  17.046   4.336  0.00  0.00     0.177 C 
HETATM   12  O   UNK N   1      24.215  15.887   6.414  0.00  0.00    -0.271 OA
HETATM   13  N   UNK N   1      25.548  17.113   3.846  0.00  0.00    -0.346 N 
HETATM   14  C   UNK N   1      28.002  16.953   3.807  0.00  0.00     0.180 C 
HETATM   15  C   UNK N   1      26.679  16.698   4.476  0.00  0.00     0.241 C 
HETATM   16  N   UNK N   1      30.052  13.327   2.901  0.00  0.00    -0.347 N 
HETATM   17  C   UNK N   1      30.356  12.046   2.573  0.00  0.00     0.219 C 
HETATM   18  C   UNK N   1      29.803  11.465   1.314  0.00  0.00     0.114 C 
HETATM   19  C   UNK N   1      28.327  11.107   1.505  0.00  0.00     0.095 C 
HETATM   20  C   UNK N   1      29.363  15.003   4.561  0.00  0.00     0.241 C 
HETATM   21  O   UNK N   1      29.203  15.301   5.734  0.00  0.00    -0.271 OA
HETATM   22  C   UNK N   1      30.296  13.861   4.218  0.00  0.00     0.180 C 
HETATM   23  N   UNK N   1      28.779  15.743   3.572  0.00  0.00    -0.346 N 
HETATM   24  O   UNK N   1      26.639  16.213   5.595  0.00  0.00    -0.271 OA
HETATM   25  O   UNK N   1      30.976  11.330   3.346  0.00  0.00    -0.274 OA
HETATM   26  H   UNK N   1      24.793  13.227   1.869  0.00  0.00     0.163 HD
HETATM   27  H   UNK N   1      22.733  14.209   5.440  0.00  0.00     0.163 HD
HETATM   28  H   UNK N   1      25.669  17.503   2.951  0.00  0.00     0.163 HD
HETATM   29  H   UNK N   1      29.652  13.912   2.217  0.00  0.00     0.163 HD
HETATM   30  H   UNK N   1      28.890  15.439   2.643  0.00  0.00     0.163 HD
ENDROOT
BRANCH   1  31
HETATM   31  C   UNK N   1      23.915  11.961   4.522  0.00  0.00     0.244 C 
HETATM   32  N   UNK N   1      23.930  11.607   5.844  0.00  0.00    -0.337 N 
HETATM   33  C   UNK N   1      23.319  10.398   6.307  0.00  0.00     0.179 C 
HETATM   34  C   UNK N   1      24.529  12.388   6.880  0.00  0.00     0.127 C 
HETATM   35  C   UNK N   1      23.457  10.408   7.817  0.00  0.00     0.037 C 
HETATM   36  C   UNK N   1      23.985  11.799   8.171  0.00  0.00     0.022 C 
HETATM   37  O   UNK N   1      23.278  11.277   3.730  0.00  0.00    -0.271 OA
BRANCH  33  38
HETATM   38  C   UNK N   1      23.936   9.193   5.604  0.00  0.00     0.241 C 
HETATM   39  N   UNK N   1      23.234   8.196   4.981  0.00  0.00    -0.346 N 
HETATM   40  H   UNK N   1      23.739   7.365   4.826  0.00  0.00     0.163 HD
HETATM   41  O   UNK N   1      25.146   9.076   5.676  0.00  0.00    -0.271 OA
BRANCH  39  42
HETATM   42  C   UNK N   1      21.857   8.177   4.515  0.00  0.00     0.176 C 
BRANCH  42  43
HETATM   43  C   UNK N   1      20.996   7.480   5.543  0.00  0.00     0.240 C 
HETATM   44  N   UNK N   1      19.652   7.595   5.513  0.00  0.00    -0.351 N 
HETATM   45  H   UNK N   1      19.239   8.122   4.790  0.00  0.00     0.163 HD
HETATM   46  O   UNK N   1      21.536   6.814   6.417  0.00  0.00    -0.271 OA
BRANCH  44  47
HETATM   47  C   UNK N   1      18.797   6.979   6.492  0.00  0.00     0.225 C 
BRANCH  47  48
HETATM   48  C   UNK N   1      18.145   5.796   5.869  0.00  0.00     0.233 C 
HETATM   49  N   UNK N   1      17.598   5.896   4.644  0.00  0.00    -0.369 N 
HETATM   50  H   UNK N   1      17.744   5.274   3.895  0.00  0.00     0.159 HD
HETATM   51  H   UNK N   1      16.999   6.661   4.481  0.00  0.00     0.159 HD
HETATM   52  O   UNK N   1      18.123   4.730   6.463  0.00  0.00    -0.272 OA
ENDBRANCH  47  48
ENDBRANCH  44  47
ENDBRANCH  42  43
BRANCH  42  53
HETATM   53  C   UNK N   1      21.688   7.809   3.027  0.00  0.00     0.036 C 
BRANCH  53  54
HETATM   54  C   UNK N   1      20.419   8.352   2.360  0.00  0.00     0.023 C 
BRANCH  54  55
HETATM   55  C   UNK N   1      20.536   9.852   2.105  0.00  0.00     0.138 C 
BRANCH  55  56
HETATM   56  N   UNK N   1      21.680  10.181   1.277  0.00  0.00    -0.227 N 
HETATM   57  C   UNK N   1      21.821  11.422   0.595  0.00  0.00     0.665 C 
HETATM   58  N   UNK N   1      20.876  12.288   0.611  0.00  0.00    -0.235 N 
HETATM   59  N   UNK N   1      23.023  11.714  -0.088  0.00  0.00    -0.235 N 
HETATM   60  H   UNK N   1      20.626  13.217   0.817  0.00  0.00     0.174 HD
ATOM     61  HN  UNK N   1      20.036  11.823   0.266  1.00  0.00     0.174 HD
HETATM   62  H   UNK N   1      23.962  11.433   0.001  0.00  0.00     0.174 HD
HETATM   63  H   UNK N   1      22.890  12.352  -0.826  0.00  0.00     0.174 HD
HETATM   64  H   UNK N   1      22.398   9.514   1.184  0.00  0.00     0.177 HD
ENDBRANCH  55  56
ENDBRANCH  54  55
ENDBRANCH  53  54
ENDBRANCH  42  53
ENDBRANCH  39  42
ENDBRANCH  33  38
ENDBRANCH   1  31
BRANCH   4  65
HETATM   65  C   UNK N   1      20.913  14.575   3.545  0.00  0.00     0.137 C 
BRANCH  65  66
HETATM   66  C   UNK N   1      19.995  15.754   3.391  0.00  0.00     0.217 C 
HETATM   67  O   UNK N   1      19.440  16.222   4.371  0.00  0.00    -0.274 OA
HETATM   68  N   UNK N   1      19.794  16.310   2.179  0.00  0.00    -0.370 N 
HETATM   69  H   UNK N   1      18.905  16.412   1.769  0.00  0.00     0.159 HD
HETATM   70  H   UNK N   1      20.578  16.630   1.677  0.00  0.00     0.159 HD
ENDBRANCH  65  66
ENDBRANCH   4  65
BRANCH  11  71
HETATM   71  C   UNK N   1      23.577  18.407   4.656  0.00  0.00     0.044 C 
BRANCH  71  72
HETATM   72  C   UNK N   1      23.851  19.442   3.580  0.00  0.00     0.105 C 
BRANCH  72  73
HETATM   73  C   UNK N   1      22.563  20.048   3.132  0.00  0.00     0.215 C 
HETATM   74  N   UNK N   1      21.434  19.313   3.127  0.00  0.00    -0.370 N 
HETATM   75  H   UNK N   1      20.488  19.442   3.367  0.00  0.00     0.159 HD
HETATM   76  H   UNK N   1      21.599  18.402   2.791  0.00  0.00     0.159 HD
HETATM   77  O   UNK N   1      22.533  21.212   2.771  0.00  0.00    -0.274 OA
ENDBRANCH  72  73
ENDBRANCH  71  72
ENDBRANCH  11  71
BRANCH  22  78
HETATM   78  C   UNK N   1      31.786  14.128   4.485  0.00  0.00     0.073 C 
BRANCH  78  79
HETATM   79  C   UNK N   1      32.022  14.985   5.686  0.00  0.00    -0.056 A 
HETATM   80  C   UNK N   1      32.013  14.405   6.961  0.00  0.00     0.010 A 
HETATM   81  C   UNK N   1      32.188  15.196   8.095  0.00  0.00     0.037 A 
HETATM   82  C   UNK N   1      32.379  16.572   7.960  0.00  0.00     0.065 A 
HETATM   83  C   UNK N   1      32.406  17.154   6.687  0.00  0.00     0.037 A 
HETATM   84  C   UNK N   1      32.227  16.360   5.548  0.00  0.00     0.010 A 
BRANCH  82  85
HETATM   85  O   UNK N   1      32.537  17.335   9.052  0.00  0.00    -0.361 OA
HETATM   86  H   UNK N   1      31.848  17.654   9.600  0.00  0.00     0.217 HD
ENDBRANCH  82  85
ENDBRANCH  78  79
ENDBRANCH  22  78
BRANCH  14  87
HETATM   87  C   UNK N   1      28.859  18.013   4.519  0.00  0.00     0.073 C 
BRANCH  87  88
HETATM   88  C   UNK N   1      28.074  19.118   5.157  0.00  0.00    -0.056 A 
HETATM   89  C   UNK N   1      27.464  20.096   4.365  0.00  0.00     0.007 A 
HETATM   90  C   UNK N   1      26.748  21.137   4.966  0.00  0.00     0.001 A 
HETATM   91  C   UNK N   1      26.650  21.208   6.359  0.00  0.00     0.000 A 
HETATM   92  C   UNK N   1      27.272  20.241   7.153  0.00  0.00     0.001 A 
HETATM   93  C   UNK N   1      27.984  19.201   6.553  0.00  0.00     0.007 A 
ENDBRANCH  87  88
ENDBRANCH  14  87
TORSDOF 20
ENDMDL
MODEL 9
REMARK VINA RESULT:      -7.5      3.865     11.264
REMARK  20 active torsions:
REMARK  status: ('A' for Active; 'I' for Inactive)
REMARK       I    between atoms: N_1  and  C_2 
REMARK    1  A    between atoms: C_2  and  C_3 
REMARK    2  A    between atoms: C_3  and  N_4 
REMARK       I    between atoms: N_4  and  C_5 
REMARK    3  A    between atoms: C_5  and  C_6 
REMARK    4  A    between atoms: C_6  and  N_7 
REMARK    5  A    between atoms: C_6  and  C_12 
REMARK       I    between atoms: N_7  and  C_8 
REMARK    6  A    between atoms: C_16  and  C_8 
REMARK    7  A    between atoms: C_12  and  C_13 
REMARK    8  A    between atoms: C_13  and  C_14 
REMARK    9  A    between atoms: C_14  and  N_15 
REMARK       I    between atoms: N_15  and  C_72 
REMARK       I    between atoms: N_18  and  C_21 
REMARK   10  A    between atoms: C_22  and  C_21 
REMARK   11  A    between atoms: C_25  and  C_32 
REMARK   12  A    between atoms: C_32  and  C_33 
REMARK       I    between atoms: C_33  and  N_35 
REMARK   13  A    between atoms: C_37  and  C_39 
REMARK   14  A    between atoms: C_39  and  C_40 
REMARK   15  A    between atoms: C_40  and  C_41 
REMARK       I    between atoms: C_41  and  N_42 
REMARK   16  A    between atoms: C_45  and  C_47 
REMARK   17  A    between atoms: C_48  and  C_47 
REMARK   18  A    between atoms: C_60  and  C_63 
REMARK   19  A    between atoms: C_63  and  C_65 
REMARK   20  A    between atoms: C_67  and  O_71 
REMARK       I    between atoms: C_72  and  N_75 
ROOT
HETATM    1  C   UNK N   1      30.663  15.179   5.307  0.00  0.00     0.186 C 
HETATM    2  N   UNK N   1      31.257  15.971   4.257  0.00  0.00    -0.345 N 
HETATM    3  C   UNK N   1      32.509  15.773   3.745  0.00  0.00     0.241 C 
HETATM    4  C   UNK N   1      33.412  14.602   4.116  0.00  0.00     0.185 C 
HETATM    5  N   UNK N   1      32.773  13.540   4.854  0.00  0.00    -0.346 N 
HETATM    6  C   UNK N   1      29.367  14.454   4.965  0.00  0.00     0.120 C 
HETATM    7  S   UNK N   1      27.849  15.367   5.336  0.00  0.00    -0.095 SA
HETATM    8  S   UNK N   1      28.146  16.843   3.816  0.00  0.00    -0.097 SA
HETATM    9  O   UNK N   1      32.925  16.563   2.913  0.00  0.00    -0.271 OA
HETATM   10  C   UNK N   1      32.168  12.517   4.219  0.00  0.00     0.241 C 
HETATM   11  C   UNK N   1      32.118  12.498   2.710  0.00  0.00     0.177 C 
HETATM   12  O   UNK N   1      31.702  11.597   4.874  0.00  0.00    -0.271 OA
HETATM   13  N   UNK N   1      30.832  12.680   2.055  0.00  0.00    -0.346 N 
HETATM   14  C   UNK N   1      28.417  12.527   1.615  0.00  0.00     0.180 C 
HETATM   15  C   UNK N   1      29.605  12.317   2.514  0.00  0.00     0.241 C 
HETATM   16  N   UNK N   1      25.599  15.241   3.309  0.00  0.00    -0.347 N 
HETATM   17  C   UNK N   1      25.011  16.254   3.995  0.00  0.00     0.219 C 
HETATM   18  C   UNK N   1      25.469  17.655   3.759  0.00  0.00     0.114 C 
HETATM   19  C   UNK N   1      26.804  17.898   4.468  0.00  0.00     0.095 C 
HETATM   20  C   UNK N   1      26.590  12.993   3.249  0.00  0.00     0.241 C 
HETATM   21  O   UNK N   1      26.759  11.916   3.798  0.00  0.00    -0.271 OA
HETATM   22  C   UNK N   1      25.427  13.859   3.684  0.00  0.00     0.180 C 
HETATM   23  N   UNK N   1      27.383  13.370   2.203  0.00  0.00    -0.346 N 
HETATM   24  O   UNK N   1      29.471  11.753   3.587  0.00  0.00    -0.271 OA
HETATM   25  O   UNK N   1      24.200  16.026   4.880  0.00  0.00    -0.274 OA
HETATM   26  H   UNK N   1      30.723  16.709   3.882  0.00  0.00     0.163 HD
HETATM   27  H   UNK N   1      32.781  13.563   5.839  0.00  0.00     0.163 HD
HETATM   28  H   UNK N   1      30.852  13.119   1.175  0.00  0.00     0.163 HD
HETATM   29  H   UNK N   1      26.162  15.457   2.530  0.00  0.00     0.163 HD
HETATM   30  H   UNK N   1      27.248  14.268   1.822  0.00  0.00     0.163 HD
ENDROOT
BRANCH   1  31
HETATM   31  C   UNK N   1      31.138  15.532   6.685  0.00  0.00     0.244 C 
HETATM   32  N   UNK N   1      30.758  16.663   7.354  0.00  0.00    -0.337 N 
HETATM   33  C   UNK N   1      31.392  17.068   8.572  0.00  0.00     0.179 C 
HETATM   34  C   UNK N   1      29.707  17.534   6.930  0.00  0.00     0.127 C 
HETATM   35  C   UNK N   1      30.639  18.293   9.052  0.00  0.00     0.037 C 
HETATM   36  C   UNK N   1      29.416  18.406   8.141  0.00  0.00     0.022 C 
HETATM   37  O   UNK N   1      31.975  14.794   7.192  0.00  0.00    -0.271 OA
BRANCH  33  38
HETATM   38  C   UNK N   1      32.887  17.268   8.347  0.00  0.00     0.241 C 
HETATM   39  N   UNK N   1      33.882  16.739   9.124  0.00  0.00    -0.346 N 
HETATM   40  H   UNK N   1      34.761  17.174   9.030  0.00  0.00     0.163 HD
HETATM   41  O   UNK N   1      33.210  18.025   7.449  0.00  0.00    -0.271 OA
BRANCH  39  42
HETATM   42  C   UNK N   1      33.839  15.633  10.068  0.00  0.00     0.176 C 
BRANCH  42  43
HETATM   43  C   UNK N   1      35.013  15.744  11.013  0.00  0.00     0.240 C 
HETATM   44  N   UNK N   1      35.162  14.877  12.036  0.00  0.00    -0.351 N 
HETATM   45  H   UNK N   1      34.504  14.151  12.140  0.00  0.00     0.163 HD
HETATM   46  O   UNK N   1      35.827  16.643  10.847  0.00  0.00    -0.271 OA
BRANCH  44  47
HETATM   47  C   UNK N   1      36.243  14.968  12.980  0.00  0.00     0.225 C 
BRANCH  47  48
HETATM   48  C   UNK N   1      36.062  13.905  14.005  0.00  0.00     0.233 C 
HETATM   49  N   UNK N   1      37.127  13.432  14.679  0.00  0.00    -0.369 N 
HETATM   50  H   UNK N   1      37.188  13.321  15.655  0.00  0.00     0.159 HD
HETATM   51  H   UNK N   1      37.916  13.175  14.148  0.00  0.00     0.159 HD
HETATM   52  O   UNK N   1      34.947  13.474  14.246  0.00  0.00    -0.272 OA
ENDBRANCH  47  48
ENDBRANCH  44  47
ENDBRANCH  42  43
BRANCH  42  53
HETATM   53  C   UNK N   1      33.515  14.263   9.438  0.00  0.00     0.036 C 
BRANCH  53  54
HETATM   54  C   UNK N   1      34.647  13.637   8.618  0.00  0.00     0.023 C 
BRANCH  54  55
HETATM   55  C   UNK N   1      35.234  12.425   9.336  0.00  0.00     0.138 C 
BRANCH  55  56
HETATM   56  N   UNK N   1      34.365  11.935  10.390  0.00  0.00    -0.227 N 
HETATM   57  C   UNK N   1      34.847  11.299  11.568  0.00  0.00     0.665 C 
HETATM   58  N   UNK N   1      36.096  11.047  11.712  0.00  0.00    -0.235 N 
HETATM   59  N   UNK N   1      33.944  10.965  12.602  0.00  0.00    -0.235 N 
HETATM   60  H   UNK N   1      36.890  11.166  12.280  0.00  0.00     0.174 HD
ATOM     61  HN  UNK N   1      36.385  10.494  10.906  1.00  0.00     0.174 HD
HETATM   62  H   UNK N   1      33.074  11.309  12.907  0.00  0.00     0.174 HD
HETATM   63  H   UNK N   1      34.262  10.210  13.149  0.00  0.00     0.174 HD
HETATM   64  H   UNK N   1      33.393  12.049  10.284  0.00  0.00     0.177 HD
ENDBRANCH  55  56
ENDBRANCH  54  55
ENDBRANCH  53  54
ENDBRANCH  42  53
ENDBRANCH  39  42
ENDBRANCH  33  38
ENDBRANCH   1  31
BRANCH   4  65
HETATM   65  C   UNK N   1      34.727  15.017   4.772  0.00  0.00     0.137 C 
BRANCH  65  66
HETATM   66  C   UNK N   1      35.741  13.911   4.710  0.00  0.00     0.217 C 
HETATM   67  O   UNK N   1      35.658  13.061   3.840  0.00  0.00    -0.274 OA
HETATM   68  N   UNK N   1      36.754  13.863   5.599  0.00  0.00    -0.370 N 
HETATM   69  H   UNK N   1      36.929  13.088   6.180  0.00  0.00     0.159 HD
HETATM   70  H   UNK N   1      37.349  14.644   5.671  0.00  0.00     0.159 HD
ENDBRANCH  65  66
ENDBRANCH   4  65
BRANCH  11  71
HETATM   71  C   UNK N   1      33.015  11.475   2.026  0.00  0.00     0.044 C 
BRANCH  71  72
HETATM   72  C   UNK N   1      32.247  10.279   1.495  0.00  0.00     0.105 C 
BRANCH  72  73
HETATM   73  C   UNK N   1      32.141   9.242   2.562  0.00  0.00     0.215 C 
HETATM   74  N   UNK N   1      30.969   9.033   3.190  0.00  0.00    -0.370 N 
HETATM   75  H   UNK N   1      30.444   8.260   3.501  0.00  0.00     0.159 HD
HETATM   76  H   UNK N   1      30.514   9.882   3.395  0.00  0.00     0.159 HD
HETATM   77  O   UNK N   1      33.120   8.581   2.865  0.00  0.00    -0.274 OA
ENDBRANCH  72  73
ENDBRANCH  71  72
ENDBRANCH  11  71
BRANCH  22  78
HETATM   78  C   UNK N   1      24.034  13.316   3.328  0.00  0.00     0.073 C 
BRANCH  78  79
HETATM   79  C   UNK N   1      23.189  13.038   4.529  0.00  0.00    -0.056 A 
HETATM   80  C   UNK N   1      21.825  13.355   4.503  0.00  0.00     0.010 A 
HETATM   81  C   UNK N   1      21.032  13.142   5.630  0.00  0.00     0.037 A 
HETATM   82  C   UNK N   1      21.598  12.605   6.786  0.00  0.00     0.065 A 
HETATM   83  C   UNK N   1      22.957  12.270   6.812  0.00  0.00     0.037 A 
HETATM   84  C   UNK N   1      23.754  12.487   5.682  0.00  0.00     0.010 A 
BRANCH  82  85
HETATM   85  O   UNK N   1      20.836  12.410   7.874  0.00  0.00    -0.361 OA
HETATM   86  H   UNK N   1      20.001  11.988   7.887  0.00  0.00     0.217 HD
ENDBRANCH  82  85
ENDBRANCH  78  79
ENDBRANCH  22  78
BRANCH  14  87
HETATM   87  C   UNK N   1      27.806  11.219   1.084  0.00  0.00     0.073 C 
BRANCH  87  88
HETATM   88  C   UNK N   1      28.709  10.438   0.178  0.00  0.00    -0.056 A 
HETATM   89  C   UNK N   1      29.440  11.090  -0.820  0.00  0.00     0.007 A 
HETATM   90  C   UNK N   1      30.267  10.354  -1.676  0.00  0.00     0.001 A 
HETATM   91  C   UNK N   1      30.356   8.965  -1.542  0.00  0.00     0.000 A 
HETATM   92  C   UNK N   1      29.615   8.310  -0.555  0.00  0.00     0.001 A 
HETATM   93  C   UNK N   1      28.792   9.045   0.301  0.00  0.00     0.007 A 
ENDBRANCH  87  88
ENDBRANCH  14  87
TORSDOF 20
ENDMDL
