MODEL 1
REMARK VINA RESULT:      -5.7      0.000      0.000
REMARK  8 active torsions:
REMARK  status: ('A' for Active; 'I' for Inactive)
REMARK    1  A    between atoms: N_2  and  C_9 
REMARK    2  A    between atoms: N_2  and  C_11 
REMARK    3  A    between atoms: N_2  and  C_12 
REMARK    4  A    between atoms: N_3  and  C_8 
REMARK    5  A    between atoms: N_3  and  C_13 
REMARK    6  A    between atoms: C_6  and  C_7 
REMARK    7  A    between atoms: C_6  and  C_8 
REMARK    8  A    between atoms: C_7  and  C_9 
ROOT
HETATM    1 Cl   UNK N   1      26.881  30.936  -2.969  0.00  0.00    -0.084 Cl
HETATM    2  N   UNK N   1      28.002  28.384  -7.256  0.00  0.00    -0.365 N 
ATOM      3  HN  UNK N   1      28.673  29.125  -7.458  1.00  0.00     0.165 HD
HETATM    4  C   UNK N   1      26.180  26.369  -6.715  0.00  0.00     0.042 A 
HETATM    5  C   UNK N   1      26.317  27.442  -5.825  0.00  0.00     0.017 A 
HETATM    6  C   UNK N   1      26.970  26.318  -7.866  0.00  0.00     0.047 A 
HETATM    7  C   UNK N   1      27.256  28.455  -6.122  0.00  0.00     0.046 A 
HETATM    8  C   UNK N   1      25.571  27.511  -4.642  0.00  0.00     0.018 A 
HETATM    9  C   UNK N   1      27.874  27.346  -8.128  0.00  0.00     0.090 A 
HETATM   10  C   UNK N   1      27.427  29.523  -5.238  0.00  0.00     0.054 A 
HETATM   11  C   UNK N   1      25.748  28.584  -3.765  0.00  0.00     0.025 A 
HETATM   12  C   UNK N   1      26.673  29.588  -4.064  0.00  0.00     0.036 A 
ENDROOT
BRANCH   4  13
HETATM   13  N   UNK N   1      25.331  25.289  -6.406  0.00  0.00    -0.385 N 
HETATM   14  H   UNK N   1      24.360  25.338  -6.561  0.00  0.00     0.160 HD
BRANCH  13  15
HETATM   15  C   UNK N   1      25.944  24.114  -5.857  0.00  0.00     0.077 C 
HETATM   16  C   UNK N   1      25.679  22.845  -6.651  0.00  0.00     0.032 C 
BRANCH  15  17
HETATM   17  C   UNK N   1      25.944  24.096  -4.331  0.00  0.00     0.026 C 
BRANCH  17  18
HETATM   18  C   UNK N   1      27.302  24.311  -3.692  0.00  0.00     0.032 C 
BRANCH  18  19
HETATM   19  C   UNK N   1      28.464  24.237  -4.691  0.00  0.00     0.272 C 
BRANCH  19  20
HETATM   20  N   UNK N   1      29.284  23.034  -4.492  0.00  0.00     0.087 N 
BRANCH  20  21
HETATM   21  C   UNK N   1      30.586  23.417  -3.929  0.00  0.00     0.268 C 
HETATM   22  C   UNK N   1      30.788  22.787  -2.565  0.00  0.00     0.037 C 
ENDBRANCH  20  21
BRANCH  20  23
HETATM   23  C   UNK N   1      29.371  22.361  -5.798  0.00  0.00     0.268 C 
HETATM   24  C   UNK N   1      30.287  21.143  -5.851  0.00  0.00     0.037 C 
ENDBRANCH  20  23
ENDBRANCH  19  20
ENDBRANCH  18  19
ENDBRANCH  17  18
ENDBRANCH  15  17
ENDBRANCH  13  15
ENDBRANCH   4  13
TORSDOF 8
ENDMDL
MODEL 2
REMARK VINA RESULT:      -5.3      1.991      3.151
REMARK  8 active torsions:
REMARK  status: ('A' for Active; 'I' for Inactive)
REMARK    1  A    between atoms: N_2  and  C_9 
REMARK    2  A    between atoms: N_2  and  C_11 
REMARK    3  A    between atoms: N_2  and  C_12 
REMARK    4  A    between atoms: N_3  and  C_8 
REMARK    5  A    between atoms: N_3  and  C_13 
REMARK    6  A    between atoms: C_6  and  C_7 
REMARK    7  A    between atoms: C_6  and  C_8 
REMARK    8  A    between atoms: C_7  and  C_9 
ROOT
HETATM    1 Cl   UNK N   1      30.262  30.152  -8.494  0.00  0.00    -0.084 Cl
HETATM    2  N   UNK N   1      27.115  29.757  -4.482  0.00  0.00    -0.365 N 
ATOM      3  HN  UNK N   1      27.522  30.630  -4.146  1.00  0.00     0.165 HD
HETATM    4  C   UNK N   1      26.010  27.384  -5.389  0.00  0.00     0.042 A 
HETATM    5  C   UNK N   1      27.020  28.010  -6.130  0.00  0.00     0.017 A 
HETATM    6  C   UNK N   1      25.560  27.965  -4.201  0.00  0.00     0.047 A 
HETATM    7  C   UNK N   1      27.565  29.221  -5.648  0.00  0.00     0.046 A 
HETATM    8  C   UNK N   1      27.472  27.479  -7.345  0.00  0.00     0.018 A 
HETATM    9  C   UNK N   1      26.135  29.154  -3.754  0.00  0.00     0.090 A 
HETATM   10  C   UNK N   1      28.557  29.876  -6.382  0.00  0.00     0.054 A 
HETATM   11  C   UNK N   1      28.466  28.140  -8.071  0.00  0.00     0.025 A 
HETATM   12  C   UNK N   1      29.008  29.335  -7.589  0.00  0.00     0.036 A 
ENDROOT
BRANCH   4  13
HETATM   13  N   UNK N   1      25.369  26.232  -5.885  0.00  0.00    -0.385 N 
HETATM   14  H   UNK N   1      24.480  26.279  -6.304  0.00  0.00     0.160 HD
BRANCH  13  15
HETATM   15  C   UNK N   1      26.069  24.988  -5.753  0.00  0.00     0.077 C 
HETATM   16  C   UNK N   1      25.933  24.066  -6.953  0.00  0.00     0.032 C 
BRANCH  15  17
HETATM   17  C   UNK N   1      26.039  24.431  -4.331  0.00  0.00     0.026 C 
BRANCH  17  18
HETATM   18  C   UNK N   1      27.336  24.580  -3.562  0.00  0.00     0.032 C 
BRANCH  18  19
HETATM   19  C   UNK N   1      28.486  23.743  -4.138  0.00  0.00     0.272 C 
BRANCH  19  20
HETATM   20  N   UNK N   1      29.592  24.585  -4.617  0.00  0.00     0.087 N 
BRANCH  20  21
HETATM   21  C   UNK N   1      30.872  23.982  -4.222  0.00  0.00     0.268 C 
HETATM   22  C   UNK N   1      30.772  23.369  -2.839  0.00  0.00     0.037 C 
ENDBRANCH  20  21
BRANCH  20  23
HETATM   23  C   UNK N   1      29.369  25.931  -4.065  0.00  0.00     0.268 C 
HETATM   24  C   UNK N   1      30.323  27.012  -4.561  0.00  0.00     0.037 C 
ENDBRANCH  20  23
ENDBRANCH  19  20
ENDBRANCH  18  19
ENDBRANCH  17  18
ENDBRANCH  15  17
ENDBRANCH  13  15
ENDBRANCH   4  13
TORSDOF 8
ENDMDL
MODEL 3
REMARK VINA RESULT:      -5.2     15.862     18.508
REMARK  8 active torsions:
REMARK  status: ('A' for Active; 'I' for Inactive)
REMARK    1  A    between atoms: N_2  and  C_9 
REMARK    2  A    between atoms: N_2  and  C_11 
REMARK    3  A    between atoms: N_2  and  C_12 
REMARK    4  A    between atoms: N_3  and  C_8 
REMARK    5  A    between atoms: N_3  and  C_13 
REMARK    6  A    between atoms: C_6  and  C_7 
REMARK    7  A    between atoms: C_6  and  C_8 
REMARK    8  A    between atoms: C_7  and  C_9 
ROOT
HETATM    1 Cl   UNK N   1      22.961  11.578  12.813  0.00  0.00    -0.084 Cl
HETATM    2  N   UNK N   1      24.428  13.466   8.293  0.00  0.00    -0.365 N 
ATOM      3  HN  UNK N   1      25.382  13.229   8.564  1.00  0.00     0.165 HD
HETATM    4  C   UNK N   1      21.839  14.116   7.552  0.00  0.00     0.042 A 
HETATM    5  C   UNK N   1      22.081  13.532   8.802  0.00  0.00     0.017 A 
HETATM    6  C   UNK N   1      22.906  14.359   6.683  0.00  0.00     0.047 A 
HETATM    7  C   UNK N   1      23.410  13.207   9.154  0.00  0.00     0.046 A 
HETATM    8  C   UNK N   1      21.035  13.239   9.686  0.00  0.00     0.018 A 
HETATM    9  C   UNK N   1      24.204  14.035   7.076  0.00  0.00     0.090 A 
HETATM   10  C   UNK N   1      23.672  12.603  10.386  0.00  0.00     0.054 A 
HETATM   11  C   UNK N   1      21.308  12.636  10.917  0.00  0.00     0.025 A 
HETATM   12  C   UNK N   1      22.624  12.321  11.266  0.00  0.00     0.036 A 
ENDROOT
BRANCH   4  13
HETATM   13  N   UNK N   1      20.522  14.361   7.120  0.00  0.00    -0.385 N 
HETATM   14  H   UNK N   1      19.881  13.626   6.984  0.00  0.00     0.160 HD
BRANCH  13  15
HETATM   15  C   UNK N   1      20.154  15.728   6.887  0.00  0.00     0.077 C 
HETATM   16  C   UNK N   1      20.083  16.576   8.145  0.00  0.00     0.032 C 
BRANCH  15  17
HETATM   17  C   UNK N   1      19.121  15.889   5.775  0.00  0.00     0.026 C 
BRANCH  17  18
HETATM   18  C   UNK N   1      19.659  15.690   4.372  0.00  0.00     0.032 C 
BRANCH  18  19
HETATM   19  C   UNK N   1      20.930  16.502   4.086  0.00  0.00     0.272 C 
BRANCH  19  20
HETATM   20  N   UNK N   1      20.832  17.248   2.823  0.00  0.00     0.087 N 
BRANCH  20  21
HETATM   21  C   UNK N   1      19.667  18.141   2.872  0.00  0.00     0.268 C 
HETATM   22  C   UNK N   1      20.099  19.593   2.806  0.00  0.00     0.037 C 
ENDBRANCH  20  21
BRANCH  20  23
HETATM   23  C   UNK N   1      20.775  16.249   1.744  0.00  0.00     0.268 C 
HETATM   24  C   UNK N   1      19.794  16.552   0.617  0.00  0.00     0.037 C 
ENDBRANCH  20  23
ENDBRANCH  19  20
ENDBRANCH  18  19
ENDBRANCH  17  18
ENDBRANCH  15  17
ENDBRANCH  13  15
ENDBRANCH   4  13
TORSDOF 8
ENDMDL
MODEL 4
REMARK VINA RESULT:      -5.2     15.146     17.102
REMARK  8 active torsions:
REMARK  status: ('A' for Active; 'I' for Inactive)
REMARK    1  A    between atoms: N_2  and  C_9 
REMARK    2  A    between atoms: N_2  and  C_11 
REMARK    3  A    between atoms: N_2  and  C_12 
REMARK    4  A    between atoms: N_3  and  C_8 
REMARK    5  A    between atoms: N_3  and  C_13 
REMARK    6  A    between atoms: C_6  and  C_7 
REMARK    7  A    between atoms: C_6  and  C_8 
REMARK    8  A    between atoms: C_7  and  C_9 
ROOT
HETATM    1 Cl   UNK N   1      20.694  20.860   1.043  0.00  0.00    -0.084 Cl
HETATM    2  N   UNK N   1      19.677  16.125   2.684  0.00  0.00    -0.365 N 
ATOM      3  HN  UNK N   1      19.279  15.948   1.761  1.00  0.00     0.165 HD
HETATM    4  C   UNK N   1      20.752  16.598   5.192  0.00  0.00     0.042 A 
HETATM    5  C   UNK N   1      20.737  17.621   4.236  0.00  0.00     0.017 A 
HETATM    6  C   UNK N   1      20.233  15.342   4.871  0.00  0.00     0.047 A 
HETATM    7  C   UNK N   1      20.186  17.354   2.963  0.00  0.00     0.046 A 
HETATM    8  C   UNK N   1      21.281  18.883   4.507  0.00  0.00     0.018 A 
HETATM    9  C   UNK N   1      19.686  15.124   3.607  0.00  0.00     0.090 A 
HETATM   10  C   UNK N   1      20.180  18.352   1.986  0.00  0.00     0.054 A 
HETATM   11  C   UNK N   1      21.269  19.876   3.523  0.00  0.00     0.025 A 
HETATM   12  C   UNK N   1      20.718  19.610   2.266  0.00  0.00     0.036 A 
ENDROOT
BRANCH   4  13
HETATM   13  N   UNK N   1      21.384  16.792   6.436  0.00  0.00    -0.385 N 
HETATM   14  H   UNK N   1      22.243  17.268   6.508  0.00  0.00     0.160 HD
BRANCH  13  15
HETATM   15  C   UNK N   1      20.720  16.266   7.594  0.00  0.00     0.077 C 
HETATM   16  C   UNK N   1      19.999  17.312   8.427  0.00  0.00     0.032 C 
BRANCH  15  17
HETATM   17  C   UNK N   1      21.491  15.129   8.261  0.00  0.00     0.026 C 
BRANCH  17  18
HETATM   18  C   UNK N   1      20.725  14.387   9.338  0.00  0.00     0.032 C 
BRANCH  18  19
HETATM   19  C   UNK N   1      21.207  12.945   9.546  0.00  0.00     0.272 C 
BRANCH  19  20
HETATM   20  N   UNK N   1      22.333  12.874  10.487  0.00  0.00     0.087 N 
BRANCH  20  21
HETATM   21  C   UNK N   1      23.433  12.115   9.876  0.00  0.00     0.268 C 
HETATM   22  C   UNK N   1      24.683  12.196  10.732  0.00  0.00     0.037 C 
ENDBRANCH  20  21
BRANCH  20  23
HETATM   23  C   UNK N   1      21.811  12.276  11.726  0.00  0.00     0.268 C 
HETATM   24  C   UNK N   1      20.314  11.989  11.740  0.00  0.00     0.037 C 
ENDBRANCH  20  23
ENDBRANCH  19  20
ENDBRANCH  18  19
ENDBRANCH  17  18
ENDBRANCH  15  17
ENDBRANCH  13  15
ENDBRANCH   4  13
TORSDOF 8
ENDMDL
MODEL 5
REMARK VINA RESULT:      -5.0     15.540     20.227
REMARK  8 active torsions:
REMARK  status: ('A' for Active; 'I' for Inactive)
REMARK    1  A    between atoms: N_2  and  C_9 
REMARK    2  A    between atoms: N_2  and  C_11 
REMARK    3  A    between atoms: N_2  and  C_12 
REMARK    4  A    between atoms: N_3  and  C_8 
REMARK    5  A    between atoms: N_3  and  C_13 
REMARK    6  A    between atoms: C_6  and  C_7 
REMARK    7  A    between atoms: C_6  and  C_8 
REMARK    8  A    between atoms: C_7  and  C_9 
ROOT
HETATM    1 Cl   UNK N   1      40.331  11.738   8.871  0.00  0.00    -0.084 Cl
HETATM    2  N   UNK N   1      37.046  13.900  12.140  0.00  0.00    -0.365 N 
ATOM      3  HN  UNK N   1      37.600  13.483  12.888  1.00  0.00     0.165 HD
HETATM    4  C   UNK N   1      35.538  15.035  10.113  0.00  0.00     0.042 A 
HETATM    5  C   UNK N   1      36.654  14.250   9.796  0.00  0.00     0.017 A 
HETATM    6  C   UNK N   1      35.198  15.247  11.451  0.00  0.00     0.047 A 
HETATM    7  C   UNK N   1      37.409  13.686  10.848  0.00  0.00     0.046 A 
HETATM    8  C   UNK N   1      37.049  14.045   8.468  0.00  0.00     0.018 A 
HETATM    9  C   UNK N   1      35.962  14.660  12.458  0.00  0.00     0.090 A 
HETATM   10  C   UNK N   1      38.540  12.919  10.556  0.00  0.00     0.054 A 
HETATM   11  C   UNK N   1      38.181  13.274   8.186  0.00  0.00     0.025 A 
HETATM   12  C   UNK N   1      38.923  12.712   9.229  0.00  0.00     0.036 A 
ENDROOT
BRANCH   4  13
HETATM   13  N   UNK N   1      34.820  15.699   9.100  0.00  0.00    -0.385 N 
HETATM   14  H   UNK N   1      35.277  16.245   8.420  0.00  0.00     0.160 HD
BRANCH  13  15
HETATM   15  C   UNK N   1      33.394  15.544   9.101  0.00  0.00     0.077 C 
HETATM   16  C   UNK N   1      32.921  14.127   8.825  0.00  0.00     0.032 C 
BRANCH  15  17
HETATM   17  C   UNK N   1      32.661  16.744   8.506  0.00  0.00     0.026 C 
BRANCH  17  18
HETATM   18  C   UNK N   1      33.552  17.751   7.806  0.00  0.00     0.032 C 
BRANCH  18  19
HETATM   19  C   UNK N   1      33.766  17.445   6.318  0.00  0.00     0.272 C 
BRANCH  19  20
HETATM   20  N   UNK N   1      32.737  16.538   5.790  0.00  0.00     0.087 N 
BRANCH  20  21
HETATM   21  C   UNK N   1      33.383  15.356   5.202  0.00  0.00     0.268 C 
HETATM   22  C   UNK N   1      34.870  15.353   5.499  0.00  0.00     0.037 C 
ENDBRANCH  20  21
BRANCH  20  23
HETATM   23  C   UNK N   1      31.935  17.318   4.835  0.00  0.00     0.268 C 
HETATM   24  C   UNK N   1      32.332  17.176   3.370  0.00  0.00     0.037 C 
ENDBRANCH  20  23
ENDBRANCH  19  20
ENDBRANCH  18  19
ENDBRANCH  17  18
ENDBRANCH  15  17
ENDBRANCH  13  15
ENDBRANCH   4  13
TORSDOF 8
ENDMDL
MODEL 6
REMARK VINA RESULT:      -4.9     14.441     16.887
REMARK  8 active torsions:
REMARK  status: ('A' for Active; 'I' for Inactive)
REMARK    1  A    between atoms: N_2  and  C_9 
REMARK    2  A    between atoms: N_2  and  C_11 
REMARK    3  A    between atoms: N_2  and  C_12 
REMARK    4  A    between atoms: N_3  and  C_8 
REMARK    5  A    between atoms: N_3  and  C_13 
REMARK    6  A    between atoms: C_6  and  C_7 
REMARK    7  A    between atoms: C_6  and  C_8 
REMARK    8  A    between atoms: C_7  and  C_9 
ROOT
HETATM    1 Cl   UNK N   1      22.773  11.591  10.768  0.00  0.00    -0.084 Cl
HETATM    2  N   UNK N   1      20.052  15.565   9.051  0.00  0.00    -0.365 N 
ATOM      3  HN  UNK N   1      19.411  15.391   9.824  1.00  0.00     0.165 HD
HETATM    4  C   UNK N   1      21.789  16.042   6.946  0.00  0.00     0.042 A 
HETATM    5  C   UNK N   1      22.034  14.979   7.825  0.00  0.00     0.017 A 
HETATM    6  C   UNK N   1      20.675  16.860   7.143  0.00  0.00     0.047 A 
HETATM    7  C   UNK N   1      21.135  14.759   8.892  0.00  0.00     0.046 A 
HETATM    8  C   UNK N   1      23.160  14.158   7.684  0.00  0.00     0.018 A 
HETATM    9  C   UNK N   1      19.805  16.600   8.201  0.00  0.00     0.090 A 
HETATM   10  C   UNK N   1      21.371  13.719   9.795  0.00  0.00     0.054 A 
HETATM   11  C   UNK N   1      23.387  13.119   8.591  0.00  0.00     0.025 A 
HETATM   12  C   UNK N   1      22.492  12.900   9.643  0.00  0.00     0.036 A 
ENDROOT
BRANCH   4  13
HETATM   13  N   UNK N   1      22.714  16.358   5.932  0.00  0.00    -0.385 N 
HETATM   14  H   UNK N   1      23.590  16.755   6.142  0.00  0.00     0.160 HD
BRANCH  13  15
HETATM   15  C   UNK N   1      22.324  16.075   4.582  0.00  0.00     0.077 C 
HETATM   16  C   UNK N   1      22.994  14.850   3.983  0.00  0.00     0.032 C 
BRANCH  15  17
HETATM   17  C   UNK N   1      22.104  17.334   3.746  0.00  0.00     0.026 C 
BRANCH  17  18
HETATM   18  C   UNK N   1      22.703  18.598   4.329  0.00  0.00     0.032 C 
BRANCH  18  19
HETATM   19  C   UNK N   1      24.106  18.911   3.792  0.00  0.00     0.272 C 
BRANCH  19  20
HETATM   20  N   UNK N   1      25.093  19.033   4.874  0.00  0.00     0.087 N 
BRANCH  20  21
HETATM   21  C   UNK N   1      25.790  20.321   4.756  0.00  0.00     0.268 C 
HETATM   22  C   UNK N   1      27.232  20.196   5.210  0.00  0.00     0.037 C 
ENDBRANCH  20  21
BRANCH  20  23
HETATM   23  C   UNK N   1      25.979  17.863   4.772  0.00  0.00     0.268 C 
HETATM   24  C   UNK N   1      25.979  17.152   3.424  0.00  0.00     0.037 C 
ENDBRANCH  20  23
ENDBRANCH  19  20
ENDBRANCH  18  19
ENDBRANCH  17  18
ENDBRANCH  15  17
ENDBRANCH  13  15
ENDBRANCH   4  13
TORSDOF 8
ENDMDL
MODEL 7
REMARK VINA RESULT:      -4.9     21.581     25.495
REMARK  8 active torsions:
REMARK  status: ('A' for Active; 'I' for Inactive)
REMARK    1  A    between atoms: N_2  and  C_9 
REMARK    2  A    between atoms: N_2  and  C_11 
REMARK    3  A    between atoms: N_2  and  C_12 
REMARK    4  A    between atoms: N_3  and  C_8 
REMARK    5  A    between atoms: N_3  and  C_13 
REMARK    6  A    between atoms: C_6  and  C_7 
REMARK    7  A    between atoms: C_6  and  C_8 
REMARK    8  A    between atoms: C_7  and  C_9 
ROOT
HETATM    1 Cl   UNK N   1      34.581   9.568  17.877  0.00  0.00    -0.084 Cl
HETATM    2  N   UNK N   1      36.612  13.751  15.748  0.00  0.00    -0.365 N 
ATOM      3  HN  UNK N   1      37.095  13.902  16.634  1.00  0.00     0.165 HD
HETATM    4  C   UNK N   1      35.299  13.350  13.342  0.00  0.00     0.042 A 
HETATM    5  C   UNK N   1      35.103  12.454  14.401  0.00  0.00     0.017 A 
HETATM    6  C   UNK N   1      36.163  14.436  13.504  0.00  0.00     0.047 A 
HETATM    7  C   UNK N   1      35.787  12.679  15.616  0.00  0.00     0.046 A 
HETATM    8  C   UNK N   1      34.275  11.333  14.265  0.00  0.00     0.018 A 
HETATM    9  C   UNK N   1      36.807  14.629  14.726  0.00  0.00     0.090 A 
HETATM   10  C   UNK N   1      35.626  11.786  16.678  0.00  0.00     0.054 A 
HETATM   11  C   UNK N   1      34.118  10.446  15.334  0.00  0.00     0.025 A 
HETATM   12  C   UNK N   1      34.791  10.674  16.538  0.00  0.00     0.036 A 
ENDROOT
BRANCH   4  13
HETATM   13  N   UNK N   1      34.718  13.107  12.083  0.00  0.00    -0.385 N 
HETATM   14  H   UNK N   1      33.811  12.734  11.999  0.00  0.00     0.160 HD
BRANCH  13  15
HETATM   15  C   UNK N   1      35.506  13.425  10.928  0.00  0.00     0.077 C 
HETATM   16  C   UNK N   1      34.915  14.517  10.052  0.00  0.00     0.032 C 
BRANCH  15  17
HETATM   17  C   UNK N   1      36.180  12.203  10.307  0.00  0.00     0.026 C 
BRANCH  17  18
HETATM   18  C   UNK N   1      36.138  10.951  11.161  0.00  0.00     0.032 C 
BRANCH  18  19
HETATM   19  C   UNK N   1      37.489  10.600  11.796  0.00  0.00     0.272 C 
BRANCH  19  20
HETATM   20  N   UNK N   1      37.499   9.238  12.349  0.00  0.00     0.087 N 
BRANCH  20  21
HETATM   21  C   UNK N   1      36.117   8.771  12.522  0.00  0.00     0.268 C 
HETATM   22  C   UNK N   1      36.045   7.684  13.576  0.00  0.00     0.037 C 
ENDBRANCH  20  21
BRANCH  20  23
HETATM   23  C   UNK N   1      38.272   9.295  13.600  0.00  0.00     0.268 C 
HETATM   24  C   UNK N   1      38.307  10.653  14.292  0.00  0.00     0.037 C 
ENDBRANCH  20  23
ENDBRANCH  19  20
ENDBRANCH  18  19
ENDBRANCH  17  18
ENDBRANCH  15  17
ENDBRANCH  13  15
ENDBRANCH   4  13
TORSDOF 8
ENDMDL
MODEL 8
REMARK VINA RESULT:      -4.8     17.884     22.477
REMARK  8 active torsions:
REMARK  status: ('A' for Active; 'I' for Inactive)
REMARK    1  A    between atoms: N_2  and  C_9 
REMARK    2  A    between atoms: N_2  and  C_11 
REMARK    3  A    between atoms: N_2  and  C_12 
REMARK    4  A    between atoms: N_3  and  C_8 
REMARK    5  A    between atoms: N_3  and  C_13 
REMARK    6  A    between atoms: C_6  and  C_7 
REMARK    7  A    between atoms: C_6  and  C_8 
REMARK    8  A    between atoms: C_7  and  C_9 
ROOT
HETATM    1 Cl   UNK N   1      34.977  13.064  17.837  0.00  0.00    -0.084 Cl
HETATM    2  N   UNK N   1      34.232  11.385  13.065  0.00  0.00    -0.365 N 
ATOM      3  HN  UNK N   1      33.536  10.749  13.455  1.00  0.00     0.165 HD
HETATM    4  C   UNK N   1      36.120  13.109  12.000  0.00  0.00     0.042 A 
HETATM    5  C   UNK N   1      35.878  13.106  13.379  0.00  0.00     0.017 A 
HETATM    6  C   UNK N   1      35.400  12.248  11.169  0.00  0.00     0.047 A 
HETATM    7  C   UNK N   1      34.908  12.220  13.897  0.00  0.00     0.046 A 
HETATM    8  C   UNK N   1      36.552  13.981  14.242  0.00  0.00     0.018 A 
HETATM    9  C   UNK N   1      34.461  11.379  11.723  0.00  0.00     0.090 A 
HETATM   10  C   UNK N   1      34.633  12.216  15.267  0.00  0.00     0.054 A 
HETATM   11  C   UNK N   1      36.272  13.968  15.611  0.00  0.00     0.025 A 
HETATM   12  C   UNK N   1      35.315  13.086  16.122  0.00  0.00     0.036 A 
ENDROOT
BRANCH   4  13
HETATM   13  N   UNK N   1      37.004  14.047  11.431  0.00  0.00    -0.385 N 
HETATM   14  H   UNK N   1      37.973  14.007  11.599  0.00  0.00     0.160 HD
BRANCH  13  15
HETATM   15  C   UNK N   1      36.430  15.062  10.597  0.00  0.00     0.077 C 
HETATM   16  C   UNK N   1      35.414  15.946  11.301  0.00  0.00     0.032 C 
BRANCH  15  17
HETATM   17  C   UNK N   1      36.202  14.599   9.160  0.00  0.00     0.026 C 
BRANCH  17  18
HETATM   18  C   UNK N   1      34.833  14.927   8.596  0.00  0.00     0.032 C 
BRANCH  18  19
HETATM   19  C   UNK N   1      34.826  16.172   7.700  0.00  0.00     0.272 C 
BRANCH  19  20
HETATM   20  N   UNK N   1      33.756  16.119   6.694  0.00  0.00     0.087 N 
BRANCH  20  21
HETATM   21  C   UNK N   1      34.337  15.816   5.379  0.00  0.00     0.268 C 
HETATM   22  C   UNK N   1      33.832  14.482   4.864  0.00  0.00     0.037 C 
ENDBRANCH  20  21
BRANCH  20  23
HETATM   23  C   UNK N   1      33.054  17.411   6.754  0.00  0.00     0.268 C 
HETATM   24  C   UNK N   1      33.084  18.115   8.105  0.00  0.00     0.037 C 
ENDBRANCH  20  23
ENDBRANCH  19  20
ENDBRANCH  18  19
ENDBRANCH  17  18
ENDBRANCH  15  17
ENDBRANCH  13  15
ENDBRANCH   4  13
TORSDOF 8
ENDMDL
MODEL 9
REMARK VINA RESULT:      -4.8      2.558      4.582
REMARK  8 active torsions:
REMARK  status: ('A' for Active; 'I' for Inactive)
REMARK    1  A    between atoms: N_2  and  C_9 
REMARK    2  A    between atoms: N_2  and  C_11 
REMARK    3  A    between atoms: N_2  and  C_12 
REMARK    4  A    between atoms: N_3  and  C_8 
REMARK    5  A    between atoms: N_3  and  C_13 
REMARK    6  A    between atoms: C_6  and  C_7 
REMARK    7  A    between atoms: C_6  and  C_8 
REMARK    8  A    between atoms: C_7  and  C_9 
ROOT
HETATM    1 Cl   UNK N   1      28.193  26.332 -10.555  0.00  0.00    -0.084 Cl
HETATM    2  N   UNK N   1      25.178  26.454  -6.427  0.00  0.00    -0.365 N 
ATOM      3  HN  UNK N   1      24.609  25.743  -6.887  1.00  0.00     0.165 HD
HETATM    4  C   UNK N   1      26.716  28.386  -5.172  0.00  0.00     0.042 A 
HETATM    5  C   UNK N   1      27.076  27.928  -6.446  0.00  0.00     0.017 A 
HETATM    6  C   UNK N   1      25.589  27.859  -4.539  0.00  0.00     0.047 A 
HETATM    7  C   UNK N   1      26.277  26.940  -7.063  0.00  0.00     0.046 A 
HETATM    8  C   UNK N   1      28.220  28.404  -7.098  0.00  0.00     0.018 A 
HETATM    9  C   UNK N   1      24.820  26.895  -5.189  0.00  0.00     0.090 A 
HETATM   10  C   UNK N   1      26.629  26.450  -8.323  0.00  0.00     0.054 A 
HETATM   11  C   UNK N   1      28.563  27.910  -8.360  0.00  0.00     0.025 A 
HETATM   12  C   UNK N   1      27.767  26.937  -8.971  0.00  0.00     0.036 A 
ENDROOT
BRANCH   4  13
HETATM   13  N   UNK N   1      27.541  29.293  -4.480  0.00  0.00    -0.385 N 
HETATM   14  H   UNK N   1      27.596  30.241  -4.742  0.00  0.00     0.160 HD
BRANCH  13  15
HETATM   15  C   UNK N   1      28.297  28.778  -3.376  0.00  0.00     0.077 C 
HETATM   16  C   UNK N   1      28.163  29.587  -2.097  0.00  0.00     0.032 C 
BRANCH  15  17
HETATM   17  C   UNK N   1      29.644  28.191  -3.793  0.00  0.00     0.026 C 
BRANCH  17  18
HETATM   18  C   UNK N   1      29.820  26.718  -3.482  0.00  0.00     0.032 C 
BRANCH  18  19
HETATM   19  C   UNK N   1      29.391  25.797  -4.631  0.00  0.00     0.272 C 
BRANCH  19  20
HETATM   20  N   UNK N   1      29.396  24.382  -4.232  0.00  0.00     0.087 N 
BRANCH  20  21
HETATM   21  C   UNK N   1      28.278  24.131  -3.312  0.00  0.00     0.268 C 
HETATM   22  C   UNK N   1      26.949  24.313  -4.020  0.00  0.00     0.037 C 
ENDBRANCH  20  21
BRANCH  20  23
HETATM   23  C   UNK N   1      30.720  24.110  -3.652  0.00  0.00     0.268 C 
HETATM   24  C   UNK N   1      30.756  23.044  -2.563  0.00  0.00     0.037 C 
ENDBRANCH  20  23
ENDBRANCH  19  20
ENDBRANCH  18  19
ENDBRANCH  17  18
ENDBRANCH  15  17
ENDBRANCH  13  15
ENDBRANCH   4  13
TORSDOF 8
ENDMDL
