REMARK  0 active torsions:
REMARK  status: ('A' for Active; 'I' for Inactive)
ROOT
HETATM    1  N   UNK N   1       2.342  -1.308  -0.000  0.00  0.00    -0.312 N 
HETATM    2  N   UNK N   1       1.247  -0.562  -0.000  0.00  0.00    -0.312 N 
ATOM      3  HN  UNK N   1       0.291  -0.916  -0.000  1.00  0.00     0.186 HD
HETATM    4  C   UNK N   1       2.974   0.792   0.000  0.00  0.00    -0.028 A 
HETATM    5  C   UNK N   1       3.423  -0.505   0.000  0.00  0.00     0.115 A 
HETATM    6  C   UNK N   1       3.817   2.014   0.000  0.00  0.00     0.051 C 
HETATM    7  C   UNK N   1       1.600   0.738  -0.000  0.00  0.00     0.115 A 
HETATM    8  H   UNK N   1       2.362  -2.292  -0.000  0.00  0.00     0.186 HD
ENDROOT
TORSDOF 0
