REMARK  9 active torsions:
REMARK  status: ('A' for Active; 'I' for Inactive)
REMARK    1  A    between atoms: O_1  and  C_9 
REMARK    2  A    between atoms: O_1  and  C_10 
REMARK    3  A    between atoms: O_2  and  C_6 
REMARK    4  A    between atoms: O_3  and  C_14 
REMARK    5  A    between atoms: O_3  and  C_21 
REMARK    6  A    between atoms: N_5  and  C_7 
REMARK    7  A    between atoms: N_5  and  C_8 
REMARK    8  A    between atoms: C_6  and  C_7 
REMARK    9  A    between atoms: C_6  and  C_9 
ROOT
HETATM    1  C   UNK N   1       2.720   0.031  -0.171  0.00  0.00     0.075 A 
HETATM    2  C   UNK N   1       1.557   0.813  -0.147  0.00  0.00    -0.020 A 
HETATM    3  C   UNK N   1       1.648   2.208   0.010  0.00  0.00    -0.019 A 
HETATM    4  C   UNK N   1       4.078   2.037   0.111  0.00  0.00    -0.025 A 
HETATM    5  C   UNK N   1       2.902   2.844   0.132  0.00  0.00     0.091 A 
HETATM    6  C   UNK N   1       3.967   0.654  -0.038  0.00  0.00     0.047 A 
HETATM    7  C   UNK N   1       0.220   0.148  -0.266  0.00  0.00     0.052 C 
HETATM    8  C   UNK N   1       0.400   3.037   0.055  0.00  0.00     0.052 C 
HETATM    9  C   UNK N   1       5.449   2.578   0.314  0.00  0.00     0.051 C 
ENDROOT
BRANCH   1  10
HETATM   10  O   UNK N   1       2.617  -1.316  -0.294  0.00  0.00    -0.348 OA
BRANCH  10  11
HETATM   11  C   UNK N   1       3.678  -2.180  -0.122  0.00  0.00     0.209 C 
BRANCH  11  12
HETATM   12  C   UNK N   1       3.193  -3.626  -0.148  0.00  0.00     0.159 C 
BRANCH  12  13
HETATM   13  O   UNK N   1       2.050  -3.754   0.642  0.00  0.00    -0.392 OA
HETATM   14  H   UNK N   1       1.575  -3.111   1.191  0.00  0.00     0.210 HD
ENDBRANCH  12  13
BRANCH  12  15
HETATM   15  C   UNK N   1       4.269  -4.542   0.414  0.00  0.00     0.147 C 
BRANCH  15  16
HETATM   16  N   UNK N   1       5.384  -4.656  -0.511  0.00  0.00    -0.415 N 
HETATM   17  H   UNK N   1       5.331  -4.669  -1.529  0.00  0.00     0.153 HD
BRANCH  16  18
HETATM   18  C   UNK N   1       6.590  -4.748   0.294  0.00  0.00     0.068 C 
HETATM   19  C   UNK N   1       7.485  -3.564  -0.009  0.00  0.00     0.031 C 
HETATM   20  C   UNK N   1       7.327  -6.031  -0.030  0.00  0.00     0.031 C 
ENDBRANCH  16  18
ENDBRANCH  15  16
ENDBRANCH  12  15
ENDBRANCH  11  12
ENDBRANCH  10  11
ENDBRANCH   1  10
BRANCH   5  21
HETATM   21  O   UNK N   1       2.896   4.200   0.304  0.00  0.00    -0.278 OA
BRANCH  21  22
HETATM   22  C   UNK N   1       3.819   5.154   0.006  0.00  0.00     0.260 C 
HETATM   23  O   UNK N   1       4.776   4.920  -0.714  0.00  0.00    -0.265 OA
HETATM   24  C   UNK N   1       3.574   6.553   0.454  0.00  0.00     0.126 C 
ENDBRANCH  21  22
ENDBRANCH   5  21
TORSDOF 9
