REMARK  4 active torsions:
REMARK  status: ('A' for Active; 'I' for Inactive)
REMARK    1  A    between atoms: N_1  and  C_16 
REMARK    2  A    between atoms: C_8  and  C_10 
REMARK    3  A    between atoms: C_9  and  C_11 
REMARK    4  A    between atoms: C_13  and  C_16 
ROOT
HETATM    1  N   UNK N   1       0.612  -1.839   1.653  0.00  0.00    -0.196 NA
HETATM    2  C   UNK N   1       2.387  -2.020  -0.269  0.00  0.00     0.069 C 
HETATM    3  C   UNK N   1       2.793  -3.495  -0.312  0.00  0.00     0.036 C 
HETATM    4  C   UNK N   1       1.718  -1.695  -1.579  0.00  0.00     0.036 C 
HETATM    5  C   UNK N   1       1.410  -1.901   0.817  0.00  0.00     0.073 C 
ENDROOT
BRANCH   2   6
HETATM    6  C   UNK N   1       3.602  -1.100  -0.098  0.00  0.00    -0.035 A 
HETATM    7  C   UNK N   1       3.505   0.298   0.039  0.00  0.00     0.017 A 
HETATM    8  C   UNK N   1       4.673   1.109   0.086  0.00  0.00    -0.035 A 
HETATM    9  C   UNK N   1       5.940   0.486  -0.040  0.00  0.00     0.017 A 
HETATM   10  C   UNK N   1       6.029  -0.910  -0.156  0.00  0.00    -0.037 A 
HETATM   11  C   UNK N   1       4.863  -1.661  -0.167  0.00  0.00     0.017 A 
BRANCH   8  12
HETATM   12  C   UNK N   1       4.581   2.604   0.408  0.00  0.00     0.069 C 
HETATM   13  C   UNK N   1       3.164   3.013   0.782  0.00  0.00     0.036 C 
HETATM   14  C   UNK N   1       5.462   2.900   1.610  0.00  0.00     0.036 C 
HETATM   15  C   UNK N   1       5.001   3.494  -0.686  0.00  0.00     0.073 C 
HETATM   16  N   UNK N   1       5.321   4.243  -1.511  0.00  0.00    -0.196 NA
ENDBRANCH   8  12
BRANCH  10  17
HETATM   17  C   UNK N   1       7.350  -1.635  -0.238  0.00  0.00     0.188 C 
BRANCH  17  18
HETATM   18  N   UNK N   1       7.135  -3.087  -0.176  0.00  0.00    -0.283 N 
HETATM   19  N   UNK N   1       6.429  -3.783  -1.049  0.00  0.00    -0.293 N 
HETATM   20  C   UNK N   1       6.339  -5.036  -0.567  0.00  0.00     0.198 A 
ATOM     21  HN  UNK N   1       6.028  -3.437  -1.921  1.00  0.00     0.188 HD
HETATM   22  N   UNK N   1       6.992  -5.136   0.612  0.00  0.00    -0.346 N 
HETATM   23  C   UNK N   1       7.477  -3.897   0.836  0.00  0.00     0.201 A 
ATOM     24  HN  UNK N   1       7.095  -5.963   1.201  1.00  0.00     0.167 HD
ENDBRANCH  17  18
ENDBRANCH  10  17
ENDBRANCH   2   6
TORSDOF 4
