REMARK  12 active torsions:
REMARK  status: ('A' for Active; 'I' for Inactive)
REMARK    1  A    between atoms: O_6  and  C_10 
REMARK    2  A    between atoms: N_7  and  C_8 
REMARK    3  A    between atoms: N_7  and  C_11 
REMARK    4  A    between atoms: N_7  and  C_12 
REMARK    5  A    between atoms: C_8  and  C_9 
REMARK    6  A    between atoms: C_9  and  C_10 
REMARK    7  A    between atoms: C_10  and  C_13 
REMARK    8  A    between atoms: C_11  and  C_14 
REMARK    9  A    between atoms: C_12  and  C_15 
REMARK   10  A    between atoms: C_14  and  C_21 
REMARK   11  A    between atoms: C_15  and  C_22 
REMARK   12  A    between atoms: C_25  and  C_33 
ROOT
HETATM    1 Cl   UNK N   1       9.244   1.752  -0.497  0.00  0.00    -0.083 Cl
HETATM    2 Cl   UNK N   1       6.979   6.676  -0.130  0.00  0.00    -0.084 Cl
HETATM    3  C   UNK N   1       5.106   0.150  -0.213  0.00  0.00    -0.018 A 
HETATM    4  C   UNK N   1       3.954   0.965  -0.092  0.00  0.00    -0.016 A 
HETATM    5  C   UNK N   1       4.088   2.384  -0.059  0.00  0.00    -0.013 A 
HETATM    6  C   UNK N   1       6.363   0.759  -0.307  0.00  0.00     0.024 A 
HETATM    7  C   UNK N   1       5.367   2.967  -0.158  0.00  0.00    -0.011 A 
HETATM    8  C   UNK N   1       6.510   2.150  -0.282  0.00  0.00    -0.003 A 
HETATM    9  C   UNK N   1       2.673   0.408   0.029  0.00  0.00     0.014 A 
HETATM   10  C   UNK N   1       2.942   3.178   0.104  0.00  0.00     0.029 A 
HETATM   11  C   UNK N   1       1.676   2.597   0.241  0.00  0.00     0.048 A 
HETATM   12  C   UNK N   1       5.527   4.367  -0.117  0.00  0.00     0.037 A 
HETATM   13  C   UNK N   1       1.549   1.208   0.194  0.00  0.00     0.017 A 
HETATM   14  C   UNK N   1       7.791   2.732  -0.361  0.00  0.00     0.046 A 
HETATM   15  C   UNK N   1       6.798   4.936  -0.196  0.00  0.00     0.036 A 
HETATM   16  C   UNK N   1       7.924   4.123  -0.316  0.00  0.00     0.048 A 
ENDROOT
BRANCH   3  17
HETATM   17  C   UNK N   1       5.077  -1.372  -0.209  0.00  0.00     0.153 C 
BRANCH  17  18
HETATM   18  O   UNK N   1       3.806  -1.929  -0.350  0.00  0.00    -0.391 OA
HETATM   19  H   UNK N   1       3.029  -1.357  -0.448  0.00  0.00     0.210 HD
ENDBRANCH  17  18
BRANCH  17  20
HETATM   20  C   UNK N   1       5.708  -1.915   1.067  0.00  0.00     0.067 C 
BRANCH  20  21
HETATM   21  C   UNK N   1       7.216  -1.966   0.929  0.00  0.00     0.275 C 
BRANCH  21  22
HETATM   22  N   UNK N   1       7.568  -2.898  -0.134  0.00  0.00     0.088 N 
BRANCH  22  23
HETATM   23  C   UNK N   1       7.683  -4.234   0.435  0.00  0.00     0.272 C 
BRANCH  23  24
HETATM   24  C   UNK N   1       7.564  -5.281  -0.658  0.00  0.00     0.030 C 
BRANCH  24  25
HETATM   25  C   UNK N   1       8.114  -6.604  -0.163  0.00  0.00    -0.003 C 
HETATM   26  C   UNK N   1       9.622  -6.518  -0.009  0.00  0.00     0.005 C 
ENDBRANCH  24  25
ENDBRANCH  23  24
ENDBRANCH  22  23
BRANCH  22  27
HETATM   27  C   UNK N   1       8.819  -2.473  -0.768  0.00  0.00     0.272 C 
BRANCH  27  28
HETATM   28  C   UNK N   1      10.009  -2.497   0.185  0.00  0.00     0.030 C 
BRANCH  28  29
HETATM   29  C   UNK N   1      10.959  -1.381  -0.181  0.00  0.00    -0.003 C 
HETATM   30  C   UNK N   1      12.158  -1.424   0.741  0.00  0.00     0.005 C 
ENDBRANCH  28  29
ENDBRANCH  27  28
ENDBRANCH  22  27
ENDBRANCH  21  22
ENDBRANCH  20  21
ENDBRANCH  17  20
ENDBRANCH   3  17
BRANCH  11  31
HETATM   31  C   UNK N   1       0.476   3.462   0.478  0.00  0.00     0.417 C 
HETATM   32  F   UNK N   1       0.663   4.187   1.641  0.00  0.00    -0.166 F 
HETATM   33  F   UNK N   1      -0.671   2.696   0.614  0.00  0.00    -0.166 F 
HETATM   34  F   UNK N   1       0.309   4.333  -0.581  0.00  0.00    -0.166 F 
ENDBRANCH  11  31
TORSDOF 12
