REMARK  30 active torsions:
REMARK  status: ('A' for Active; 'I' for Inactive)
REMARK    1  A    between atoms: O_1  and  C_41 
REMARK    2  A    between atoms: O_1  and  C_57 
REMARK    3  A    between atoms: O_2  and  C_42 
REMARK    4  A    between atoms: O_2  and  C_58 
REMARK    5  A    between atoms: O_3  and  C_43 
REMARK    6  A    between atoms: O_4  and  C_44 
REMARK    7  A    between atoms: O_5  and  C_45 
REMARK    8  A    between atoms: O_6  and  C_46 
REMARK    9  A    between atoms: O_7  and  C_51 
REMARK   10  A    between atoms: O_8  and  C_52 
REMARK   11  A    between atoms: O_9  and  C_53 
REMARK   12  A    between atoms: O_10  and  C_54 
REMARK   13  A    between atoms: O_11  and  C_55 
REMARK   14  A    between atoms: O_12  and  C_56 
REMARK   15  A    between atoms: N_15  and  C_21 
REMARK   16  A    between atoms: N_16  and  C_22 
REMARK   17  A    between atoms: C_17  and  C_29 
REMARK   18  A    between atoms: C_18  and  C_30 
REMARK   19  A    between atoms: C_21  and  C_33 
REMARK   20  A    between atoms: C_22  and  C_34 
REMARK   21  A    between atoms: C_29  and  C_37 
REMARK   22  A    between atoms: C_30  and  C_38 
REMARK   23  A    between atoms: C_33  and  C_41 
REMARK   24  A    between atoms: C_34  and  C_42 
REMARK   25  A    between atoms: C_57  and  C_63 
REMARK   26  A    between atoms: C_58  and  C_64 
REMARK   27  A    between atoms: C_63  and  C_65 
REMARK   28  A    between atoms: C_64  and  C_66 
REMARK   29  A    between atoms: C_65  and  C_73 
REMARK   30  A    between atoms: C_66  and  C_74 
ROOT
HETATM    1  C   UNK N   1      10.680  -0.245   2.152  0.00  0.00    -0.030 C 
HETATM    2  C   UNK N   1      11.627   0.684   2.361  0.00  0.00    -0.030 C 
ENDROOT
BRANCH   1   3
HETATM    3  C   UNK N   1      10.685  -1.213   1.013  0.00  0.00     0.037 C 
BRANCH   3   4
HETATM    4  C   UNK N   1       9.492  -0.976   0.089  0.00  0.00     0.115 C 
BRANCH   4   5
HETATM    5  C   UNK N   1       9.595   0.337  -0.641  0.00  0.00     0.259 C 
HETATM    6  O   UNK N   1       9.973   0.341  -1.801  0.00  0.00    -0.265 OA
BRANCH   5   7
HETATM    7  O   UNK N   1       9.232   1.511  -0.065  0.00  0.00    -0.321 OA
BRANCH   7   8
HETATM    8  C   UNK N   1       8.576   1.596   1.143  0.00  0.00     0.180 C 
BRANCH   8   9
HETATM    9  C   UNK N   1       7.921   2.960   1.271  0.00  0.00     0.055 C 
BRANCH   9  10
HETATM   10  C   UNK N   1       6.510   3.016   0.652  0.00  0.00     0.240 C 
BRANCH  10  11
HETATM   11  N   UNK N   1       6.446   2.814  -0.812  0.00  0.00    -0.062 N 
HETATM   12  C   UNK N   1       5.113   3.204  -1.320  0.00  0.00     0.227 C 
HETATM   13  C   UNK N   1       3.983   2.229  -1.030  0.00  0.00    -0.018 A 
HETATM   14  C   UNK N   1       4.281   0.916  -0.630  0.00  0.00    -0.045 A 
HETATM   15  C   UNK N   1       2.647   2.619  -1.137  0.00  0.00     0.049 A 
HETATM   16  C   UNK N   1       5.695   0.438  -0.530  0.00  0.00     0.067 C 
HETATM   17  C   UNK N   1       3.250   0.035  -0.305  0.00  0.00     0.047 A 
HETATM   18  C   UNK N   1       6.677   1.413  -1.188  0.00  0.00     0.242 C 
HETATM   19  C   UNK N   1       1.905   0.438  -0.376  0.00  0.00     0.102 A 
HETATM   20  C   UNK N   1       1.602   1.757  -0.801  0.00  0.00     0.102 A 
HETATM   21  C   UNK N   1       7.472   3.606  -1.489  0.00  0.00     0.273 C 
BRANCH  12  22
HETATM   22  C   UNK N   1       4.851   4.713  -1.576  0.00  0.00     0.077 C 
BRANCH  22  23
HETATM   23  C   UNK N   1       4.131   5.552  -0.552  0.00  0.00    -0.050 A 
HETATM   24  C   UNK N   1       3.116   5.026   0.239  0.00  0.00     0.047 A 
HETATM   25  C   UNK N   1       2.293   5.833   1.021  0.00  0.00     0.104 A 
HETATM   26  C   UNK N   1       2.489   7.242   1.017  0.00  0.00     0.135 A 
HETATM   27  C   UNK N   1       3.543   7.787   0.227  0.00  0.00     0.104 A 
HETATM   28  C   UNK N   1       4.336   6.928  -0.557  0.00  0.00     0.047 A 
BRANCH  25  29
HETATM   29  O   UNK N   1       1.312   5.209   1.726  0.00  0.00    -0.353 OA
HETATM   30  C   UNK N   1       0.332   5.824   2.469  0.00  0.00     0.210 C 
ENDBRANCH  25  29
BRANCH  26  31
HETATM   31  O   UNK N   1       1.658   8.024   1.760  0.00  0.00    -0.351 OA
HETATM   32  C   UNK N   1       1.619   9.399   1.758  0.00  0.00     0.210 C 
ENDBRANCH  26  31
BRANCH  27  33
HETATM   33  O   UNK N   1       3.773   9.124   0.216  0.00  0.00    -0.353 OA
HETATM   34  C   UNK N   1       4.784   9.718  -0.506  0.00  0.00     0.210 C 
ENDBRANCH  27  33
ENDBRANCH  22  23
ENDBRANCH  12  22
BRANCH  19  35
HETATM   35  O   UNK N   1       0.913  -0.425  -0.043  0.00  0.00    -0.353 OA
HETATM   36  C   UNK N   1       1.138  -1.718   0.375  0.00  0.00     0.210 C 
ENDBRANCH  19  35
BRANCH  20  37
HETATM   37  O   UNK N   1       0.338   2.249  -0.886  0.00  0.00    -0.353 OA
HETATM   38  C   UNK N   1      -0.804   1.592  -0.494  0.00  0.00     0.210 C 
ENDBRANCH  20  37
ENDBRANCH  10  11
ENDBRANCH   9  10
ENDBRANCH   8   9
ENDBRANCH   7   8
ENDBRANCH   5   7
ENDBRANCH   4   5
ENDBRANCH   3   4
ENDBRANCH   1   3
BRANCH   2  39
HETATM   39  C   UNK N   1      12.894   0.858   1.564  0.00  0.00     0.037 C 
BRANCH  39  40
HETATM   40  C   UNK N   1      12.693   0.953   0.058  0.00  0.00     0.115 C 
BRANCH  40  41
HETATM   41  C   UNK N   1      12.998  -0.305  -0.738  0.00  0.00     0.259 C 
HETATM   42  O   UNK N   1      12.730  -0.299  -1.927  0.00  0.00    -0.265 OA
BRANCH  41  43
HETATM   43  O   UNK N   1      13.543  -1.439  -0.212  0.00  0.00    -0.321 OA
BRANCH  43  44
HETATM   44  C   UNK N   1      14.107  -1.573   1.037  0.00  0.00     0.180 C 
BRANCH  44  45
HETATM   45  C   UNK N   1      14.772  -2.933   1.159  0.00  0.00     0.055 C 
BRANCH  45  46
HETATM   46  C   UNK N   1      16.195  -2.969   0.568  0.00  0.00     0.240 C 
BRANCH  46  47
HETATM   47  N   UNK N   1      16.281  -2.813  -0.900  0.00  0.00    -0.062 N 
HETATM   48  C   UNK N   1      17.624  -3.211  -1.373  0.00  0.00     0.227 C 
HETATM   49  C   UNK N   1      18.744  -2.228  -1.075  0.00  0.00    -0.018 A 
HETATM   50  C   UNK N   1      18.433  -0.903  -0.726  0.00  0.00    -0.045 A 
HETATM   51  C   UNK N   1      20.083  -2.621  -1.120  0.00  0.00     0.049 A 
HETATM   52  C   UNK N   1      17.017  -0.424  -0.686  0.00  0.00     0.067 C 
HETATM   53  C   UNK N   1      19.454  -0.012  -0.395  0.00  0.00     0.047 A 
HETATM   54  C   UNK N   1      16.049  -1.426  -1.325  0.00  0.00     0.242 C 
HETATM   55  C   UNK N   1      20.800  -0.417  -0.404  0.00  0.00     0.102 A 
HETATM   56  C   UNK N   1      21.117  -1.750  -0.774  0.00  0.00     0.102 A 
HETATM   57  C   UNK N   1      15.269  -3.632  -1.568  0.00  0.00     0.273 C 
BRANCH  48  58
HETATM   58  C   UNK N   1      17.894  -4.720  -1.618  0.00  0.00     0.077 C 
BRANCH  58  59
HETATM   59  C   UNK N   1      18.585  -5.560  -0.575  0.00  0.00    -0.050 A 
HETATM   60  C   UNK N   1      19.605  -5.044   0.215  0.00  0.00     0.047 A 
HETATM   61  C   UNK N   1      20.408  -5.856   1.011  0.00  0.00     0.104 A 
HETATM   62  C   UNK N   1      20.190  -7.261   1.020  0.00  0.00     0.135 A 
HETATM   63  C   UNK N   1      19.131  -7.797   0.230  0.00  0.00     0.104 A 
HETATM   64  C   UNK N   1      18.356  -6.933  -0.567  0.00  0.00     0.047 A 
BRANCH  61  65
HETATM   65  O   UNK N   1      21.395  -5.240   1.716  0.00  0.00    -0.353 OA
HETATM   66  C   UNK N   1      22.358  -5.863   2.474  0.00  0.00     0.210 C 
ENDBRANCH  61  65
BRANCH  62  67
HETATM   67  O   UNK N   1      21.005  -8.049   1.775  0.00  0.00    -0.351 OA
HETATM   68  C   UNK N   1      21.027  -9.425   1.781  0.00  0.00     0.210 C 
ENDBRANCH  62  67
BRANCH  63  69
HETATM   69  O   UNK N   1      18.880  -9.130   0.231  0.00  0.00    -0.353 OA
HETATM   70  C   UNK N   1      17.866  -9.716  -0.493  0.00  0.00     0.210 C 
ENDBRANCH  63  69
ENDBRANCH  58  59
ENDBRANCH  48  58
BRANCH  55  71
HETATM   71  O   UNK N   1      21.781   0.455  -0.066  0.00  0.00    -0.353 OA
HETATM   72  C   UNK N   1      21.544   1.763   0.297  0.00  0.00     0.210 C 
ENDBRANCH  55  71
BRANCH  56  73
HETATM   73  O   UNK N   1      22.382  -2.246  -0.796  0.00  0.00    -0.353 OA
HETATM   74  C   UNK N   1      23.509  -1.580  -0.376  0.00  0.00     0.210 C 
ENDBRANCH  56  73
ENDBRANCH  46  47
ENDBRANCH  45  46
ENDBRANCH  44  45
ENDBRANCH  43  44
ENDBRANCH  41  43
ENDBRANCH  40  41
ENDBRANCH  39  40
ENDBRANCH   2  39
TORSDOF 30
