REMARK  6 active torsions:
REMARK  status: ('A' for Active; 'I' for Inactive)
REMARK    1  A    between atoms: N_2  and  C_5 
REMARK    2  A    between atoms: C_5  and  C_9 
REMARK    3  A    between atoms: C_9  and  C_10 
REMARK    4  A    between atoms: C_10  and  C_11 
REMARK    5  A    between atoms: C_11  and  C_12 
REMARK    6  A    between atoms: C_11  and  C_13 
ROOT
HETATM    1  O   UNK N   1       3.004   0.285  -1.987  0.00  0.00    -0.380 OA
HETATM    2  C   UNK N   1       2.807   0.245  -0.602  0.00  0.00     0.112 C 
HETATM    3  H   UNK N   1       3.097   0.181  -2.947  0.00  0.00     0.211 HD
ENDROOT
BRANCH   2   4
HETATM    4  C   UNK N   1       4.145   0.046   0.114  0.00  0.00     0.050 C 
BRANCH   4   5
HETATM    5  C   UNK N   1       5.373   0.588  -0.599  0.00  0.00     0.034 C 
BRANCH   5   6
HETATM    6  C   UNK N   1       6.613  -0.068   0.005  0.00  0.00     0.272 C 
BRANCH   6   7
HETATM    7  N   UNK N   1       6.754  -1.460  -0.421  0.00  0.00     0.088 N 
HETATM    8  C   UNK N   1       8.132  -1.852  -0.127  0.00  0.00     0.272 C 
HETATM    9  C   UNK N   1       8.377  -3.298  -0.560  0.00  0.00     0.030 C 
HETATM   10  C   UNK N   1       7.405  -4.228   0.160  0.00  0.00     0.003 C 
HETATM   11  C   UNK N   1       5.972  -3.757  -0.056  0.00  0.00     0.030 C 
HETATM   12  C   UNK N   1       5.860  -2.301   0.382  0.00  0.00     0.272 C 
ENDBRANCH   6   7
ENDBRANCH   5   6
ENDBRANCH   4   5
ENDBRANCH   2   4
BRANCH   2  13
HETATM   13  C   UNK N   1       2.188   1.566  -0.163  0.00  0.00    -0.019 A 
HETATM   14  C   UNK N   1       0.951   1.626   0.498  0.00  0.00     0.010 A 
HETATM   15  C   UNK N   1       0.420   2.855   0.904  0.00  0.00     0.001 A 
HETATM   16  C   UNK N   1       1.119   4.037   0.648  0.00  0.00     0.000 A 
HETATM   17  C   UNK N   1       2.346   3.993  -0.017  0.00  0.00     0.001 A 
HETATM   18  C   UNK N   1       2.879   2.765  -0.420  0.00  0.00     0.010 A 
ENDBRANCH   2  13
BRANCH   2  19
HETATM   19  C   UNK N   1       1.990  -0.993  -0.244  0.00  0.00    -0.019 A 
HETATM   20  C   UNK N   1       1.606  -1.903  -1.248  0.00  0.00     0.010 A 
HETATM   21  C   UNK N   1       0.941  -3.086  -0.914  0.00  0.00     0.001 A 
HETATM   22  C   UNK N   1       0.654  -3.374   0.421  0.00  0.00     0.000 A 
HETATM   23  C   UNK N   1       1.026  -2.477   1.426  0.00  0.00     0.001 A 
HETATM   24  C   UNK N   1       1.696  -1.296   1.095  0.00  0.00     0.010 A 
ENDBRANCH   2  19
TORSDOF 6
