REMARK  8 active torsions:
REMARK  status: ('A' for Active; 'I' for Inactive)
REMARK    1  A    between atoms: O_2  and  C_15 
REMARK    2  A    between atoms: N_4  and  C_7 
REMARK    3  A    between atoms: N_4  and  C_8 
REMARK    4  A    between atoms: N_4  and  C_9 
REMARK    5  A    between atoms: N_5  and  C_10 
REMARK       I    between atoms: N_5  and  C_13 
REMARK    6  A    between atoms: N_6  and  C_18 
REMARK    7  A    between atoms: C_7  and  C_10 
REMARK    8  A    between atoms: C_13  and  C_14 
ROOT
HETATM    1 Cl   UNK N   1       6.500  -3.806  -0.354  0.00  0.00    -0.082 Cl
HETATM    2  C   UNK N   1       3.476  -1.184   0.254  0.00  0.00     0.067 A 
HETATM    3  C   UNK N   1       2.322  -2.020   0.113  0.00  0.00     0.086 A 
HETATM    4  C   UNK N   1       4.743  -1.771   0.090  0.00  0.00     0.046 A 
HETATM    5  C   UNK N   1       2.489  -3.387  -0.130  0.00  0.00     0.068 A 
HETATM    6  C   UNK N   1       3.756  -3.947  -0.268  0.00  0.00     0.050 A 
HETATM    7  C   UNK N   1       4.888  -3.133  -0.175  0.00  0.00     0.061 A 
ENDROOT
BRANCH   2   8
HETATM    8  C   UNK N   1       3.391   0.257   0.677  0.00  0.00     0.254 C 
HETATM    9  O   UNK N   1       2.366   0.658   1.205  0.00  0.00    -0.268 OA
HETATM   10  N   UNK N   1       4.421   1.135   0.576  0.00  0.00    -0.355 N 
HETATM   11  H   UNK N   1       4.292   2.014   1.002  0.00  0.00     0.162 HD
BRANCH  10  12
HETATM   12  C   UNK N   1       5.684   0.923  -0.086  0.00  0.00     0.153 C 
BRANCH  12  13
HETATM   13  C   UNK N   1       5.942   2.041  -1.118  0.00  0.00     0.292 C 
BRANCH  13  14
HETATM   14  N   UNK N   1       5.686   3.413  -0.639  0.00  0.00     0.089 N 
BRANCH  14  15
HETATM   15  C   UNK N   1       6.264   3.625   0.688  0.00  0.00     0.268 C 
HETATM   16  C   UNK N   1       7.482   4.520   0.581  0.00  0.00     0.037 C 
ENDBRANCH  14  15
BRANCH  14  17
HETATM   17  C   UNK N   1       4.242   3.654  -0.615  0.00  0.00     0.268 C 
HETATM   18  C   UNK N   1       3.915   5.102  -0.287  0.00  0.00     0.037 C 
ENDBRANCH  14  17
ENDBRANCH  13  14
ENDBRANCH  12  13
ENDBRANCH  10  12
ENDBRANCH   2   8
BRANCH   3  19
HETATM   19  O   UNK N   1       1.045  -1.568   0.187  0.00  0.00    -0.355 OA
HETATM   20  C   UNK N   1       0.602  -0.428  -0.447  0.00  0.00     0.210 C 
ENDBRANCH   3  19
BRANCH   6  21
HETATM   21  N   UNK N   1       3.881  -5.331  -0.509  0.00  0.00    -0.398 N 
HETATM   22  H   UNK N   1       3.087  -5.889  -0.677  0.00  0.00     0.156 HD
HETATM   23  H   UNK N   1       4.774  -5.744  -0.509  0.00  0.00     0.156 HD
ENDBRANCH   6  21
TORSDOF 8
