REMARK  7 active torsions:
REMARK  status: ('A' for Active; 'I' for Inactive)
REMARK    1  A    between atoms: O_3  and  C_16 
REMARK    2  A    between atoms: O_3  and  C_22 
REMARK    3  A    between atoms: N_5  and  C_12 
REMARK    4  A    between atoms: N_6  and  C_14 
REMARK    5  A    between atoms: C_12  and  C_13 
REMARK    6  A    between atoms: C_13  and  C_15 
REMARK    7  A    between atoms: C_15  and  C_16 
ROOT
HETATM    1  C   UNK N   1       7.821  -2.924  -1.355  0.00  0.00     0.032 C 
ENDROOT
BRANCH   1   2
HETATM    2  C   UNK N   1       9.250  -3.115  -0.845  0.00  0.00     0.272 C 
BRANCH   2   3
HETATM    3  N   UNK N   1       9.693  -2.045   0.048  0.00  0.00     0.091 N 
HETATM    4  C   UNK N   1      11.105  -2.333   0.329  0.00  0.00     0.292 C 
HETATM    5  C   UNK N   1      11.736  -1.233   1.183  0.00  0.00     0.153 C 
HETATM    6  N   UNK N   1      11.518   0.043   0.543  0.00  0.00    -0.376 N 
HETATM    7  C   UNK N   1      10.146   0.367   0.222  0.00  0.00     0.153 C 
HETATM    8  C   UNK N   1       9.595  -0.756  -0.655  0.00  0.00     0.292 C 
BRANCH   6   9
HETATM    9  C   UNK N   1      12.577   0.955   0.190  0.00  0.00     0.053 A 
HETATM   10  C   UNK N   1      13.971   0.624   0.241  0.00  0.00     0.082 A 
HETATM   11 Cl   UNK N   1      14.570  -0.971   0.717  0.00  0.00    -0.080 Cl
HETATM   12  C   UNK N   1      14.928   1.595  -0.129  0.00  0.00     0.058 A 
HETATM   13 Cl   UNK N   1      16.651   1.243  -0.107  0.00  0.00    -0.082 Cl
HETATM   14  C   UNK N   1      14.526   2.867  -0.536  0.00  0.00     0.026 A 
HETATM   15  C   UNK N   1      13.178   3.193  -0.591  0.00  0.00     0.004 A 
HETATM   16  C   UNK N   1      12.219   2.248  -0.239  0.00  0.00     0.031 A 
ENDBRANCH   6   9
ENDBRANCH   2   3
ENDBRANCH   1   2
BRANCH   1  17
HETATM   17  C   UNK N   1       6.775  -3.549  -0.441  0.00  0.00     0.028 C 
BRANCH  17  18
HETATM   18  C   UNK N   1       6.399  -2.660   0.741  0.00  0.00     0.175 C 
BRANCH  18  19
HETATM   19  O   UNK N   1       6.268  -1.343   0.351  0.00  0.00    -0.351 OA
BRANCH  19  20
HETATM   20  C   UNK N   1       5.082  -0.705   0.205  0.00  0.00     0.070 A 
HETATM   21  C   UNK N   1       3.853  -1.374   0.342  0.00  0.00     0.066 A 
HETATM   22  C   UNK N   1       2.646  -0.684   0.166  0.00  0.00     0.043 A 
HETATM   23  N   UNK N   1       1.423  -1.380   0.297  0.00  0.00    -0.327 N 
HETATM   24  C   UNK N   1       2.666   0.686  -0.145  0.00  0.00    -0.031 A 
HETATM   25  C   UNK N   1       0.217  -0.783   0.133  0.00  0.00     0.222 A 
HETATM   26  H   UNK N   1       1.447  -2.339   0.516  0.00  0.00     0.169 HD
HETATM   27  O   UNK N   1      -0.798  -1.446   0.256  0.00  0.00    -0.273 OA
HETATM   28  C   UNK N   1       0.092   0.681  -0.197  0.00  0.00     0.108 A 
HETATM   29  C   UNK N   1       1.401   1.464  -0.342  0.00  0.00     0.050 A 
HETATM   30  C   UNK N   1       3.888   1.350  -0.277  0.00  0.00     0.012 A 
HETATM   31  C   UNK N   1       5.088   0.658  -0.106  0.00  0.00     0.037 A 
ENDBRANCH  19  20
ENDBRANCH  18  19
ENDBRANCH  17  18
ENDBRANCH   1  17
TORSDOF 7
