REMARK  7 active torsions:
REMARK  status: ('A' for Active; 'I' for Inactive)
REMARK    1  A    between atoms: S_1  and  N_10 
REMARK    2  A    between atoms: S_1  and  C_32 
REMARK    3  A    between atoms: O_5  and  C_31 
REMARK    4  A    between atoms: N_8  and  C_11 
REMARK       I    between atoms: N_8  and  C_25 
REMARK    5  A    between atoms: N_9  and  C_23 
REMARK       I    between atoms: N_10  and  C_25 
REMARK    6  A    between atoms: C_23  and  C_27 
REMARK    7  A    between atoms: C_27  and  C_29 
ROOT
HETATM    1  C   UNK N   1       5.267  -1.167  -0.133  0.00  0.00    -0.057 A 
HETATM    2  C   UNK N   1       2.524  -0.741  -0.079  0.00  0.00     0.080 A 
HETATM    3  C   UNK N   1       4.413  -2.082  -0.748  0.00  0.00     0.009 A 
HETATM    4  C   UNK N   1       4.755  -0.071   0.560  0.00  0.00     0.009 A 
HETATM    5  C   UNK N   1       3.040  -1.865  -0.726  0.00  0.00     0.026 A 
HETATM    6  C   UNK N   1       3.381   0.140   0.586  0.00  0.00     0.026 A 
ENDROOT
BRANCH   1   7
HETATM    7  C   UNK N   1       6.718  -1.330  -0.279  0.00  0.00     0.059 C 
BRANCH   7   8
HETATM    8  C   UNK N   1       7.276  -1.879   1.001  0.00  0.00     0.140 C 
BRANCH   8   9
HETATM    9  N   UNK N   1       8.368  -2.753   0.662  0.00  0.00    -0.283 N 
HETATM   10  C   UNK N   1       8.119  -4.091   0.493  0.00  0.00     0.239 A 
HETATM   11  O   UNK N   1       6.975  -4.512   0.628  0.00  0.00    -0.272 OA
HETATM   12  C   UNK N   1       9.214  -5.080   0.135  0.00  0.00     0.062 A 
HETATM   13  C   UNK N   1      10.583  -4.449   0.005  0.00  0.00    -0.025 A 
HETATM   14  C   UNK N   1       8.847  -5.752  -1.182  0.00  0.00     0.030 C 
HETATM   15  C   UNK N   1       9.259  -6.139   1.228  0.00  0.00     0.030 C 
HETATM   16  C   UNK N   1      10.758  -3.068   0.179  0.00  0.00     0.042 A 
HETATM   17  C   UNK N   1      11.702  -5.247  -0.284  0.00  0.00     0.012 A 
HETATM   18  C   UNK N   1       9.611  -2.217   0.503  0.00  0.00     0.261 A 
HETATM   19  C   UNK N   1      12.032  -2.501   0.071  0.00  0.00     0.054 A 
HETATM   20  O   UNK N   1       9.780  -1.010   0.638  0.00  0.00    -0.267 OA
HETATM   21  C   UNK N   1      13.144  -3.294  -0.201  0.00  0.00     0.069 A 
HETATM   22  C   UNK N   1      12.974  -4.676  -0.381  0.00  0.00     0.037 A 
BRANCH  21  23
HETATM   23  O   UNK N   1      14.361  -2.708  -0.268  0.00  0.00    -0.356 OA
HETATM   24  C   UNK N   1      15.527  -3.412  -0.461  0.00  0.00     0.210 C 
ENDBRANCH  21  23
ENDBRANCH   8   9
ENDBRANCH   7   8
ENDBRANCH   1   7
BRANCH   2  25
HETATM   25  S   UNK N   1       0.824  -0.294  -0.369  0.00  0.00     0.266 S 
HETATM   26  O   UNK N   1      -0.216  -1.326   0.092  0.00  0.00    -0.200 OA
HETATM   27  O   UNK N   1       0.599  -0.308  -1.888  0.00  0.00    -0.200 OA
BRANCH  25  28
HETATM   28  N   UNK N   1       0.204   1.291   0.082  0.00  0.00    -0.232 N 
HETATM   29  C   UNK N   1       0.956   2.419   0.055  0.00  0.00     0.330 C 
HETATM   30  O   UNK N   1       2.138   2.369  -0.246  0.00  0.00    -0.246 OA
HETATM   31  N   UNK N   1       0.376   3.610   0.342  0.00  0.00    -0.338 N 
HETATM   32  H   UNK N   1      -0.597   3.628   0.488  0.00  0.00     0.164 HD
HETATM   33  H   UNK N   1      -0.735   1.362   0.369  0.00  0.00     0.183 HD
BRANCH  31  34
HETATM   34  C   UNK N   1       1.104   4.860   0.445  0.00  0.00     0.086 C 
HETATM   35  C   UNK N   1       0.101   6.006   0.550  0.00  0.00     0.025 C 
HETATM   36  C   UNK N   1       0.827   7.340   0.712  0.00  0.00     0.002 C 
HETATM   37  C   UNK N   1       1.805   7.570  -0.439  0.00  0.00     0.000 C 
HETATM   38  C   UNK N   1       2.794   6.412  -0.534  0.00  0.00     0.002 C 
HETATM   39  C   UNK N   1       2.032   5.109  -0.749  0.00  0.00     0.025 C 
ENDBRANCH  31  34
ENDBRANCH  25  28
ENDBRANCH   2  25
TORSDOF 7
