REMARK  4 active torsions:
REMARK  status: ('A' for Active; 'I' for Inactive)
REMARK    1  A    between atoms: C_15  and  O_3 
REMARK    2  A    between atoms: O_5  and  C_25 
REMARK    3  A    between atoms: C_10  and  C_21 
REMARK    4  A    between atoms: C_21  and  C_25 
ROOT
HETATM    1  O   UNK N   1       7.897  -2.385   1.252  0.00  0.00    -0.334 OA
HETATM    2  O   UNK N   1       7.286  -3.684  -0.557  0.00  0.00    -0.347 OA
HETATM    3  O   UNK N   1      -0.557   4.023   0.339  0.00  0.00    -0.289 OA
HETATM    4  C   UNK N   1       6.534  -0.491   0.588  0.00  0.00     0.004 C 
HETATM    5  C   UNK N   1       5.240  -1.254   0.244  0.00  0.00     0.004 C 
HETATM    6  C   UNK N   1       4.007  -0.357  -0.101  0.00  0.00    -0.001 C 
HETATM    7  C   UNK N   1       7.670  -1.482   0.203  0.00  0.00     0.160 C 
HETATM    8  C   UNK N   1       4.079   1.029   0.575  0.00  0.00     0.035 C 
HETATM    9  C   UNK N   1       7.095  -2.348  -0.921  0.00  0.00     0.168 C 
HETATM   10  C   UNK N   1       5.602  -2.068  -0.990  0.00  0.00     0.041 C 
HETATM   11  C   UNK N   1       6.563   0.810  -0.224  0.00  0.00     0.045 C 
HETATM   12  C   UNK N   1       5.396   1.745   0.149  0.00  0.00     0.124 C 
HETATM   13  C   UNK N   1       2.855   1.897   0.162  0.00  0.00     0.004 C 
HETATM   14  C   UNK N   1       2.734  -1.106   0.312  0.00  0.00     0.010 C 
HETATM   15  C   UNK N   1       6.616  -0.122   2.076  0.00  0.00     0.019 C 
HETATM   16  C   UNK N   1       1.424  -0.324   0.177  0.00  0.00     0.036 C 
HETATM   17  C   UNK N   1       7.975  -3.660   0.665  0.00  0.00     0.159 C 
HETATM   18  C   UNK N   1       1.532   1.164   0.378  0.00  0.00    -0.064 C 
HETATM   19  C   UNK N   1       2.923   2.212  -1.339  0.00  0.00     0.025 C 
HETATM   20  C   UNK N   1       2.845   3.246   0.862  0.00  0.00    -0.009 C 
HETATM   21  C   UNK N   1       9.427  -4.049   0.436  0.00  0.00     0.078 C 
HETATM   22  C   UNK N   1       7.343  -4.659   1.613  0.00  0.00     0.078 C 
HETATM   23  C   UNK N   1       0.390   1.876   0.395  0.00  0.00     0.058 C 
HETATM   24  C   UNK N   1       1.720   3.979   0.900  0.00  0.00     0.052 C 
HETATM   25  C   UNK N   1       0.446   3.351   0.496  0.00  0.00     0.171 C 
ENDROOT
BRANCH   7  26
HETATM   26  C   UNK N   1       8.979  -0.757  -0.104  0.00  0.00     0.188 C 
HETATM   27  O   UNK N   1       9.518  -0.098   0.773  0.00  0.00    -0.292 OA
BRANCH  26  28
HETATM   28  C   UNK N   1       9.589  -0.769  -1.474  0.00  0.00     0.245 C 
BRANCH  28  29
HETATM   29  O   UNK N   1      10.886  -1.276  -1.423  0.00  0.00    -0.393 OA
HETATM   30  H   UNK N   1      11.032  -2.234  -1.387  0.00  0.00     0.209 HD
ENDBRANCH  28  29
ENDBRANCH  26  28
ENDBRANCH   7  26
BRANCH  12  31
HETATM   31  O   UNK N   1       5.787   2.677   1.115  0.00  0.00    -0.395 OA
HETATM   32  H   UNK N   1       6.482   2.765   1.786  0.00  0.00     0.210 HD
ENDBRANCH  12  31
TORSDOF 4
