REMARK  13 active torsions:
REMARK  status: ('A' for Active; 'I' for Inactive)
REMARK    1  A    between atoms: S_1  and  N_10 
REMARK    2  A    between atoms: S_1  and  C_26 
REMARK    3  A    between atoms: C_14  and  O_4 
REMARK    4  A    between atoms: O_4  and  C_20 
REMARK    5  A    between atoms: C_18  and  N_9 
REMARK       I    between atoms: N_9  and  C_20 
REMARK    6  A    between atoms: N_10  and  C_21 
REMARK    7  A    between atoms: N_10  and  C_23 
REMARK    8  A    between atoms: N_11  and  C_38 
REMARK    9  A    between atoms: C_18  and  C_19 
REMARK   10  A    between atoms: C_18  and  C_22 
REMARK   11  A    between atoms: C_19  and  C_21 
REMARK   12  A    between atoms: C_22  and  C_25 
REMARK   13  A    between atoms: C_23  and  C_24 
ROOT
HETATM    1  O   UNK N   1       3.751   0.121  -2.901  0.00  0.00    -0.392 OA
HETATM    2  C   UNK N   1       3.569   0.041  -1.521  0.00  0.00     0.155 C 
HETATM    3  H   UNK N   1       3.863   0.039  -3.861  0.00  0.00     0.210 HD
ENDROOT
BRANCH   2   4
HETATM    4  C   UNK N   1       3.854  -1.394  -1.065  0.00  0.00     0.120 C 
BRANCH   4   5
HETATM    5  N   UNK N   1       5.272  -1.681  -1.090  0.00  0.00    -0.329 N 
HETATM    6  C   UNK N   1       5.752  -2.944  -1.012  0.00  0.00     0.361 C 
HETATM    7  O   UNK N   1       4.979  -3.897  -1.005  0.00  0.00    -0.238 OA
HETATM    8  H   UNK N   1       5.908  -0.933  -1.166  0.00  0.00     0.165 HD
BRANCH   6   9
HETATM    9  O   UNK N   1       7.088  -3.146  -0.908  0.00  0.00    -0.296 OA
BRANCH   9  10
HETATM   10  C   UNK N   1       7.634  -4.386  -0.643  0.00  0.00     0.166 C 
HETATM   11  C   UNK N   1       9.126  -4.346  -0.555  0.00  0.00     0.075 C 
HETATM   12  C   UNK N   1       9.386  -5.562   0.277  0.00  0.00     0.266 C 
HETATM   13  C   UNK N   1       9.681  -3.272   0.336  0.00  0.00     0.038 C 
HETATM   14  O   UNK N   1       8.345  -5.667   1.232  0.00  0.00    -0.358 OA
HETATM   15  O   UNK N   1      10.623  -5.383   0.924  0.00  0.00    -0.361 OA
HETATM   16  C   UNK N   1       7.265  -4.896   0.741  0.00  0.00     0.204 C 
HETATM   17  C   UNK N   1      10.864  -3.990   0.954  0.00  0.00     0.171 C 
ENDBRANCH   9  10
ENDBRANCH   6   9
ENDBRANCH   4   5
BRANCH   4  18
HETATM   18  C   UNK N   1       3.278  -1.707   0.318  0.00  0.00     0.066 C 
BRANCH  18  19
HETATM   19  C   UNK N   1       1.811  -1.967   0.241  0.00  0.00    -0.056 A 
HETATM   20  C   UNK N   1       1.336  -3.276   0.378  0.00  0.00     0.007 A 
HETATM   21  C   UNK N   1      -0.034  -3.538   0.293  0.00  0.00     0.001 A 
HETATM   22  C   UNK N   1      -0.934  -2.489   0.078  0.00  0.00     0.000 A 
HETATM   23  C   UNK N   1      -0.463  -1.179  -0.050  0.00  0.00     0.001 A 
HETATM   24  C   UNK N   1       0.909  -0.917   0.030  0.00  0.00     0.007 A 
ENDBRANCH  18  19
ENDBRANCH   4  18
ENDBRANCH   2   4
BRANCH   2  25
HETATM   25  C   UNK N   1       4.459   1.089  -0.852  0.00  0.00     0.141 C 
BRANCH  25  26
HETATM   26  N   UNK N   1       4.229   1.165   0.588  0.00  0.00    -0.204 NA
BRANCH  26  27
HETATM   27  S   UNK N   1       5.836   1.363   1.308  0.00  0.00     0.243 S 
HETATM   28  O   UNK N   1       6.516  -0.004   1.135  0.00  0.00    -0.206 OA
HETATM   29  O   UNK N   1       5.607   1.421   2.826  0.00  0.00    -0.206 OA
BRANCH  27  30
HETATM   30  C   UNK N   1       6.841   2.712   0.682  0.00  0.00     0.074 A 
HETATM   31  C   UNK N   1       8.219   2.735   0.921  0.00  0.00     0.027 A 
HETATM   32  C   UNK N   1       8.999   3.781   0.417  0.00  0.00     0.030 A 
HETATM   33  C   UNK N   1       8.403   4.804  -0.327  0.00  0.00     0.025 A 
HETATM   34  C   UNK N   1       7.026   4.783  -0.566  0.00  0.00     0.030 A 
HETATM   35  C   UNK N   1       6.247   3.739  -0.062  0.00  0.00     0.027 A 
BRANCH  33  36
HETATM   36  N   UNK N   1       9.189   5.856  -0.837  0.00  0.00    -0.399 N 
HETATM   37  H   UNK N   1      10.100   5.748  -1.193  0.00  0.00     0.156 HD
HETATM   38  H   UNK N   1       8.801   6.761  -0.837  0.00  0.00     0.156 HD
ENDBRANCH  33  36
ENDBRANCH  27  30
ENDBRANCH  26  27
BRANCH  26  39
HETATM   39  C   UNK N   1       3.482   2.379   0.937  0.00  0.00     0.111 C 
BRANCH  39  40
HETATM   40  C   UNK N   1       2.258   2.622   0.063  0.00  0.00    -0.009 C 
HETATM   41  C   UNK N   1       2.446   3.939  -0.663  0.00  0.00     0.011 C 
HETATM   42  C   UNK N   1       1.013   2.697   0.919  0.00  0.00     0.011 C 
ENDBRANCH  39  40
ENDBRANCH  26  39
ENDBRANCH  25  26
ENDBRANCH   2  25
TORSDOF 13
