REMARK  4 active torsions:
REMARK  status: ('A' for Active; 'I' for Inactive)
REMARK    1  A    between atoms: C_8  and  O_2 
REMARK    2  A    between atoms: O_3  and  C_12 
REMARK    3  A    between atoms: C_9  and  N_6 
REMARK    4  A    between atoms: C_11  and  C_12 
ROOT
HETATM    1  O   UNK N   1       0.802   0.668   0.122  0.00  0.00    -0.246 OA
HETATM    2  O   UNK N   1       3.354   4.326   0.376  0.00  0.00    -0.267 OA
HETATM    3  N   UNK N   1       3.029   0.397  -0.254  0.00  0.00    -0.282 N 
HETATM    4  N   UNK N   1       2.045   2.514   0.267  0.00  0.00    -0.275 N 
HETATM    5  C   UNK N   1       4.245   1.006  -0.351  0.00  0.00     0.110 A 
HETATM    6  C   UNK N   1       1.911   1.165   0.056  0.00  0.00     0.331 A 
HETATM    7  C   UNK N   1       4.394   2.370  -0.127  0.00  0.00     0.022 A 
HETATM    8  C   UNK N   1       3.264   3.126   0.183  0.00  0.00     0.256 A 
HETATM    9  C   UNK N   1       5.747   2.987  -0.222  0.00  0.00     0.056 C 
HETATM   10  H   UNK N   1       1.249   3.051   0.483  0.00  0.00     0.173 HD
ENDROOT
BRANCH   3  11
HETATM   11  C   UNK N   1       3.001  -1.053  -0.538  0.00  0.00     0.235 C 
HETATM   12  O   UNK N   1       4.047  -1.725   0.111  0.00  0.00    -0.356 OA
HETATM   13  C   UNK N   1       3.695  -3.055  -0.121  0.00  0.00     0.176 C 
HETATM   14  C   UNK N   1       2.236  -3.152   0.243  0.00  0.00     0.153 C 
HETATM   15  C   UNK N   1       1.715  -1.809  -0.204  0.00  0.00     0.088 C 
BRANCH  13  16
HETATM   16  C   UNK N   1       4.556  -4.006   0.688  0.00  0.00     0.198 C 
BRANCH  16  17
HETATM   17  O   UNK N   1       5.883  -3.902   0.269  0.00  0.00    -0.398 OA
HETATM   18  H   UNK N   1       6.406  -4.665  -0.023  0.00  0.00     0.209 HD
ENDBRANCH  16  17
ENDBRANCH  13  16
BRANCH  14  19
HETATM   19  O   UNK N   1       1.625  -4.183  -0.472  0.00  0.00    -0.393 OA
HETATM   20  H   UNK N   1       0.792  -4.173  -0.969  0.00  0.00     0.210 HD
ENDBRANCH  14  19
ENDBRANCH   3  11
TORSDOF 4
