REMARK  2 active torsions:
REMARK  status: ('A' for Active; 'I' for Inactive)
REMARK    1  A    between atoms: N_1  and  N_6 
REMARK    2  A    between atoms: N_1  and  C_9 
ROOT
HETATM    1  N   UNK N   1       0.901   0.531  -0.000  0.00  0.00    -0.284 N 
ATOM      2  HN  UNK N   1      -0.007   0.068  -0.000  1.00  0.00     0.188 HD
HETATM    3  N   UNK N   1       0.953   1.867  -0.000  0.00  0.00    -0.309 N 
ATOM      4  HN  UNK N   1       0.083   2.399  -0.000  1.00  0.00     0.186 HD
HETATM    5  C   UNK N   1       3.280   0.407  -0.000  0.00  0.00     0.022 A 
HETATM    6  C   UNK N   1       3.330   1.812   0.000  0.00  0.00    -0.005 A 
HETATM    7  C   UNK N   1       2.034  -0.227  -0.000  0.00  0.00     0.145 A 
HETATM    8  C   UNK N   1       4.471  -0.331  -0.000  0.00  0.00     0.016 A 
HETATM    9  C   UNK N   1       4.563   2.470   0.000  0.00  0.00     0.014 A 
HETATM   10  C   UNK N   1       5.703   0.328   0.000  0.00  0.00     0.001 A 
HETATM   11  C   UNK N   1       2.139   2.533   0.000  0.00  0.00     0.119 A 
HETATM   12  C   UNK N   1       5.749   1.726   0.000  0.00  0.00     0.001 A 
ENDROOT
BRANCH   7  13
HETATM   13  N   UNK N   1       1.953  -1.641  -0.000  0.00  0.00    -0.290 N 
HETATM   14  H   UNK N   1       2.781  -2.173  -0.000  0.00  0.00     0.188 HD
BRANCH  13  15
HETATM   15  N   UNK N   1       0.728  -2.288  -0.000  0.00  0.00    -0.344 N 
HETATM   16  H   UNK N   1      -0.136  -1.746  -0.000  0.00  0.00     0.176 HD
HETATM   17  H   UNK N   1       0.689  -3.308  -0.000  0.00  0.00     0.176 HD
ENDBRANCH  13  15
ENDBRANCH   7  13
TORSDOF 2
