REMARK  7 active torsions:
REMARK  status: ('A' for Active; 'I' for Inactive)
REMARK    1  A    between atoms: S_1  and  N_9 
REMARK    2  A    between atoms: S_1  and  C_20 
REMARK    3  A    between atoms: N_7  and  N_8 
REMARK       I    between atoms: N_8  and  C_19 
REMARK       I    between atoms: N_9  and  C_19 
REMARK    4  A    between atoms: N_10  and  C_25 
REMARK       I    between atoms: N_10  and  C_28 
REMARK    5  A    between atoms: C_21  and  C_22 
REMARK    6  A    between atoms: C_22  and  C_25 
REMARK    7  A    between atoms: C_28  and  C_29 
ROOT
HETATM    1  C   UNK N   1       7.885  -0.869  -0.008  0.00  0.00     0.080 A 
HETATM    2  C   UNK N   1       5.176  -1.092  -0.743  0.00  0.00    -0.057 A 
HETATM    3  C   UNK N   1       7.010   0.265   0.020  0.00  0.00     0.026 A 
HETATM    4  C   UNK N   1       7.368  -2.087  -0.471  0.00  0.00     0.026 A 
HETATM    5  C   UNK N   1       5.669   0.140  -0.321  0.00  0.00     0.009 A 
HETATM    6  C   UNK N   1       6.028  -2.198  -0.835  0.00  0.00     0.009 A 
ENDROOT
BRANCH   1   7
HETATM    7  S   UNK N   1       9.657  -0.866   0.554  0.00  0.00     0.266 S 
HETATM    8  O   UNK N   1       8.907  -0.039   1.615  0.00  0.00    -0.200 OA
HETATM    9  O   UNK N   1       9.461  -0.238  -0.838  0.00  0.00    -0.200 OA
BRANCH   7  10
HETATM   10  N   UNK N   1      10.694   0.590   0.638  0.00  0.00    -0.231 N 
HETATM   11  C   UNK N   1      10.337   1.886   0.378  0.00  0.00     0.344 C 
HETATM   12  O   UNK N   1       9.187   2.166   0.063  0.00  0.00    -0.245 OA
HETATM   13  N   UNK N   1      11.277   2.857   0.417  0.00  0.00    -0.270 N 
HETATM   14  H   UNK N   1      12.188   2.634   0.715  0.00  0.00     0.185 HD
HETATM   15  H   UNK N   1      11.631   0.441   0.901  0.00  0.00     0.183 HD
BRANCH  13  16
HETATM   16  N   UNK N   1      10.984   4.165   0.046  0.00  0.00    -0.227 NA
HETATM   17  C   UNK N   1      12.252   4.897  -0.007  0.00  0.00     0.113 C 
HETATM   18  C   UNK N   1      12.081   6.423  -0.007  0.00  0.00     0.016 C 
HETATM   19  C   UNK N   1      11.080   6.951  -1.041  0.00  0.00     0.001 C 
HETATM   20  C   UNK N   1       9.695   6.287  -1.008  0.00  0.00     0.001 C 
HETATM   21  C   UNK N   1       9.225   5.878   0.395  0.00  0.00     0.016 C 
HETATM   22  C   UNK N   1      10.071   4.760   1.029  0.00  0.00     0.113 C 
ENDBRANCH  13  16
ENDBRANCH   7  10
ENDBRANCH   1   7
BRANCH   2  23
HETATM   23  C   UNK N   1       3.704  -1.311  -0.795  0.00  0.00     0.058 C 
BRANCH  23  24
HETATM   24  C   UNK N   1       3.202  -1.523   0.647  0.00  0.00     0.127 C 
BRANCH  24  25
HETATM   25  N   UNK N   1       4.068  -2.459   1.344  0.00  0.00    -0.355 N 
HETATM   26  C   UNK N   1       4.077  -3.801   1.127  0.00  0.00     0.270 C 
HETATM   27  O   UNK N   1       4.983  -4.468   1.602  0.00  0.00    -0.266 OA
HETATM   28  H   UNK N   1       4.688  -2.098   2.018  0.00  0.00     0.162 HD
BRANCH  26  29
HETATM   29  C   UNK N   1       3.027  -4.484   0.338  0.00  0.00     0.124 A 
HETATM   30  N   UNK N   1       3.072  -5.787   0.003  0.00  0.00    -0.256 N 
HETATM   31  O   UNK N   1       1.966  -6.060  -0.625  0.00  0.00    -0.242 OA
ATOM     32  HN  UNK N   1       3.830  -6.439   0.204  1.00  0.00     0.195 HD
HETATM   33  C   UNK N   1       1.204  -4.996  -0.706  0.00  0.00     0.075 A 
HETATM   34  C   UNK N   1       1.835  -3.937  -0.100  0.00  0.00     0.071 A 
HETATM   35  C   UNK N   1      -0.146  -4.963  -1.323  0.00  0.00     0.079 C 
ENDBRANCH  26  29
ENDBRANCH  24  25
ENDBRANCH  23  24
ENDBRANCH   2  23
TORSDOF 7
