REMARK  11 active torsions:
REMARK  status: ('A' for Active; 'I' for Inactive)
REMARK    1  A    between atoms: O_1  and  C_11 
REMARK    2  A    between atoms: O_1  and  C_17 
REMARK    3  A    between atoms: O_2  and  C_7 
REMARK    4  A    between atoms: O_3  and  C_14 
REMARK    5  A    between atoms: O_4  and  C_16 
REMARK    6  A    between atoms: N_5  and  C_6 
REMARK    7  A    between atoms: N_5  and  C_8 
REMARK    8  A    between atoms: C_6  and  C_7 
REMARK    9  A    between atoms: C_7  and  C_11 
REMARK   10  A    between atoms: C_8  and  C_9 
REMARK   11  A    between atoms: C_9  and  C_10 
ROOT
HETATM    1  N   UNK N   1       7.388   1.477   1.026  0.00  0.00    -0.418 N 
HETATM    2  H   UNK N   1       7.898   2.353   1.140  0.00  0.00     0.153 HD
ENDROOT
BRANCH   1   3
HETATM    3  C   UNK N   1       7.964   0.142   1.037  0.00  0.00     0.147 C 
BRANCH   3   4
HETATM    4  C   UNK N   1       8.074  -0.374  -0.385  0.00  0.00     0.159 C 
BRANCH   4   5
HETATM    5  O   UNK N   1       9.406  -0.382  -0.804  0.00  0.00    -0.392 OA
HETATM    6  H   UNK N   1       9.864  -1.186  -1.095  0.00  0.00     0.210 HD
ENDBRANCH   4   5
BRANCH   4   7
HETATM    7  C   UNK N   1       7.452  -1.753  -0.502  0.00  0.00     0.209 C 
BRANCH   7   8
HETATM    8  O   UNK N   1       8.303  -2.720  -0.014  0.00  0.00    -0.349 OA
BRANCH   8   9
HETATM    9  C   UNK N   1       7.994  -4.035  -0.023  0.00  0.00     0.069 A 
HETATM   10  C   UNK N   1       9.004  -4.969   0.224  0.00  0.00     0.043 A 
HETATM   11  C   UNK N   1       8.724  -6.338   0.183  0.00  0.00    -0.059 A 
HETATM   12  C   UNK N   1       7.427  -6.780  -0.093  0.00  0.00     0.007 A 
HETATM   13  C   UNK N   1       9.812  -7.323   0.416  0.00  0.00     0.048 C 
HETATM   14  C   UNK N   1       6.408  -5.853  -0.329  0.00  0.00     0.003 A 
HETATM   15  C   UNK N   1       6.689  -4.485  -0.301  0.00  0.00     0.037 A 
ENDBRANCH   8   9
ENDBRANCH   7   8
ENDBRANCH   4   7
ENDBRANCH   3   4
ENDBRANCH   1   3
BRANCH   1  16
HETATM   16  C   UNK N   1       5.953   1.338   0.824  0.00  0.00     0.118 C 
BRANCH  16  17
HETATM   17  C   UNK N   1       5.562   2.013  -0.478  0.00  0.00     0.058 C 
BRANCH  17  18
HETATM   18  C   UNK N   1       4.194   2.584  -0.356  0.00  0.00    -0.054 A 
HETATM   19  C   UNK N   1       4.047   3.963  -0.244  0.00  0.00     0.046 A 
HETATM   20  C   UNK N   1       2.777   4.544  -0.086  0.00  0.00     0.102 A 
HETATM   21  C   UNK N   1       1.631   3.702  -0.051  0.00  0.00     0.101 A 
HETATM   22  C   UNK N   1       1.799   2.317  -0.177  0.00  0.00     0.040 A 
HETATM   23  C   UNK N   1       3.070   1.757  -0.324  0.00  0.00     0.010 A 
BRANCH  20  24
HETATM   24  O   UNK N   1       2.653   5.888   0.037  0.00  0.00    -0.353 OA
HETATM   25  C   UNK N   1       3.726   6.753   0.034  0.00  0.00     0.210 C 
ENDBRANCH  20  24
BRANCH  21  26
HETATM   26  O   UNK N   1       0.363   4.169   0.106  0.00  0.00    -0.353 OA
HETATM   27  C   UNK N   1       0.012   5.487   0.279  0.00  0.00     0.210 C 
ENDBRANCH  21  26
ENDBRANCH  17  18
ENDBRANCH  16  17
ENDBRANCH   1  16
TORSDOF 11
