REMARK  6 active torsions:
REMARK  status: ('A' for Active; 'I' for Inactive)
REMARK    1  A    between atoms: C_7  and  O_2 
REMARK    2  A    between atoms: C_8  and  O_3 
REMARK    3  A    between atoms: O_4  and  C_11 
REMARK    4  A    between atoms: O_5  and  C_12 
REMARK    5  A    between atoms: C_9  and  N_6 
REMARK    6  A    between atoms: C_10  and  C_12 
ROOT
HETATM    1  O   UNK N   1       4.728  -0.420  -0.373  0.00  0.00    -0.349 OA
HETATM    2  C   UNK N   1       2.492   1.251   0.195  0.00  0.00     0.176 C 
HETATM    3  C   UNK N   1       2.338  -0.203  -0.249  0.00  0.00     0.180 C 
HETATM    4  C   UNK N   1       3.849   1.803  -0.242  0.00  0.00     0.161 C 
HETATM    5  C   UNK N   1       3.577  -0.989   0.207  0.00  0.00     0.179 C 
HETATM    6  C   UNK N   1       4.928   0.829   0.242  0.00  0.00     0.282 C 
ENDROOT
BRANCH   4   7
HETATM    7  N   UNK N   1       4.054   3.117   0.345  0.00  0.00    -0.420 N 
HETATM    8  H   UNK N   1       4.925   3.453   0.756  0.00  0.00     0.150 HD
HETATM    9  H   UNK N   1       3.261   3.758   0.345  0.00  0.00     0.150 HD
ENDBRANCH   4   7
BRANCH   2  10
HETATM   10  O   UNK N   1       1.459   2.028  -0.335  0.00  0.00    -0.391 OA
HETATM   11  H   UNK N   1       1.568   2.919  -0.703  0.00  0.00     0.210 HD
ENDBRANCH   2  10
BRANCH   6  12
HETATM   12  O   UNK N   1       6.195   1.309  -0.092  0.00  0.00    -0.369 OA
HETATM   13  H   UNK N   1       6.924   0.713  -0.324  0.00  0.00     0.212 HD
ENDBRANCH   6  12
BRANCH   3  14
HETATM   14  O   UNK N   1       1.183  -0.743   0.321  0.00  0.00    -0.390 OA
HETATM   15  H   UNK N   1       0.457  -0.236   0.717  0.00  0.00     0.210 HD
ENDBRANCH   3  14
BRANCH   5  16
HETATM   16  C   UNK N   1       3.462  -2.442  -0.230  0.00  0.00     0.198 C 
BRANCH  16  17
HETATM   17  O   UNK N   1       4.570  -3.165   0.211  0.00  0.00    -0.398 OA
HETATM   18  H   UNK N   1       4.521  -4.084   0.517  0.00  0.00     0.209 HD
ENDBRANCH  16  17
ENDBRANCH   5  16
TORSDOF 6
