REMARK  5 active torsions:
REMARK  status: ('A' for Active; 'I' for Inactive)
REMARK    1  A    between atoms: S_1  and  N_6 
REMARK    2  A    between atoms: S_1  and  C_10 
REMARK    3  A    between atoms: N_5  and  C_12 
REMARK    4  A    between atoms: N_6  and  C_11 
REMARK    5  A    between atoms: N_9  and  C_20 
ROOT
HETATM    1  S   UNK N   1       3.049   2.032   0.314  0.00  0.00     0.264 S 
HETATM    2  O   UNK N   1       2.836   1.723   1.802  0.00  0.00    -0.200 OA
HETATM    3  O   UNK N   1       2.199   3.305   0.180  0.00  0.00    -0.200 OA
ENDROOT
BRANCH   1   4
HETATM    4  N   UNK N   1       2.099   0.799  -0.505  0.00  0.00    -0.266 N 
HETATM    5  H   UNK N   1       1.362   1.083  -1.092  0.00  0.00     0.180 HD
BRANCH   4   6
HETATM    6  C   UNK N   1       2.353  -0.585  -0.353  0.00  0.00     0.119 A 
HETATM    7  N   UNK N   1       1.320  -1.462  -0.422  0.00  0.00    -0.294 N 
HETATM    8  C   UNK N   1       1.516  -2.807  -0.240  0.00  0.00     0.327 A 
ATOM      9  HN  UNK N   1       0.380  -1.115  -0.613  1.00  0.00     0.172 HD
HETATM   10  O   UNK N   1       0.561  -3.563  -0.280  0.00  0.00    -0.246 OA
HETATM   11  N   UNK N   1       2.788  -3.294  -0.013  0.00  0.00    -0.310 N 
HETATM   12  C   UNK N   1       3.838  -2.425   0.052  0.00  0.00     0.099 A 
HETATM   13  C   UNK N   1       3.639  -1.056  -0.102  0.00  0.00     0.066 A 
BRANCH  11  14
HETATM   14  C   UNK N   1       2.986  -4.742   0.154  0.00  0.00     0.128 C 
HETATM   15  C   UNK N   1       4.450  -5.157   0.270  0.00  0.00     0.027 C 
ENDBRANCH  11  14
ENDBRANCH   4   6
ENDBRANCH   1   4
BRANCH   1  16
HETATM   16  C   UNK N   1       4.783   2.368   0.004  0.00  0.00     0.080 A 
HETATM   17  C   UNK N   1       5.708   1.322  -0.088  0.00  0.00     0.027 A 
HETATM   18  C   UNK N   1       7.074   1.602  -0.195  0.00  0.00     0.030 A 
HETATM   19  C   UNK N   1       7.519   2.928  -0.197  0.00  0.00     0.025 A 
HETATM   20  C   UNK N   1       6.597   3.974  -0.108  0.00  0.00     0.030 A 
HETATM   21  C   UNK N   1       5.232   3.694  -0.002  0.00  0.00     0.027 A 
BRANCH  19  22
HETATM   22  N   UNK N   1       8.897   3.210  -0.271  0.00  0.00    -0.399 N 
HETATM   23  H   UNK N   1       9.549   2.474  -0.323  0.00  0.00     0.156 HD
HETATM   24  H   UNK N   1       9.209   4.144  -0.271  0.00  0.00     0.156 HD
ENDBRANCH  19  22
ENDBRANCH   1  16
TORSDOF 5
