REMARK  6 active torsions:
REMARK  status: ('A' for Active; 'I' for Inactive)
REMARK    1  A    between atoms: S_1  and  N_6 
REMARK    2  A    between atoms: S_1  and  C_12 
REMARK    3  A    between atoms: O_4  and  C_16 
REMARK    4  A    between atoms: O_5  and  C_20 
REMARK    5  A    between atoms: N_6  and  C_13 
REMARK    6  A    between atoms: N_9  and  C_19 
ROOT
HETATM    1  N   UNK N   1       3.133   0.533  -0.695  0.00  0.00    -0.263 N 
HETATM    2  H   UNK N   1       2.556   0.831  -1.435  0.00  0.00     0.180 HD
ENDROOT
BRANCH   1   3
HETATM    3  S   UNK N   1       3.976   1.728   0.270  0.00  0.00     0.264 S 
HETATM    4  O   UNK N   1       3.728   1.287   1.720  0.00  0.00    -0.200 OA
HETATM    5  O   UNK N   1       3.058   2.958   0.196  0.00  0.00    -0.200 OA
BRANCH   3   6
HETATM    6  C   UNK N   1       5.686   2.187   0.021  0.00  0.00     0.080 A 
HETATM    7  C   UNK N   1       6.677   1.207  -0.098  0.00  0.00     0.027 A 
HETATM    8  C   UNK N   1       8.023   1.582  -0.182  0.00  0.00     0.030 A 
HETATM    9  C   UNK N   1       8.378   2.935  -0.135  0.00  0.00     0.025 A 
HETATM   10  C   UNK N   1       7.388   3.913  -0.018  0.00  0.00     0.030 A 
HETATM   11  C   UNK N   1       6.045   3.539   0.065  0.00  0.00     0.027 A 
BRANCH   9  12
HETATM   12  N   UNK N   1       9.734   3.311  -0.193  0.00  0.00    -0.399 N 
HETATM   13  H   UNK N   1      10.435   2.622  -0.234  0.00  0.00     0.156 HD
HETATM   14  H   UNK N   1       9.980   4.264  -0.193  0.00  0.00     0.156 HD
ENDBRANCH   9  12
ENDBRANCH   3   6
ENDBRANCH   1   3
BRANCH   1  15
HETATM   15  C   UNK N   1       3.264  -0.851  -0.436  0.00  0.00     0.154 A 
HETATM   16  N   UNK N   1       4.492  -1.407  -0.274  0.00  0.00    -0.336 N 
HETATM   17  C   UNK N   1       4.628  -2.732  -0.013  0.00  0.00     0.184 A 
ATOM     18  HN  UNK N   1       5.323  -0.820  -0.349  1.00  0.00     0.168 HD
HETATM   19  N   UNK N   1       3.530  -3.521   0.109  0.00  0.00    -0.331 N 
HETATM   20  C   UNK N   1       2.274  -3.012  -0.023  0.00  0.00     0.181 A 
ATOM     21  HN  UNK N   1       3.647  -4.515   0.304  1.00  0.00     0.168 HD
HETATM   22  C   UNK N   1       2.110  -1.635  -0.307  0.00  0.00     0.164 A 
BRANCH  20  23
HETATM   23  O   UNK N   1       1.195  -3.818   0.120  0.00  0.00    -0.339 OA
HETATM   24  C   UNK N   1       1.302  -5.161   0.397  0.00  0.00     0.211 C 
ENDBRANCH  20  23
BRANCH  22  25
HETATM   25  O   UNK N   1       0.900  -1.028  -0.431  0.00  0.00    -0.349 OA
HETATM   26  C   UNK N   1      -0.318  -1.612  -0.169  0.00  0.00     0.210 C 
ENDBRANCH  22  25
ENDBRANCH   1  15
TORSDOF 6
