REMARK  7 active torsions:
REMARK  status: ('A' for Active; 'I' for Inactive)
REMARK    1  A    between atoms: P_1  and  O_3 
REMARK    2  A    between atoms: P_1  and  O_5 
REMARK    3  A    between atoms: P_1  and  O_6 
REMARK    4  A    between atoms: O_3  and  C_15 
REMARK    5  A    between atoms: N_9  and  C_15 
REMARK    6  A    between atoms: C_10  and  C_12 
REMARK    7  A    between atoms: C_10  and  C_13 
ROOT
HETATM    1  O   UNK N   1       4.874   0.279  -2.090  0.00  0.00    -0.269 OA
HETATM    2  O   UNK N   1       5.420   2.313   1.838  0.00  0.00    -0.247 OA
HETATM    3  N   UNK N   1       4.318   0.407   1.333  0.00  0.00    -0.316 N 
HETATM    4  N   UNK N   1       5.360   1.546  -0.284  0.00  0.00    -0.244 N 
HETATM    5  C   UNK N   1       4.007  -0.341   0.114  0.00  0.00     0.171 A 
HETATM    6  C   UNK N   1       4.795   0.491  -0.888  0.00  0.00     0.267 A 
HETATM    7  C   UNK N   1       5.067   1.480   1.018  0.00  0.00     0.328 A 
HETATM    8  H   UNK N   1       4.025   0.163   2.241  0.00  0.00     0.166 HD
ENDROOT
BRANCH   5   9
HETATM    9  C   UNK N   1       4.470  -1.786   0.163  0.00  0.00    -0.016 A 
HETATM   10  C   UNK N   1       5.035  -2.337   1.325  0.00  0.00     0.010 A 
HETATM   11  C   UNK N   1       5.395  -3.689   1.361  0.00  0.00     0.001 A 
HETATM   12  C   UNK N   1       5.188  -4.501   0.242  0.00  0.00     0.000 A 
HETATM   13  C   UNK N   1       4.628  -3.961  -0.918  0.00  0.00     0.001 A 
HETATM   14  C   UNK N   1       4.270  -2.612  -0.957  0.00  0.00     0.010 A 
ENDBRANCH   5   9
BRANCH   5  15
HETATM   15  C   UNK N   1       2.510  -0.283  -0.117  0.00  0.00    -0.016 A 
HETATM   16  C   UNK N   1       1.643  -0.865   0.822  0.00  0.00     0.010 A 
HETATM   17  C   UNK N   1       0.260  -0.799   0.642  0.00  0.00     0.001 A 
HETATM   18  C   UNK N   1      -0.270  -0.151  -0.476  0.00  0.00     0.000 A 
HETATM   19  C   UNK N   1       0.583   0.432  -1.416  0.00  0.00     0.001 A 
HETATM   20  C   UNK N   1       1.965   0.368  -1.237  0.00  0.00     0.010 A 
ENDBRANCH   5  15
BRANCH   4  21
HETATM   21  C   UNK N   1       6.093   2.606  -0.937  0.00  0.00     0.319 C 
BRANCH  21  22
HETATM   22  O   UNK N   1       7.440   2.265  -1.060  0.00  0.00    -0.277 OA
BRANCH  22  23
HETATM   23  P   UNK N   1       8.257   3.162   0.189  0.00  0.00     0.392 P 
HETATM   24  O   UNK N   1       8.416   2.214   1.407  0.00  0.00    -0.632 OA
BRANCH  23  25
HETATM   25  O   UNK N   1       7.358   4.549   0.729  0.00  0.00    -0.307 OA
HETATM   26  H   UNK N   1       7.777   5.371   1.030  0.00  0.00     0.222 HD
ENDBRANCH  23  25
BRANCH  23  27
HETATM   27  O   UNK N   1       9.855   3.622  -0.306  0.00  0.00    -0.307 OA
HETATM   28  H   UNK N   1      10.524   2.977  -0.583  0.00  0.00     0.222 HD
ENDBRANCH  23  27
ENDBRANCH  22  23
ENDBRANCH  21  22
ENDBRANCH   4  21
TORSDOF 7
