REMARK  7 active torsions:
REMARK  status: ('A' for Active; 'I' for Inactive)
REMARK    1  A    between atoms: O_4  and  C_22 
REMARK    2  A    between atoms: O_7  and  N_10 
REMARK    3  A    between atoms: C_16  and  N_9 
REMARK       I    between atoms: N_9  and  C_21 
REMARK    4  A    between atoms: N_14  and  C_26 
REMARK    5  A    between atoms: C_18  and  C_22 
REMARK    6  A    between atoms: C_21  and  C_23 
REMARK    7  A    between atoms: C_23  and  C_24 
ROOT
HETATM    1  O   UNK N   1       5.533   0.088   0.173  0.00  0.00    -0.266 OA
HETATM    2  N   UNK N   1       4.229  -1.479  -0.756  0.00  0.00    -0.340 N 
HETATM    3  C   UNK N   1       5.364  -1.083  -0.109  0.00  0.00     0.273 C 
HETATM    4  H   UNK N   1       4.024  -2.442  -0.754  0.00  0.00     0.163 HD
ENDROOT
BRANCH   3   5
HETATM    5  C   UNK N   1       6.493  -2.048   0.108  0.00  0.00     0.149 C 
HETATM    6  N   UNK N   1       6.333  -3.330   0.069  0.00  0.00    -0.260 N 
ATOM      7  HN  UNK N   1       7.154  -3.929   0.157  1.00  0.00     0.194 HD
BRANCH   6   8
HETATM    8  O   UNK N   1       5.150  -3.894  -0.081  0.00  0.00    -0.285 OA
HETATM    9  C   UNK N   1       4.368  -4.164   1.015  0.00  0.00     0.237 C 
ENDBRANCH   6   8
BRANCH   5  10
HETATM   10  C   UNK N   1       7.874  -1.499   0.223  0.00  0.00     0.075 A 
HETATM   11  N   UNK N   1       8.120  -0.141   0.151  0.00  0.00    -0.335 N 
HETATM   12  C   UNK N   1       9.438   0.141   0.174  0.00  0.00     0.142 A 
ATOM     13  HN  UNK N   1       7.389   0.567   0.087  1.00  0.00     0.168 HD
HETATM   14  S   UNK N   1      10.304  -1.251   0.268  0.00  0.00    -0.064 SA
HETATM   15  C   UNK N   1       9.026  -2.316   0.292  0.00  0.00     0.085 A 
BRANCH  12  16
HETATM   16  N   UNK N   1       9.964   1.445   0.090  0.00  0.00    -0.380 N 
HETATM   17  H   UNK N   1      10.937   1.582   0.031  0.00  0.00     0.158 HD
HETATM   18  H   UNK N   1       9.358   2.220   0.090  0.00  0.00     0.158 HD
ENDBRANCH  12  16
ENDBRANCH   5  10
ENDBRANCH   3   5
BRANCH   2  19
HETATM   19  C   UNK N   1       3.288  -0.599  -1.454  0.00  0.00     0.211 A 
HETATM   20  C   UNK N   1       1.793  -0.518  -0.819  0.00  0.00     0.187 A 
HETATM   21  S   UNK N   1       1.362  -1.273   0.771  0.00  0.00    -0.137 SA
HETATM   22  N   UNK N   1       2.071   0.855  -0.544  0.00  0.00    -0.294 N 
HETATM   23  C   UNK N   1      -0.133  -0.182   0.854  0.00  0.00     0.105 C 
HETATM   24  C   UNK N   1       0.194   1.302   0.833  0.00  0.00     0.020 C 
HETATM   25  C   UNK N   1       1.251   1.787   0.157  0.00  0.00     0.109 C 
HETATM   26  C   UNK N   1       3.263   0.841  -1.053  0.00  0.00     0.251 A 
HETATM   27  O   UNK N   1       4.072   1.754  -1.121  0.00  0.00    -0.271 OA
BRANCH  25  28
HETATM   28  C   UNK N   1       1.565   3.239   0.230  0.00  0.00     0.193 C 
HETATM   29  O   UNK N   1       2.548   3.697  -0.327  0.00  0.00    -0.645 OA
BRANCH  28  30
HETATM   30  O   UNK N   1       0.751   4.070   0.910  0.00  0.00    -0.772 OA
HETATM   31  H   UNK N   1       0.968   4.849   1.383  0.00  0.00     0.167 HD
ENDBRANCH  28  30
ENDBRANCH  25  28
ENDBRANCH   2  19
TORSDOF 7
