REMARK  6 active torsions:
REMARK  status: ('A' for Active; 'I' for Inactive)
REMARK    1  A    between atoms: C_17  and  O_1 
REMARK    2  A    between atoms: O_1  and  C_36 
REMARK    3  A    between atoms: C_27  and  O_2 
REMARK    4  A    between atoms: O_2  and  C_39 
REMARK    5  A    between atoms: C_20  and  N_5 
REMARK    6  A    between atoms: C_24  and  N_6 
ROOT
HETATM    1  C   UNK N   1       7.797  -1.180  -0.374  0.00  0.00    -0.005 C 
HETATM    2  C   UNK N   1       6.368  -0.587  -0.450  0.00  0.00    -0.002 C 
HETATM    3  C   UNK N   1       8.710  -0.111   0.232  0.00  0.00     0.003 C 
HETATM    4  C   UNK N   1       8.765   1.136  -0.676  0.00  0.00    -0.011 C 
HETATM    5  C   UNK N   1       5.391  -1.616  -1.095  0.00  0.00    -0.034 C 
HETATM    6  C   UNK N   1       5.435  -2.992  -0.354  0.00  0.00    -0.004 C 
HETATM    7  C   UNK N   1       6.345   0.766  -1.216  0.00  0.00     0.007 C 
HETATM    8  C   UNK N   1       7.377   1.781  -0.686  0.00  0.00     0.012 C 
HETATM    9  C   UNK N   1       9.906   1.939  -0.058  0.00  0.00     0.173 C 
HETATM   10  C   UNK N   1      10.151  -0.504   0.466  0.00  0.00     0.044 C 
HETATM   11  C   UNK N   1       7.777  -2.467   0.454  0.00  0.00     0.006 C 
HETATM   12  C   UNK N   1      10.916   0.782   0.129  0.00  0.00     0.253 C 
HETATM   13  C   UNK N   1       6.877  -3.502  -0.230  0.00  0.00     0.006 C 
HETATM   14  C   UNK N   1       3.964  -1.066  -1.055  0.00  0.00     0.048 C 
HETATM   15  C   UNK N   1       4.803  -2.949   1.056  0.00  0.00     0.040 C 
HETATM   16  C   UNK N   1       3.540  -0.915   0.412  0.00  0.00     0.253 C 
HETATM   17  C   UNK N   1       9.165   0.826  -2.131  0.00  0.00     0.018 C 
HETATM   18  C   UNK N   1       5.759  -1.833  -2.563  0.00  0.00     0.016 C 
HETATM   19  C   UNK N   1       3.419  -2.269   1.105  0.00  0.00     0.165 C 
ENDROOT
BRANCH  12  20
HETATM   20  N   UNK N   1      12.220   1.014   0.763  0.00  0.00     0.099 N 
HETATM   21  C   UNK N   1      12.882  -0.305   0.824  0.00  0.00     0.301 C 
HETATM   22  C   UNK N   1      14.387  -0.221   1.065  0.00  0.00     0.266 C 
HETATM   23  N   UNK N   1      15.027   0.594   0.039  0.00  0.00    -0.071 N 
HETATM   24  C   UNK N   1      14.446   1.936   0.061  0.00  0.00     0.266 C 
HETATM   25  C   UNK N   1      14.904  -0.019  -1.282  0.00  0.00     0.272 C 
HETATM   26  C   UNK N   1      16.440   0.690   0.350  0.00  0.00     0.272 C 
HETATM   27  C   UNK N   1      12.931   1.891  -0.181  0.00  0.00     0.301 C 
ENDBRANCH  12  20
BRANCH   9  28
HETATM   28  O   UNK N   1       9.463   2.486   1.130  0.00  0.00    -0.313 OA
BRANCH  28  29
HETATM   29  C   UNK N   1       9.471   3.824   1.338  0.00  0.00     0.255 C 
HETATM   30  O   UNK N   1       8.546   4.343   1.941  0.00  0.00    -0.266 OA
HETATM   31  C   UNK N   1      10.579   4.683   0.819  0.00  0.00     0.126 C 
ENDBRANCH  28  29
ENDBRANCH   9  28
BRANCH  16  32
HETATM   32  N   UNK N   1       2.425   0.003   0.644  0.00  0.00     0.099 N 
HETATM   33  C   UNK N   1       1.277  -0.324  -0.212  0.00  0.00     0.301 C 
HETATM   34  C   UNK N   1       0.275   0.840  -0.325  0.00  0.00     0.266 C 
HETATM   35  N   UNK N   1       0.500   1.896   0.670  0.00  0.00    -0.071 N 
HETATM   36  C   UNK N   1       1.874   2.410   0.664  0.00  0.00     0.266 C 
HETATM   37  C   UNK N   1      -0.381   3.003   0.352  0.00  0.00     0.272 C 
HETATM   38  C   UNK N   1       0.155   1.425   2.004  0.00  0.00     0.272 C 
HETATM   39  C   UNK N   1       2.919   1.343   0.334  0.00  0.00     0.301 C 
ENDBRANCH  16  32
BRANCH  19  40
HETATM   40  O   UNK N   1       2.334  -2.982   0.599  0.00  0.00    -0.314 OA
BRANCH  40  41
HETATM   41  C   UNK N   1       2.256  -4.276   0.182  0.00  0.00     0.255 C 
HETATM   42  O   UNK N   1       3.197  -5.043   0.284  0.00  0.00    -0.266 OA
HETATM   43  C   UNK N   1       0.967  -4.773  -0.375  0.00  0.00     0.126 C 
ENDBRANCH  40  41
ENDBRANCH  19  40
TORSDOF 6
