REMARK  4 active torsions:
REMARK  status: ('A' for Active; 'I' for Inactive)
REMARK    1  A    between atoms: N_2  and  C_17 
REMARK    2  A    between atoms: C_17  and  C_20 
REMARK    3  A    between atoms: C_25  and  C_28 
REMARK    4  A    between atoms: C_30  and  C_34 
ROOT
HETATM    1  C   UNK N   1       5.345  -0.191  -0.130  0.00  0.00    -0.040 A 
HETATM    2  C   UNK N   1       4.892  -0.994  -1.170  0.00  0.00     0.010 A 
HETATM    3  C   UNK N   1       4.569  -0.022   1.029  0.00  0.00     0.010 A 
HETATM    4  C   UNK N   1       2.907  -1.517   0.109  0.00  0.00    -0.025 A 
HETATM    5  C   UNK N   1       3.686  -1.662  -1.047  0.00  0.00     0.013 A 
HETATM    6  C   UNK N   1       3.342  -0.685   1.148  0.00  0.00     0.013 A 
ENDROOT
BRANCH   1   7
HETATM    7  C   UNK N   1       6.648   0.504  -0.297  0.00  0.00     0.172 C 
BRANCH   7   8
HETATM    8  N   UNK N   1       6.602   1.964  -0.370  0.00  0.00    -0.299 N 
HETATM    9  C   UNK N   1       7.839   2.645  -0.158  0.00  0.00     0.119 A 
HETATM   10  N   UNK N   1       8.987   1.924  -0.005  0.00  0.00    -0.332 N 
HETATM   11  C   UNK N   1       7.903   4.044  -0.112  0.00  0.00     0.009 A 
HETATM   12  C   UNK N   1      10.186   2.530   0.183  0.00  0.00     0.078 A 
ATOM     13  HN  UNK N   1       8.943   0.905  -0.033  1.00  0.00     0.168 HD
HETATM   14  N   UNK N   1      10.262   3.883   0.235  0.00  0.00    -0.349 N 
HETATM   15  C   UNK N   1      11.418   1.711   0.327  0.00  0.00     0.089 C 
HETATM   16  C   UNK N   1       9.151   4.651   0.098  0.00  0.00     0.016 A 
ATOM     17  HN  UNK N   1      11.168   4.330   0.379  1.00  0.00     0.167 HD
HETATM   18  C   UNK N   1       9.283   6.135   0.166  0.00  0.00     0.069 C 
HETATM   19  C   UNK N   1       6.676   4.886  -0.258  0.00  0.00     0.053 C 
HETATM   20  C   UNK N   1       5.449   4.165  -0.791  0.00  0.00     0.108 C 
HETATM   21  C   UNK N   1       5.463   2.669  -0.703  0.00  0.00     0.226 C 
HETATM   22  O   UNK N   1       4.424   2.093  -0.984  0.00  0.00    -0.273 OA
ENDBRANCH   7   8
ENDBRANCH   1   7
BRANCH   4  23
HETATM   23  C   UNK N   1       1.747  -2.394   0.269  0.00  0.00    -0.012 A 
HETATM   24  C   UNK N   1       1.912  -3.806   0.260  0.00  0.00     0.021 A 
HETATM   25  C   UNK N   1       0.773  -4.620   0.290  0.00  0.00     0.016 A 
HETATM   26  C   UNK N   1      -0.504  -4.056   0.347  0.00  0.00     0.001 A 
HETATM   27  C   UNK N   1      -0.657  -2.668   0.396  0.00  0.00     0.001 A 
HETATM   28  C   UNK N   1       0.465  -1.838   0.355  0.00  0.00     0.013 A 
BRANCH  24  29
HETATM   29  C   UNK N   1       3.257  -4.452   0.288  0.00  0.00     0.145 A 
HETATM   30  N   UNK N   1       4.423  -3.821   0.535  0.00  0.00    -0.271 N 
HETATM   31  N   UNK N   1       5.354  -4.755   0.510  0.00  0.00    -0.225 N 
ATOM     32  HN  UNK N   1       4.557  -2.824   0.706  1.00  0.00     0.190 HD
HETATM   33  N   UNK N   1       4.788  -5.928   0.268  0.00  0.00    -0.005 NA
HETATM   34  H   UNK N   1       6.317  -4.605   0.649  0.00  0.00     0.205 HD
HETATM   35  N   UNK N   1       3.481  -5.768   0.135  0.00  0.00    -0.266 N 
ATOM     36  HN  UNK N   1       2.787  -6.494  -0.046  1.00  0.00     0.186 HD
ENDBRANCH  24  29
ENDBRANCH   4  23
TORSDOF 4
