REMARK  2 active torsions:
REMARK  status: ('A' for Active; 'I' for Inactive)
REMARK    1  A    between atoms: C_6  and  C_7 
REMARK    2  A    between atoms: C_6  and  C_10 
ROOT
HETATM    1  O   UNK N   1       4.062  -1.916   1.785  0.00  0.00    -0.271 OA
HETATM    2  O   UNK N   1       5.259   1.952  -0.642  0.00  0.00    -0.271 OA
HETATM    3  O   UNK N   1       7.662  -1.773  -0.812  0.00  0.00    -0.247 OA
HETATM    4  N   UNK N   1       5.850  -1.846   0.474  0.00  0.00    -0.278 N 
HETATM    5  N   UNK N   1       6.444   0.084  -0.736  0.00  0.00    -0.278 N 
HETATM    6  C   UNK N   1       4.357   0.178   0.678  0.00  0.00     0.145 A 
HETATM    7  C   UNK N   1       4.747  -1.267   1.008  0.00  0.00     0.248 A 
HETATM    8  C   UNK N   1       5.382   0.791  -0.282  0.00  0.00     0.248 A 
HETATM    9  C   UNK N   1       6.680  -1.197  -0.374  0.00  0.00     0.329 A 
HETATM   10  H   UNK N   1       6.056  -2.779   0.713  0.00  0.00     0.173 HD
HETATM   11  H   UNK N   1       7.071   0.521  -1.357  0.00  0.00     0.173 HD
ENDROOT
BRANCH   6  12
HETATM   12  C   UNK N   1       2.940   0.266   0.062  0.00  0.00    -0.057 C 
HETATM   13  C   UNK N   1       2.424   1.614  -0.384  0.00  0.00     0.036 C 
HETATM   14  C   UNK N   1       1.136   1.975   0.340  0.00  0.00     0.004 C 
HETATM   15  C   UNK N   1      -0.102   1.430  -0.373  0.00  0.00     0.001 C 
HETATM   16  C   UNK N   1       0.184   0.256  -1.309  0.00  0.00     0.004 C 
HETATM   17  C   UNK N   1       0.749  -0.956  -0.575  0.00  0.00     0.027 C 
HETATM   18  C   UNK N   1       2.167  -0.842  -0.052  0.00  0.00    -0.022 C 
ENDBRANCH   6  12
BRANCH   6  19
HETATM   19  C   UNK N   1       4.399   0.925   2.030  0.00  0.00     0.029 C 
HETATM   20  C   UNK N   1       4.092   2.415   1.986  0.00  0.00     0.007 C 
ENDBRANCH   6  19
TORSDOF 2
