REMARK  17 active torsions:
REMARK  status: ('A' for Active; 'I' for Inactive)
REMARK    1  A    between atoms: O_5  and  C_24 
REMARK    2  A    between atoms: O_7  and  C_30 
REMARK    3  A    between atoms: O_8  and  C_31 
REMARK    4  A    between atoms: O_11  and  C_33 
REMARK    5  A    between atoms: O_12  and  C_34 
REMARK    6  A    between atoms: N_13  and  C_16 
REMARK    7  A    between atoms: N_13  and  C_17 
REMARK       I    between atoms: N_13  and  C_25 
REMARK       I    between atoms: N_14  and  C_26 
REMARK    8  A    between atoms: N_14  and  C_28 
REMARK       I    between atoms: N_15  and  C_27 
REMARK    9  A    between atoms: N_15  and  C_29 
REMARK   10  A    between atoms: C_16  and  C_18 
REMARK   11  A    between atoms: C_18  and  C_24 
REMARK   12  A    between atoms: C_21  and  C_27 
REMARK   13  A    between atoms: C_22  and  C_26 
REMARK   14  A    between atoms: C_28  and  C_30 
REMARK   15  A    between atoms: C_29  and  C_31 
REMARK   16  A    between atoms: C_30  and  C_33 
REMARK   17  A    between atoms: C_31  and  C_34 
ROOT
HETATM    1  O   UNK N   1       6.702   4.699  -0.493  0.00  0.00    -0.392 OA
HETATM    2  C   UNK N   1       6.566   4.638   0.899  0.00  0.00     0.160 C 
HETATM    3  H   UNK N   1       6.786   4.638  -1.457  0.00  0.00     0.210 HD
ENDROOT
BRANCH   2   4
HETATM    4  C   UNK N   1       5.830   3.353   1.364  0.00  0.00     0.166 C 
BRANCH   4   5
HETATM    5  N   UNK N   1       5.006   2.716   0.337  0.00  0.00    -0.313 N 
HETATM    6  C   UNK N   1       4.095   3.477  -0.369  0.00  0.00     0.220 C 
HETATM    7  O   UNK N   1       3.932   4.659  -0.091  0.00  0.00    -0.273 OA
HETATM    8  C   UNK N   1       3.328   2.920  -1.528  0.00  0.00     0.117 C 
BRANCH   5   9
HETATM    9  C   UNK N   1       5.103   1.273   0.143  0.00  0.00     0.072 C 
HETATM   10  C   UNK N   1       3.941   0.474   0.262  0.00  0.00     0.051 C 
HETATM   11  I   UNK N   1       2.110   1.381   1.013  0.00  0.00    -0.041 I 
HETATM   12  C   UNK N   1       3.993  -0.919  -0.003  0.00  0.00     0.068 C 
HETATM   13  C   UNK N   1       5.241  -1.540  -0.332  0.00  0.00     0.040 C 
HETATM   14  I   UNK N   1       5.038  -3.498  -1.179  0.00  0.00    -0.042 I 
HETATM   15  C   UNK N   1       6.484  -0.807  -0.228  0.00  0.00     0.068 C 
HETATM   16  C   UNK N   1       6.364   0.635  -0.073  0.00  0.00     0.051 C 
HETATM   17  I   UNK N   1       8.081   1.930  -0.378  0.00  0.00    -0.041 I 
BRANCH  12  18
HETATM   18  C   UNK N   1       2.735  -1.758   0.158  0.00  0.00     0.254 C 
HETATM   19  O   UNK N   1       1.630  -1.281  -0.046  0.00  0.00    -0.268 OA
HETATM   20  N   UNK N   1       2.827  -3.024   0.646  0.00  0.00    -0.354 N 
HETATM   21  H   UNK N   1       3.723  -3.418   0.753  0.00  0.00     0.162 HD
BRANCH  20  22
HETATM   22  C   UNK N   1       1.681  -3.823   1.018  0.00  0.00     0.156 C 
BRANCH  22  23
HETATM   23  C   UNK N   1       1.459  -5.039   0.112  0.00  0.00     0.159 C 
BRANCH  23  24
HETATM   24  O   UNK N   1       2.605  -5.410  -0.590  0.00  0.00    -0.392 OA
HETATM   25  H   UNK N   1       2.780  -6.230  -1.078  0.00  0.00     0.210 HD
ENDBRANCH  23  24
BRANCH  23  26
HETATM   26  C   UNK N   1       0.317  -4.783  -0.848  0.00  0.00     0.197 C 
BRANCH  26  27
HETATM   27  O   UNK N   1      -0.875  -4.676  -0.130  0.00  0.00    -0.398 OA
HETATM   28  H   UNK N   1      -1.225  -3.921   0.369  0.00  0.00     0.209 HD
ENDBRANCH  26  27
ENDBRANCH  23  26
ENDBRANCH  22  23
ENDBRANCH  20  22
ENDBRANCH  12  18
BRANCH  15  29
HETATM   29  C   UNK N   1       7.943  -1.406  -0.191  0.00  0.00     0.254 C 
HETATM   30  O   UNK N   1       8.799  -0.665   0.247  0.00  0.00    -0.268 OA
HETATM   31  N   UNK N   1       8.412  -2.671  -0.418  0.00  0.00    -0.354 N 
HETATM   32  H   UNK N   1       9.377  -2.738  -0.231  0.00  0.00     0.162 HD
BRANCH  31  33
HETATM   33  C   UNK N   1       7.875  -3.918  -0.853  0.00  0.00     0.156 C 
BRANCH  33  34
HETATM   34  C   UNK N   1       7.981  -4.969   0.247  0.00  0.00     0.159 C 
BRANCH  34  35
HETATM   35  O   UNK N   1       6.938  -5.883   0.107  0.00  0.00    -0.392 OA
HETATM   36  H   UNK N   1       6.024  -5.573   0.009  0.00  0.00     0.210 HD
ENDBRANCH  34  35
BRANCH  34  37
HETATM   37  C   UNK N   1       9.296  -5.723   0.155  0.00  0.00     0.197 C 
BRANCH  37  38
HETATM   38  O   UNK N   1      10.364  -4.882   0.461  0.00  0.00    -0.398 OA
HETATM   39  H   UNK N   1      11.243  -5.233   0.674  0.00  0.00     0.209 HD
ENDBRANCH  37  38
ENDBRANCH  34  37
ENDBRANCH  33  34
ENDBRANCH  31  33
ENDBRANCH  15  29
ENDBRANCH   5   9
ENDBRANCH   4   5
ENDBRANCH   2   4
BRANCH   2  40
HETATM   40  C   UNK N   1       7.937   4.711   1.558  0.00  0.00     0.197 C 
BRANCH  40  41
HETATM   41  O   UNK N   1       8.710   5.716   0.971  0.00  0.00    -0.398 OA
HETATM   42  H   UNK N   1       9.582   5.600   0.564  0.00  0.00     0.209 HD
ENDBRANCH  40  41
ENDBRANCH   2  40
TORSDOF 17
