REMARK  2 active torsions:
REMARK  status: ('A' for Active; 'I' for Inactive)
REMARK    1  A    between atoms: C_2  and  N_1 
REMARK    2  A    between atoms: N_1  and  C_9 
ROOT
HETATM    1  C   UNK N   1       6.037   0.673  -0.696  0.00  0.00     0.208 C 
HETATM    2  C   UNK N   1       6.391   1.958  -0.127  0.00  0.00    -0.098 C 
HETATM    3  C   UNK N   1       6.652   3.029   0.350  0.00  0.00     0.014 C 
ENDROOT
BRANCH   1   4
HETATM    4  N   UNK N   1       4.591   0.529  -0.684  0.00  0.00    -0.403 N 
HETATM    5  H   UNK N   1       3.912   1.117  -1.167  0.00  0.00     0.154 HD
BRANCH   4   6
HETATM    6  C   UNK N   1       4.310  -0.620   0.154  0.00  0.00     0.111 C 
HETATM    7  C   UNK N   1       4.885  -1.908  -0.475  0.00  0.00     0.034 C 
HETATM    8  C   UNK N   1       3.988  -3.043   0.017  0.00  0.00     0.041 C 
HETATM    9  C   UNK N   1       2.712  -2.322   0.128  0.00  0.00    -0.050 A 
HETATM   10  C   UNK N   1       2.881  -0.968   0.174  0.00  0.00    -0.030 A 
HETATM   11  C   UNK N   1       1.451  -2.898   0.060  0.00  0.00     0.007 A 
HETATM   12  C   UNK N   1       1.786  -0.100   0.148  0.00  0.00     0.010 A 
HETATM   13  C   UNK N   1       0.499  -0.656   0.069  0.00  0.00     0.001 A 
HETATM   14  C   UNK N   1       0.333  -2.054   0.032  0.00  0.00     0.001 A 
ENDBRANCH   4   6
ENDBRANCH   1   4
TORSDOF 2
