REMARK  5 active torsions:
REMARK  status: ('A' for Active; 'I' for Inactive)
REMARK    1  A    between atoms: C_11  and  O_1 
REMARK    2  A    between atoms: O_4  and  C_27 
REMARK    3  A    between atoms: O_4  and  C_28 
REMARK    4  A    between atoms: C_11  and  C_22 
REMARK    5  A    between atoms: C_22  and  C_27 
ROOT
HETATM    1  O   UNK N   1       3.218   1.829   0.297  0.00  0.00    -0.297 OA
HETATM    2  O   UNK N   1      -0.365  -3.387   0.519  0.00  0.00    -0.293 OA
HETATM    3  C   UNK N   1       6.715  -0.086  -0.187  0.00  0.00     0.002 C 
HETATM    4  C   UNK N   1       6.473   1.383  -0.545  0.00  0.00     0.005 C 
HETATM    5  C   UNK N   1       5.402  -0.901  -0.290  0.00  0.00     0.003 C 
HETATM    6  C   UNK N   1       4.296  -0.300   0.630  0.00  0.00     0.072 C 
HETATM    7  C   UNK N   1       7.903   1.944  -0.725  0.00  0.00     0.128 C 
HETATM    8  C   UNK N   1       2.934  -0.997   0.298  0.00  0.00    -0.009 C 
HETATM    9  C   UNK N   1       7.826  -0.495  -1.154  0.00  0.00     0.009 C 
HETATM   10  C   UNK N   1       5.563   2.004   0.523  0.00  0.00     0.091 C 
HETATM   11  C   UNK N   1       8.582   0.809  -1.507  0.00  0.00     0.047 C 
HETATM   12  C   UNK N   1       5.618  -2.359   0.110  0.00  0.00     0.010 C 
HETATM   13  C   UNK N   1       4.262   1.231   0.508  0.00  0.00     0.133 C 
HETATM   14  C   UNK N   1       5.758   1.507  -1.918  0.00  0.00     0.019 C 
HETATM   15  C   UNK N   1       3.066  -2.520   0.310  0.00  0.00    -0.067 C 
HETATM   16  C   UNK N   1       4.357  -3.206  -0.069  0.00  0.00     0.035 C 
HETATM   17  C   UNK N   1       1.848  -0.583   1.305  0.00  0.00     0.022 C 
HETATM   18  C   UNK N   1       2.473  -0.593  -1.111  0.00  0.00     0.021 C 
HETATM   19  C   UNK N   1       0.491  -1.243   1.012  0.00  0.00     0.084 C 
HETATM   20  C   UNK N   1       1.963  -3.284   0.376  0.00  0.00     0.053 C 
HETATM   21  C   UNK N   1       0.632  -2.693   0.630  0.00  0.00     0.149 C 
ENDROOT
BRANCH   7  22
HETATM   22  O   UNK N   1       7.863   3.103  -1.514  0.00  0.00    -0.381 OA
HETATM   23  H   UNK N   1       8.543   3.528  -2.059  0.00  0.00     0.211 HD
ENDBRANCH   7  22
BRANCH   7  24
HETATM   24  C   UNK N   1       8.714   2.270   0.532  0.00  0.00     0.185 C 
HETATM   25  O   UNK N   1       9.070   3.424   0.720  0.00  0.00    -0.292 OA
BRANCH  24  26
HETATM   26  C   UNK N   1       9.168   1.235   1.527  0.00  0.00     0.260 C 
BRANCH  26  27
HETATM   27  O   UNK N   1       9.967   0.258   0.960  0.00  0.00    -0.314 OA
BRANCH  27  28
HETATM   28  C   UNK N   1      11.165   0.465   0.342  0.00  0.00     0.255 C 
HETATM   29  O   UNK N   1      11.785  -0.490  -0.087  0.00  0.00    -0.266 OA
HETATM   30  C   UNK N   1      11.730   1.839   0.149  0.00  0.00     0.126 C 
ENDBRANCH  27  28
ENDBRANCH  26  27
ENDBRANCH  24  26
ENDBRANCH   7  24
TORSDOF 5
