REMARK  4 active torsions:
REMARK  status: ('A' for Active; 'I' for Inactive)
REMARK    1  A    between atoms: C_15  and  O_3 
REMARK    2  A    between atoms: O_5  and  C_26 
REMARK    3  A    between atoms: C_11  and  C_21 
REMARK    4  A    between atoms: C_21  and  C_26 
ROOT
HETATM    1  F   UNK N   1       4.089  -4.953  -0.576  0.00  0.00    -0.245 F 
HETATM    2  O   UNK N   1       8.166   1.121  -1.716  0.00  0.00    -0.381 OA
HETATM    3  O   UNK N   1      -0.396  -3.233  -1.285  0.00  0.00    -0.289 OA
HETATM    4  C   UNK N   1       6.822   0.597   0.209  0.00  0.00     0.001 C 
HETATM    5  C   UNK N   1       6.717  -0.816  -0.375  0.00  0.00     0.002 C 
HETATM    6  C   UNK N   1       5.470  -1.555   0.130  0.00  0.00     0.001 C 
HETATM    7  C   UNK N   1       4.174  -0.739  -0.220  0.00  0.00     0.035 C 
HETATM    8  C   UNK N   1       8.214   1.011  -0.319  0.00  0.00     0.131 C 
HETATM    9  C   UNK N   1       8.079  -1.437  -0.064  0.00  0.00     0.013 C 
HETATM   10  C   UNK N   1       5.620   1.405  -0.278  0.00  0.00     0.045 C 
HETATM   11  C   UNK N   1       9.070  -0.253   0.009  0.00  0.00     0.025 C 
HETATM   12  C   UNK N   1       4.316   0.752   0.224  0.00  0.00     0.124 C 
HETATM   13  C   UNK N   1       2.931  -1.460   0.417  0.00  0.00     0.006 A 
HETATM   14  C   UNK N   1       5.375  -2.955  -0.500  0.00  0.00     0.047 C 
HETATM   15  C   UNK N   1       6.816   0.609   1.752  0.00  0.00     0.019 C 
HETATM   16  C   UNK N   1       4.187  -3.730   0.068  0.00  0.00     0.200 C 
HETATM   17  C   UNK N   1       2.925  -2.911  -0.090  0.00  0.00    -0.030 A 
HETATM   18  C   UNK N   1       9.666  -0.282   1.414  0.00  0.00     0.013 C 
HETATM   19  C   UNK N   1       3.058  -1.477   1.938  0.00  0.00     0.025 C 
HETATM   20  C   UNK N   1       1.637  -0.716   0.118  0.00  0.00    -0.008 A 
HETATM   21  C   UNK N   1       1.845  -3.459  -0.676  0.00  0.00     0.061 A 
HETATM   22  C   UNK N   1       0.569  -1.283  -0.451  0.00  0.00     0.052 A 
HETATM   23  C   UNK N   1       0.601  -2.696  -0.839  0.00  0.00     0.172 A 
HETATM   24  H   UNK N   1       8.215   1.188  -2.683  0.00  0.00     0.211 HD
ENDROOT
BRANCH   8  25
HETATM   25  C   UNK N   1       8.727   2.346   0.203  0.00  0.00     0.185 C 
HETATM   26  O   UNK N   1       9.774   2.420   0.828  0.00  0.00    -0.292 OA
BRANCH  25  27
HETATM   27  C   UNK N   1       7.964   3.600  -0.084  0.00  0.00     0.245 C 
BRANCH  27  28
HETATM   28  O   UNK N   1       8.739   4.459  -0.864  0.00  0.00    -0.393 OA
HETATM   29  H   UNK N   1       9.526   4.290  -1.406  0.00  0.00     0.209 HD
ENDBRANCH  27  28
ENDBRANCH  25  27
ENDBRANCH   8  25
BRANCH  12  30
HETATM   30  O   UNK N   1       3.243   1.518  -0.234  0.00  0.00    -0.395 OA
HETATM   31  H   UNK N   1       3.331   2.431  -0.551  0.00  0.00     0.210 HD
ENDBRANCH  12  30
TORSDOF 4
