REMARK  3 active torsions:
REMARK  status: ('A' for Active; 'I' for Inactive)
REMARK    1  A    between atoms: C_13  and  O_1 
REMARK    2  A    between atoms: O_2  and  C_19 
REMARK    3  A    between atoms: C_10  and  C_19 
ROOT
HETATM    1  N   UNK N   1       6.013   2.529  -0.164  0.00  0.00     0.099 N 
HETATM    2  N   UNK N   1       2.683   0.907   0.111  0.00  0.00    -0.357 N 
HETATM    3  C   UNK N   1       6.919  -0.225   0.041  0.00  0.00     0.010 C 
HETATM    4  C   UNK N   1       7.867   0.878  -0.470  0.00  0.00     0.019 C 
HETATM    5  C   UNK N   1       5.498   0.134  -0.371  0.00  0.00     0.048 C 
HETATM    6  C   UNK N   1       5.150   1.432   0.334  0.00  0.00     0.273 C 
HETATM    7  C   UNK N   1       7.316  -1.621  -0.471  0.00  0.00     0.118 C 
HETATM    8  C   UNK N   1       7.428   2.234   0.127  0.00  0.00     0.278 C 
HETATM    9  C   UNK N   1       9.330   0.592  -0.097  0.00  0.00     0.009 C 
HETATM   10  C   UNK N   1       8.823  -1.912  -0.190  0.00  0.00     0.132 C 
HETATM   11  C   UNK N   1       9.553  -0.782   0.550  0.00  0.00     0.033 C 
HETATM   12  C   UNK N   1       3.722   1.777   0.141  0.00  0.00     0.050 A 
HETATM   13  C   UNK N   1       5.661   3.794   0.505  0.00  0.00     0.278 C 
HETATM   14  C   UNK N   1       3.288   3.078   0.111  0.00  0.00    -0.019 A 
HETATM   15  C   UNK N   1       4.216   4.254   0.183  0.00  0.00     0.072 C 
HETATM   16  C   UNK N   1       1.917   3.017   0.043  0.00  0.00    -0.001 A 
HETATM   17  C   UNK N   1       1.587   1.682   0.037  0.00  0.00     0.043 A 
HETATM   18  C   UNK N   1       0.946   4.012   0.016  0.00  0.00     0.014 A 
HETATM   19  C   UNK N   1       0.264   1.251  -0.008  0.00  0.00     0.030 A 
HETATM   20  C   UNK N   1      -0.402   3.607  -0.026  0.00  0.00     0.001 A 
HETATM   21  C   UNK N   1      -0.741   2.233  -0.042  0.00  0.00     0.002 A 
HETATM   22  H   UNK N   1       2.722  -0.077   0.137  0.00  0.00     0.166 HD
ENDROOT
BRANCH   7  23
HETATM   23  C   UNK N   1       6.368  -2.715   0.038  0.00  0.00     0.265 C 
HETATM   24  O   UNK N   1       5.551  -2.453   0.909  0.00  0.00    -0.265 OA
BRANCH  23  25
HETATM   25  O   UNK N   1       6.393  -3.975  -0.462  0.00  0.00    -0.326 OA
HETATM   26  C   UNK N   1       7.203  -4.361  -1.503  0.00  0.00     0.213 C 
ENDBRANCH  23  25
ENDBRANCH   7  23
BRANCH  10  27
HETATM   27  O   UNK N   1       9.016  -3.101   0.518  0.00  0.00    -0.395 OA
HETATM   28  H   UNK N   1       8.367  -3.630   1.009  0.00  0.00     0.210 HD
ENDBRANCH  10  27
TORSDOF 3
