REMARK  12 active torsions:
REMARK  status: ('A' for Active; 'I' for Inactive)
REMARK    1  A    between atoms: C_14  and  O_1 
REMARK    2  A    between atoms: C_32  and  O_2 
REMARK    3  A    between atoms: C_36  and  O_2 
REMARK    4  A    between atoms: C_39  and  O_6 
REMARK    5  A    between atoms: C_41  and  O_7 
REMARK    6  A    between atoms: C_43  and  O_7 
REMARK    7  A    between atoms: C_47  and  O_9 
REMARK    8  A    between atoms: C_49  and  O_9 
REMARK    9  A    between atoms: C_45  and  O_10 
REMARK   10  A    between atoms: C_51  and  O_12 
REMARK   11  A    between atoms: C_53  and  O_13 
REMARK   12  A    between atoms: C_22  and  C_33 
ROOT
HETATM    1  O   UNK N   1       9.773  -1.245  -0.970  0.00  0.00    -0.354 OA
HETATM    2  C   UNK N   1      10.077  -2.572  -0.575  0.00  0.00     0.263 C 
HETATM    3  C   UNK N   1       8.965  -3.401  -1.164  0.00  0.00     0.095 C 
HETATM    4  C   UNK N   1       7.715  -3.093  -0.351  0.00  0.00     0.154 C 
HETATM    5  C   UNK N   1       8.797  -0.705  -0.115  0.00  0.00     0.152 C 
HETATM    6  C   UNK N   1       7.543  -1.577   0.027  0.00  0.00     0.182 C 
HETATM    7  C   UNK N   1       8.414   0.687  -0.582  0.00  0.00     0.042 C 
ENDROOT
BRANCH   2   8
HETATM    8  O   UNK N   1      10.088  -2.770   0.843  0.00  0.00    -0.356 OA
BRANCH   8   9
HETATM    9  C   UNK N   1      11.309  -2.497   1.497  0.00  0.00     0.125 C 
HETATM   10  C   UNK N   1      12.527  -3.270   1.030  0.00  0.00     0.037 C 
HETATM   11  C   UNK N   1      13.105  -2.757  -0.288  0.00  0.00    -0.004 C 
HETATM   12  C   UNK N   1      13.097  -1.181  -0.414  0.00  0.00    -0.036 C 
HETATM   13  C   UNK N   1      14.510  -3.390  -0.298  0.00  0.00     0.006 C 
HETATM   14  C   UNK N   1      14.396  -0.612   0.143  0.00  0.00     0.001 C 
HETATM   15  C   UNK N   1      11.926  -0.478   0.297  0.00  0.00     0.012 C 
HETATM   16  C   UNK N   1      12.942  -0.801  -1.889  0.00  0.00     0.016 C 
HETATM   17  C   UNK N   1      15.603  -1.084  -0.731  0.00  0.00     0.025 C 
HETATM   18  C   UNK N   1      14.341   0.929   0.208  0.00  0.00     0.007 C 
HETATM   19  C   UNK N   1      16.885  -0.508  -0.095  0.00  0.00     0.070 C 
HETATM   20  C   UNK N   1      15.641  -2.603  -0.959  0.00  0.00     0.008 C 
HETATM   21  C   UNK N   1      16.789   1.023  -0.075  0.00  0.00    -0.005 C 
HETATM   22  C   UNK N   1      18.220  -0.724  -0.802  0.00  0.00     0.040 C 
HETATM   23  C   UNK N   1      15.626   1.484   0.794  0.00  0.00     0.013 C 
HETATM   24  C   UNK N   1      18.149   1.381   0.470  0.00  0.00     0.028 C 
HETATM   25  C   UNK N   1      16.621   1.622  -1.497  0.00  0.00     0.019 C 
HETATM   26  C   UNK N   1      19.095   0.469  -0.334  0.00  0.00     0.013 C 
HETATM   27  C   UNK N   1      11.615  -1.028   1.666  0.00  0.00     0.033 C 
BRANCH  19  28
HETATM   28  O   UNK N   1      17.011  -1.014   1.210  0.00  0.00    -0.389 OA
HETATM   29  H   UNK N   1      16.753  -1.264   2.111  0.00  0.00     0.210 HD
ENDBRANCH  19  28
BRANCH  24  30
HETATM   30  C   UNK N   1      18.396   2.867   0.450  0.00  0.00    -0.045 A 
HETATM   31  C   UNK N   1      17.518   3.861   1.189  0.00  0.00     0.213 A 
HETATM   32  O   UNK N   1      18.069   5.072   0.829  0.00  0.00    -0.314 OA
HETATM   33  C   UNK N   1      19.119   4.888   0.013  0.00  0.00     0.283 A 
HETATM   34  O   UNK N   1      19.776   5.793  -0.451  0.00  0.00    -0.260 OA
HETATM   35  C   UNK N   1      19.337   3.486  -0.241  0.00  0.00     0.087 A 
ENDBRANCH  24  30
ENDBRANCH   8   9
ENDBRANCH   2   8
BRANCH   4  36
HETATM   36  O   UNK N   1       7.723  -3.910   0.782  0.00  0.00    -0.393 OA
HETATM   37  H   UNK N   1       7.235  -4.199   1.569  0.00  0.00     0.210 HD
ENDBRANCH   4  36
BRANCH   6  38
HETATM   38  O   UNK N   1       7.103  -1.418   1.363  0.00  0.00    -0.351 OA
BRANCH  38  39
HETATM   39  C   UNK N   1       5.716  -1.130   1.468  0.00  0.00     0.263 C 
HETATM   40  O   UNK N   1       4.940  -2.277   1.739  0.00  0.00    -0.354 OA
HETATM   41  C   UNK N   1       5.033  -3.114   0.615  0.00  0.00     0.152 C 
HETATM   42  C   UNK N   1       4.372  -2.518  -0.633  0.00  0.00     0.182 C 
HETATM   43  C   UNK N   1       4.590  -4.529   0.936  0.00  0.00     0.042 C 
HETATM   44  C   UNK N   1       4.867  -1.058  -0.882  0.00  0.00     0.154 C 
HETATM   45  C   UNK N   1       5.062  -0.241   0.395  0.00  0.00     0.095 C 
BRANCH  42  46
HETATM   46  O   UNK N   1       2.998  -2.847  -0.671  0.00  0.00    -0.351 OA
BRANCH  46  47
HETATM   47  C   UNK N   1       2.152  -1.761  -0.449  0.00  0.00     0.263 C 
HETATM   48  O   UNK N   1       0.866  -2.118  -0.931  0.00  0.00    -0.354 OA
HETATM   49  C   UNK N   1      -0.156  -1.198  -0.570  0.00  0.00     0.151 C 
HETATM   50  C   UNK N   1       0.369   0.130   0.001  0.00  0.00     0.175 C 
HETATM   51  C   UNK N   1      -1.127  -1.880   0.384  0.00  0.00     0.042 C 
HETATM   52  C   UNK N   1       1.241  -0.131   1.232  0.00  0.00     0.154 C 
HETATM   53  C   UNK N   1       2.115  -1.373   1.036  0.00  0.00     0.095 C 
BRANCH  50  54
HETATM   54  O   UNK N   1      -0.672   1.008   0.299  0.00  0.00    -0.390 OA
HETATM   55  H   UNK N   1      -0.505   1.941   0.506  0.00  0.00     0.210 HD
ENDBRANCH  50  54
BRANCH  52  56
HETATM   56  O   UNK N   1       2.041   0.985   1.478  0.00  0.00    -0.393 OA
HETATM   57  H   UNK N   1       2.991   0.891   1.649  0.00  0.00     0.210 HD
ENDBRANCH  52  56
ENDBRANCH  46  47
ENDBRANCH  42  46
BRANCH  44  58
HETATM   58  O   UNK N   1       4.130  -0.359  -1.837  0.00  0.00    -0.393 OA
HETATM   59  H   UNK N   1       4.295   0.328  -2.502  0.00  0.00     0.210 HD
ENDBRANCH  44  58
ENDBRANCH  38  39
ENDBRANCH   6  38
TORSDOF 12
