REMARK  6 active torsions:
REMARK  status: ('A' for Active; 'I' for Inactive)
REMARK    1  A    between atoms: O_1  and  C_6 
REMARK    2  A    between atoms: O_1  and  C_11 
REMARK    3  A    between atoms: O_2  and  C_9 
REMARK    4  A    between atoms: O_4  and  C_19 
REMARK    5  A    between atoms: C_7  and  C_11 
REMARK    6  A    between atoms: C_8  and  C_19 
ROOT
HETATM    1  O   UNK N   1       4.745  -0.099  -0.023  0.00  0.00    -0.274 OA
ENDROOT
BRANCH   1   2
HETATM    2  C   UNK N   1       5.982  -0.665   0.039  0.00  0.00     0.096 A 
HETATM    3  C   UNK N   1       7.138   0.160   0.040  0.00  0.00     0.071 A 
HETATM    4  C   UNK N   1       8.405  -0.438   0.103  0.00  0.00     0.021 A 
HETATM    5  C   UNK N   1       8.541  -1.824   0.174  0.00  0.00     0.001 A 
HETATM    6  C   UNK N   1       7.408  -2.635   0.180  0.00  0.00     0.003 A 
HETATM    7  C   UNK N   1       6.140  -2.061   0.111  0.00  0.00     0.038 A 
BRANCH   3   8
HETATM    8  C   UNK N   1       7.068   1.643  -0.030  0.00  0.00     0.178 C 
HETATM    9  O   UNK N   1       5.996   2.223  -0.039  0.00  0.00    -0.646 OA
BRANCH   8  10
HETATM   10  O   UNK N   1       8.203   2.367  -0.085  0.00  0.00    -0.773 OA
HETATM   11  H   UNK N   1       9.034   1.936  -0.123  0.00  0.00     0.167 HD
ENDBRANCH   8  10
ENDBRANCH   3   8
ENDBRANCH   1   2
BRANCH   1  12
HETATM   12  C   UNK N   1       3.549  -0.728  -0.225  0.00  0.00     0.301 C 
HETATM   13  O   UNK N   1       3.509  -1.910  -0.539  0.00  0.00    -0.259 OA
BRANCH  12  14
HETATM   14  C   UNK N   1       2.282   0.039  -0.105  0.00  0.00     0.072 A 
HETATM   15  C   UNK N   1       2.262   1.394   0.296  0.00  0.00     0.082 A 
HETATM   16  C   UNK N   1       1.049   2.080   0.389  0.00  0.00     0.037 A 
HETATM   17  C   UNK N   1      -0.151   1.434   0.091  0.00  0.00     0.003 A 
HETATM   18  C   UNK N   1      -0.144   0.094  -0.298  0.00  0.00     0.001 A 
HETATM   19  C   UNK N   1       1.065  -0.600  -0.395  0.00  0.00     0.020 A 
BRANCH  15  20
HETATM   20  O   UNK N   1       3.394   2.046   0.601  0.00  0.00    -0.360 OA
HETATM   21  H   UNK N   1       4.184   1.589   0.814  0.00  0.00     0.217 HD
ENDBRANCH  15  20
ENDBRANCH  12  14
ENDBRANCH   1  12
TORSDOF 6
