REMARK  3 active torsions:
REMARK  status: ('A' for Active; 'I' for Inactive)
REMARK    1  A    between atoms: C_1  and  O_4 
REMARK    2  A    between atoms: O_4  and  C_7 
REMARK    3  A    between atoms: C_5  and  N_9 
REMARK       I    between atoms: C_7  and  N_10 
ROOT
HETATM    1  C   UNK N   1      18.965 -10.408   0.086  0.00  0.00     0.083 A 
HETATM    2  C   UNK N   1      20.147  -9.670   0.147  0.00  0.00     0.074 A 
HETATM    3  C   UNK N   1      19.032 -11.797  -0.110  0.00  0.00     0.037 A 
HETATM    4  C   UNK N   1      21.408 -10.285   0.023  0.00  0.00     0.138 A 
HETATM    5  C   UNK N   1      20.271 -12.429  -0.245  0.00  0.00     0.005 A 
HETATM    6  C   UNK N   1      21.450 -11.680  -0.190  0.00  0.00     0.037 A 
ENDROOT
BRANCH   1   7
HETATM    7  O   UNK N   1      17.791  -9.732   0.176  0.00  0.00    -0.261 OA
BRANCH   7   8
HETATM    8  C   UNK N   1      16.523 -10.226   0.111  0.00  0.00     0.367 C 
HETATM    9  N   UNK N   1      15.480  -9.358   0.005  0.00  0.00    -0.336 N 
HETATM   10  C   UNK N   1      14.124  -9.835  -0.094  0.00  0.00     0.154 C 
HETATM   11  C   UNK N   1      15.719  -7.938  -0.041  0.00  0.00     0.154 C 
HETATM   12  O   UNK N   1      16.318 -11.432   0.137  0.00  0.00    -0.238 OA
ENDBRANCH   7   8
ENDBRANCH   1   7
BRANCH   4  13
HETATM   13  N   UNK N   1      22.612  -9.490   0.035  0.00  0.00    -0.049 N 
HETATM   14  C   UNK N   1      22.844  -8.999  -1.298  0.00  0.00     0.278 C 
HETATM   15  C   UNK N   1      22.481  -8.345   0.905  0.00  0.00     0.278 C 
HETATM   16  C   UNK N   1      23.765 -10.262   0.432  0.00  0.00     0.278 C 
ENDBRANCH   4  13
TORSDOF 3
