REMARK  1 active torsions:
REMARK  status: ('A' for Active; 'I' for Inactive)
REMARK    1  A    between atoms: C_11  and  O_1 
ROOT
HETATM    1  O   UNK N   1       0.182   2.635   0.349  0.00  0.00    -0.238 OA
HETATM    2  N   UNK N   1      -0.557   1.726   0.926  0.00  0.00    -0.271 N 
ATOM      3  HN  UNK N   1      -1.487   1.870   1.319  1.00  0.00     0.194 HD
HETATM    4  C   UNK N   1       7.022   0.510  -0.479  0.00  0.00     0.002 C 
HETATM    5  C   UNK N   1       7.093  -0.962   0.055  0.00  0.00     0.003 C 
HETATM    6  C   UNK N   1       6.072   1.437   0.341  0.00  0.00    -0.004 C 
HETATM    7  C   UNK N   1       4.754   0.730   0.733  0.00  0.00     0.003 C 
HETATM    8  C   UNK N   1       3.743   0.631  -0.455  0.00  0.00    -0.013 C 
HETATM    9  C   UNK N   1       6.554  -0.994   1.498  0.00  0.00     0.014 C 
HETATM   10  C   UNK N   1       8.582  -1.302  -0.100  0.00  0.00     0.128 C 
HETATM   11  C   UNK N   1       5.053  -0.600   1.481  0.00  0.00     0.007 C 
HETATM   12  C   UNK N   1       8.448   1.064  -0.341  0.00  0.00     0.010 C 
HETATM   13  C   UNK N   1       5.832   2.816  -0.316  0.00  0.00     0.010 C 
HETATM   14  C   UNK N   1       9.274  -0.030   0.326  0.00  0.00     0.052 C 
HETATM   15  C   UNK N   1       3.564   2.085  -0.919  0.00  0.00    -0.068 C 
HETATM   16  C   UNK N   1       6.269  -1.984  -0.736  0.00  0.00     0.020 C 
HETATM   17  C   UNK N   1       4.781   2.795  -1.432  0.00  0.00     0.035 C 
HETATM   18  C   UNK N   1       2.463  -0.110   0.015  0.00  0.00     0.057 C 
HETATM   19  C   UNK N   1       4.234  -0.166  -1.653  0.00  0.00     0.021 C 
HETATM   20  C   UNK N   1       9.056  -2.458   0.676  0.00  0.00    -0.078 C 
HETATM   21  C   UNK N   1       2.431   2.781  -0.711  0.00  0.00     0.043 C 
HETATM   22  C   UNK N   1       1.333   0.806   0.299  0.00  0.00    -0.004 A 
HETATM   23  C   UNK N   1       1.316   2.116  -0.043  0.00  0.00     0.106 A 
HETATM   24  C   UNK N   1       0.128   0.557   0.910  0.00  0.00     0.124 A 
HETATM   25  C   UNK N   1       9.462  -3.405   1.307  0.00  0.00     0.015 C 
ENDROOT
BRANCH  10  26
HETATM   26  O   UNK N   1       8.886  -1.527  -1.453  0.00  0.00    -0.377 OA
HETATM   27  H   UNK N   1       8.857  -1.787  -2.387  0.00  0.00     0.211 HD
ENDBRANCH  10  26
TORSDOF 1
