REMARK  6 active torsions:
REMARK  status: ('A' for Active; 'I' for Inactive)
REMARK    1  A    between atoms: O_3  and  C_8 
REMARK    2  A    between atoms: N_4  and  C_6 
REMARK    3  A    between atoms: N_4  and  C_7 
REMARK    4  A    between atoms: N_5  and  C_17 
REMARK    5  A    between atoms: C_7  and  C_8 
REMARK    6  A    between atoms: C_8  and  C_12 
ROOT
HETATM    1 Cl   UNK N   1       6.723   3.467  -0.072  0.00  0.00    -0.082 Cl
HETATM    2 Cl   UNK N   1       1.269   2.721  -0.108  0.00  0.00    -0.082 Cl
HETATM    3  C   UNK N   1       4.399   0.173  -0.218  0.00  0.00    -0.025 A 
HETATM    4  C   UNK N   1       3.104   0.709  -0.215  0.00  0.00     0.036 A 
HETATM    5  C   UNK N   1       5.499   1.039  -0.172  0.00  0.00     0.036 A 
HETATM    6  C   UNK N   1       5.313   2.423  -0.113  0.00  0.00     0.062 A 
HETATM    7  C   UNK N   1       2.908   2.093  -0.140  0.00  0.00     0.062 A 
HETATM    8  C   UNK N   1       4.015   2.952  -0.092  0.00  0.00     0.069 A 
ENDROOT
BRANCH   3   9
HETATM    9  C   UNK N   1       4.616  -1.317  -0.314  0.00  0.00     0.168 C 
BRANCH   9  10
HETATM   10  O   UNK N   1       5.884  -1.670   0.154  0.00  0.00    -0.389 OA
HETATM   11  H   UNK N   1       6.113  -2.555   0.478  0.00  0.00     0.210 HD
ENDBRANCH   9  10
BRANCH   9  12
HETATM   12  C   UNK N   1       3.567  -2.108   0.444  0.00  0.00     0.151 C 
BRANCH  12  13
HETATM   13  N   UNK N   1       2.650  -2.725  -0.513  0.00  0.00    -0.411 N 
HETATM   14  H   UNK N   1       2.828  -2.792  -1.515  0.00  0.00     0.154 HD
BRANCH  13  15
HETATM   15  C   UNK N   1       1.444  -3.234   0.146  0.00  0.00     0.014 C 
HETATM   16  C   UNK N   1       0.630  -4.004  -0.873  0.00  0.00     0.037 C 
HETATM   17  C   UNK N   1       1.784  -4.184   1.287  0.00  0.00     0.037 C 
HETATM   18  C   UNK N   1       0.592  -2.086   0.663  0.00  0.00     0.037 C 
ENDBRANCH  13  15
ENDBRANCH  12  13
ENDBRANCH   9  12
ENDBRANCH   3   9
BRANCH   8  19
HETATM   19  N   UNK N   1       3.823   4.353  -0.025  0.00  0.00    -0.396 N 
HETATM   20  H   UNK N   1       4.600   4.956   0.021  0.00  0.00     0.156 HD
HETATM   21  H   UNK N   1       2.911   4.724  -0.025  0.00  0.00     0.156 HD
ENDBRANCH   8  19
TORSDOF 6
