REMARK  9 active torsions:
REMARK  status: ('A' for Active; 'I' for Inactive)
REMARK    1  A    between atoms: O_1  and  C_11 
REMARK    2  A    between atoms: O_2  and  C_18 
REMARK    3  A    between atoms: O_2  and  C_21 
REMARK    4  A    between atoms: O_3  and  C_19 
REMARK    5  A    between atoms: O_3  and  C_22 
REMARK    6  A    between atoms: N_6  and  C_9 
REMARK    7  A    between atoms: N_6  and  C_10 
REMARK       I    between atoms: N_7  and  C_21 
REMARK       I    between atoms: N_8  and  C_22 
REMARK    8  A    between atoms: C_10  and  C_11 
REMARK    9  A    between atoms: C_11  and  C_15 
ROOT
HETATM    1  C   UNK N   1       4.089   0.916  -0.245  0.00  0.00    -0.023 A 
HETATM    2  C   UNK N   1       5.357   0.307  -0.287  0.00  0.00     0.047 A 
HETATM    3  C   UNK N   1       2.947   0.116  -0.083  0.00  0.00     0.047 A 
HETATM    4  C   UNK N   1       3.056  -1.270   0.030  0.00  0.00     0.084 A 
HETATM    5  C   UNK N   1       5.484  -1.082  -0.142  0.00  0.00     0.084 A 
HETATM    6  C   UNK N   1       4.326  -1.852   0.008  0.00  0.00     0.074 A 
ENDROOT
BRANCH   1   7
HETATM    7  C   UNK N   1       3.944   2.402  -0.453  0.00  0.00     0.168 C 
BRANCH   7   8
HETATM    8  O   UNK N   1       2.641   2.837  -0.190  0.00  0.00    -0.389 OA
HETATM    9  H   UNK N   1       2.451   3.770  -0.007  0.00  0.00     0.210 HD
ENDBRANCH   7   8
BRANCH   7  10
HETATM   10  C   UNK N   1       4.932   3.218   0.355  0.00  0.00     0.151 C 
BRANCH  10  11
HETATM   11  N   UNK N   1       5.970   3.695  -0.556  0.00  0.00    -0.411 N 
HETATM   12  H   UNK N   1       5.851   3.766  -1.567  0.00  0.00     0.154 HD
BRANCH  11  13
HETATM   13  C   UNK N   1       7.201   4.061   0.148  0.00  0.00     0.014 C 
HETATM   14  C   UNK N   1       7.812   2.851   0.837  0.00  0.00     0.037 C 
HETATM   15  C   UNK N   1       6.949   5.167   1.161  0.00  0.00     0.037 C 
HETATM   16  C   UNK N   1       8.195   4.575  -0.872  0.00  0.00     0.037 C 
ENDBRANCH  11  13
ENDBRANCH  10  11
ENDBRANCH   7  10
ENDBRANCH   1   7
BRANCH   5  17
HETATM   17  O   UNK N   1       6.723  -1.652  -0.154  0.00  0.00    -0.261 OA
BRANCH  17  18
HETATM   18  C   UNK N   1       7.007  -2.992  -0.076  0.00  0.00     0.367 C 
HETATM   19  O   UNK N   1       6.105  -3.820  -0.052  0.00  0.00    -0.238 OA
HETATM   20  N   UNK N   1       8.300  -3.411  -0.028  0.00  0.00    -0.336 N 
HETATM   21  C   UNK N   1       9.380  -2.460  -0.051  0.00  0.00     0.154 C 
HETATM   22  C   UNK N   1       8.616  -4.816   0.051  0.00  0.00     0.154 C 
ENDBRANCH  17  18
ENDBRANCH   5  17
BRANCH   4  23
HETATM   23  O   UNK N   1       1.924  -2.018   0.115  0.00  0.00    -0.261 OA
BRANCH  23  24
HETATM   24  C   UNK N   1       1.836  -3.383   0.103  0.00  0.00     0.367 C 
HETATM   25  O   UNK N   1       2.847  -4.076   0.094  0.00  0.00    -0.238 OA
HETATM   26  N   UNK N   1       0.615  -3.979   0.082  0.00  0.00    -0.336 N 
HETATM   27  C   UNK N   1      -0.585  -3.183   0.077  0.00  0.00     0.154 C 
HETATM   28  C   UNK N   1       0.493  -5.415   0.042  0.00  0.00     0.154 C 
ENDBRANCH  23  24
ENDBRANCH   4  23
TORSDOF 9
