REMARK  2 active torsions:
REMARK  status: ('A' for Active; 'I' for Inactive)
REMARK    1  A    between atoms: O_1  and  C_10 
REMARK    2  A    between atoms: N_6  and  C_9 
ROOT
HETATM    1  N   UNK N   1       4.276   1.819  -0.000  0.00  0.00    -0.363 N 
ATOM      2  HN  UNK N   1       4.216   2.837  -0.000  1.00  0.00     0.165 HD
HETATM    3  C   UNK N   1       3.191  -0.329   0.000  0.00  0.00     0.026 A 
HETATM    4  C   UNK N   1       3.127   1.087  -0.000  0.00  0.00     0.078 A 
HETATM    5  C   UNK N   1       1.990  -1.088   0.000  0.00  0.00     0.115 A 
HETATM    6  C   UNK N   1       1.880   1.731  -0.000  0.00  0.00     0.093 A 
HETATM    7  C   UNK N   1       0.762  -0.410   0.000  0.00  0.00     0.040 A 
HETATM    8  C   UNK N   1       4.455  -0.935   0.000  0.00  0.00     0.018 A 
HETATM    9  C   UNK N   1       0.707   0.981  -0.000  0.00  0.00     0.041 A 
HETATM   10  C   UNK N   1       5.611  -0.161   0.000  0.00  0.00     0.018 A 
HETATM   11  C   UNK N   1       5.502   1.228  -0.000  0.00  0.00     0.088 A 
ENDROOT
BRANCH   5  12
HETATM   12  N   UNK N   1       1.979  -2.518   0.000  0.00  0.00    -0.115 N 
HETATM   13  O   UNK N   1       0.829  -3.159   0.000  0.00  0.00    -0.532 OA
HETATM   14  O   UNK N   1       2.993  -3.146  -0.000  0.00  0.00    -0.532 OA
ENDBRANCH   5  12
BRANCH   6  15
HETATM   15  O   UNK N   1       1.805   3.073  -0.000  0.00  0.00    -0.358 OA
HETATM   16  H   UNK N   1       2.588   3.586  -0.000  0.00  0.00     0.217 HD
ENDBRANCH   6  15
TORSDOF 2
