REMARK  6 active torsions:
REMARK  status: ('A' for Active; 'I' for Inactive)
REMARK    1  A    between atoms: O_2  and  C_20 
REMARK    2  A    between atoms: N_3  and  C_15 
REMARK    3  A    between atoms: N_4  and  C_14 
REMARK       I    between atoms: N_4  and  C_17 
REMARK    4  A    between atoms: C_10  and  C_14 
REMARK    5  A    between atoms: C_15  and  C_16 
REMARK    6  A    between atoms: C_17  and  C_18 
ROOT
HETATM    1  N   UNK N   1       9.332  -0.453  -0.001  0.00  0.00    -0.284 N 
ATOM      2  HN  UNK N   1       9.509   0.551  -0.004  1.00  0.00     0.188 HD
HETATM    3  N   UNK N   1       9.655  -2.622   0.006  0.00  0.00    -0.284 N 
ATOM      4  HN  UNK N   1      10.118  -3.531   0.009  1.00  0.00     0.188 HD
HETATM    5  N   UNK N   1      10.241  -1.426   0.002  0.00  0.00    -0.242 N 
HETATM    6  C   UNK N   1       5.751  -1.353  -0.003  0.00  0.00     0.067 A 
HETATM    7  C   UNK N   1       5.961  -2.777   0.009  0.00  0.00     0.086 A 
HETATM    8  C   UNK N   1       6.877  -0.497  -0.005  0.00  0.00     0.053 A 
HETATM    9  C   UNK N   1       8.138  -1.060   0.000  0.00  0.00     0.078 A 
HETATM   10  C   UNK N   1       7.284  -3.297   0.010  0.00  0.00     0.071 A 
HETATM   11  C   UNK N   1       8.334  -2.392   0.006  0.00  0.00     0.080 A 
HETATM   12  H   UNK N   1      11.215  -1.281   0.002  0.00  0.00     0.208 HD
ENDROOT
BRANCH   6  13
HETATM   13  C   UNK N   1       4.361  -0.768  -0.006  0.00  0.00     0.254 C 
HETATM   14  O   UNK N   1       3.404  -1.514   0.128  0.00  0.00    -0.268 OA
HETATM   15  N   UNK N   1       4.111   0.562  -0.169  0.00  0.00    -0.355 N 
HETATM   16  H   UNK N   1       3.172   0.855  -0.114  0.00  0.00     0.162 HD
BRANCH  15  17
HETATM   17  C   UNK N   1       5.109   1.575  -0.415  0.00  0.00     0.158 C 
BRANCH  17  18
HETATM   18  C   UNK N   1       4.770   2.870   0.300  0.00  0.00     0.241 C 
HETATM   19  N   UNK N   1       3.547   3.447  -0.235  0.00  0.00     0.098 N 
HETATM   20  C   UNK N   1       3.672   4.875   0.023  0.00  0.00     0.273 C 
HETATM   21  C   UNK N   1       5.152   5.209   0.039  0.00  0.00     0.032 C 
HETATM   22  C   UNK N   1       5.862   3.876   0.030  0.00  0.00     0.039 C 
BRANCH  19  23
HETATM   23  C   UNK N   1       2.425   2.944   0.545  0.00  0.00     0.299 C 
BRANCH  23  24
HETATM   24  C   UNK N   1       1.170   3.031  -0.255  0.00  0.00    -0.007 C 
HETATM   25  C   UNK N   1       0.173   2.186  -0.019  0.00  0.00     0.008 C 
ENDBRANCH  23  24
ENDBRANCH  19  23
ENDBRANCH  17  18
ENDBRANCH  15  17
ENDBRANCH   6  13
BRANCH   7  26
HETATM   26  O   UNK N   1       4.897  -3.620   0.007  0.00  0.00    -0.355 OA
HETATM   27  C   UNK N   1       5.013  -4.992   0.001  0.00  0.00     0.210 C 
ENDBRANCH   7  26
TORSDOF 6
