REMARK  2 active torsions:
REMARK  status: ('A' for Active; 'I' for Inactive)
REMARK    1  A    between atoms: N_3  and  C_10 
REMARK    2  A    between atoms: C_6  and  C_7 
ROOT
HETATM    1  O   UNK N   1       0.739  -2.054  -0.000  0.00  0.00    -0.266 OA
HETATM    2  N   UNK N   1       2.979  -2.139   0.001  0.00  0.00    -0.331 N 
HETATM    3  C   UNK N   1       4.228  -0.094   0.001  0.00  0.00    -0.008 A 
HETATM    4  C   UNK N   1       3.027   0.625   0.000  0.00  0.00     0.048 A 
HETATM    5  C   UNK N   1       4.177  -1.495   0.001  0.00  0.00     0.103 A 
HETATM    6  C   UNK N   1       1.807  -0.045  -0.000  0.00  0.00     0.095 A 
HETATM    7  C   UNK N   1       1.795  -1.446   0.000  0.00  0.00     0.271 A 
HETATM    8  H   UNK N   1       2.961  -3.123   0.001  0.00  0.00     0.168 HD
ENDROOT
BRANCH   3   9
HETATM    9  C   UNK N   1       5.523   0.618   0.000  0.00  0.00    -0.022 A 
HETATM   10  C   UNK N   1       5.562   2.019  -0.000  0.00  0.00     0.029 A 
HETATM   11  C   UNK N   1       6.792   2.676  -0.001  0.00  0.00     0.088 A 
HETATM   12  N   UNK N   1       7.948   1.960  -0.001  0.00  0.00    -0.375 N 
HETATM   13  C   UNK N   1       7.940   0.600  -0.000  0.00  0.00     0.088 A 
ATOM     14  HN  UNK N   1       8.840   2.454  -0.002  1.00  0.00     0.164 HD
HETATM   15  C   UNK N   1       6.730  -0.094   0.000  0.00  0.00     0.029 A 
ENDBRANCH   3   9
BRANCH   6  16
HETATM   16  N   UNK N   1       0.604   0.691  -0.001  0.00  0.00    -0.395 N 
HETATM   17  H   UNK N   1       0.630   1.675  -0.001  0.00  0.00     0.156 HD
HETATM   18  H   UNK N   1      -0.261   0.221  -0.001  0.00  0.00     0.156 HD
ENDBRANCH   6  16
TORSDOF 2
