REMARK  7 active torsions:
REMARK  status: ('A' for Active; 'I' for Inactive)
REMARK    1  A    between atoms: N_3  and  C_15 
REMARK       I    between atoms: N_4  and  C_20 
REMARK       I    between atoms: N_11  and  C_31 
REMARK    2  A    between atoms: N_11  and  C_33 
REMARK       I    between atoms: N_12  and  C_32 
REMARK    3  A    between atoms: N_12  and  C_34 
REMARK    4  A    between atoms: C_15  and  C_18 
REMARK    5  A    between atoms: C_15  and  C_19 
REMARK    6  A    between atoms: C_33  and  C_35 
REMARK    7  A    between atoms: C_34  and  C_36 
ROOT
HETATM    1  N   UNK N   1       4.503  -0.856   1.051  0.00  0.00     0.105 N 
HETATM    2  N   UNK N   1       6.665   0.338  -0.287  0.00  0.00    -0.213 N 
HETATM    3  N   UNK N   1       7.994   2.344  -0.185  0.00  0.00    -0.021 N 
ATOM      4  HN  UNK N   1       7.140   2.901  -0.202  1.00  0.00     0.203 HD
HETATM    5  N   UNK N   1       9.057   0.252  -0.196  0.00  0.00    -0.021 N 
ATOM      6  HN  UNK N   1       9.000  -0.766  -0.208  1.00  0.00     0.203 HD
HETATM    7  N   UNK N   1      10.341   2.213  -0.121  0.00  0.00    -0.022 N 
ATOM      8  HN  UNK N   1      11.252   2.673  -0.096  1.00  0.00     0.203 HD
HETATM    9  N   UNK N   1       9.257   4.370  -0.086  0.00  0.00    -0.222 N 
HETATM   10  N   UNK N   1      11.431   0.058  -0.211  0.00  0.00    -0.222 N 
HETATM   11  C   UNK N   1       5.840  -1.475   1.034  0.00  0.00     0.294 C 
HETATM   12  C   UNK N   1       4.646   0.615   0.999  0.00  0.00     0.294 C 
HETATM   13  C   UNK N   1       6.602  -1.098  -0.234  0.00  0.00     0.171 C 
HETATM   14  C   UNK N   1       5.430   1.077  -0.236  0.00  0.00     0.171 C 
HETATM   15  C   UNK N   1       7.919   0.988  -0.224  0.00  0.00     0.709 A 
HETATM   16  C   UNK N   1       9.201   2.958  -0.123  0.00  0.00     0.707 A 
HETATM   17  C   UNK N   1      10.265   0.854  -0.153  0.00  0.00     0.707 A 
HETATM   18  H   UNK N   1       8.417   4.881  -0.136  0.00  0.00     0.178 HD
HETATM   19  H   UNK N   1      11.382  -0.887   0.059  0.00  0.00     0.178 HD
ENDROOT
BRANCH   1  20
HETATM   20  C   UNK N   1       3.631  -1.388  -0.025  0.00  0.00     0.289 C 
BRANCH  20  21
HETATM   21  C   UNK N   1       3.635  -2.909  -0.111  0.00  0.00    -0.021 A 
HETATM   22  C   UNK N   1       4.680  -3.550  -0.796  0.00  0.00     0.012 A 
HETATM   23  C   UNK N   1       4.784  -4.944  -0.794  0.00  0.00     0.043 A 
HETATM   24  C   UNK N   1       3.840  -5.712  -0.112  0.00  0.00     0.116 A 
HETATM   25  F   UNK N   1       3.945  -7.063  -0.104  0.00  0.00    -0.206 F 
HETATM   26  C   UNK N   1       2.791  -5.087   0.567  0.00  0.00     0.043 A 
HETATM   27  C   UNK N   1       2.698  -3.691   0.581  0.00  0.00     0.012 A 
ENDBRANCH  20  21
BRANCH  20  28
HETATM   28  C   UNK N   1       2.289  -0.682  -0.117  0.00  0.00    -0.021 A 
HETATM   29  C   UNK N   1       1.142  -1.195   0.505  0.00  0.00     0.012 A 
HETATM   30  C   UNK N   1      -0.058  -0.478   0.483  0.00  0.00     0.043 A 
HETATM   31  C   UNK N   1      -0.114   0.771  -0.141  0.00  0.00     0.116 A 
HETATM   32  F   UNK N   1      -1.270   1.477  -0.144  0.00  0.00    -0.206 F 
HETATM   33  C   UNK N   1       1.024   1.295  -0.757  0.00  0.00     0.043 A 
HETATM   34  C   UNK N   1       2.219   0.570  -0.746  0.00  0.00     0.012 A 
ENDBRANCH  20  28
ENDBRANCH   1  20
BRANCH   9  35
HETATM   35  C   UNK N   1      10.501   5.085   0.023  0.00  0.00     0.164 C 
BRANCH  35  36
HETATM   36  C   UNK N   1      10.266   6.517  -0.317  0.00  0.00    -0.017 C 
HETATM   37  C   UNK N   1      10.488   7.468   0.584  0.00  0.00     0.008 C 
ENDBRANCH  35  36
ENDBRANCH   9  35
BRANCH  10  38
HETATM   38  C   UNK N   1      12.688   0.598  -0.653  0.00  0.00     0.164 C 
BRANCH  38  39
HETATM   39  C   UNK N   1      13.726   0.451   0.399  0.00  0.00    -0.017 C 
HETATM   40  C   UNK N   1      14.544   1.467   0.650  0.00  0.00     0.008 C 
ENDBRANCH  38  39
ENDBRANCH  10  38
TORSDOF 7
