REMARK  3 active torsions:
REMARK  status: ('A' for Active; 'I' for Inactive)
REMARK    1  A    between atoms: C_6  and  O_1 
REMARK    2  A    between atoms: C_6  and  C_16 
REMARK    3  A    between atoms: C_16  and  C_21 
ROOT
HETATM    1  C   UNK N   1       5.887   0.942  -0.609  0.00  0.00    -0.009 C 
HETATM    2  C   UNK N   1       5.984  -0.502  -0.129  0.00  0.00     0.001 C 
HETATM    3  C   UNK N   1       4.685  -1.282  -0.404  0.00  0.00    -0.005 C 
HETATM    4  C   UNK N   1       3.407  -0.436  -0.016  0.00  0.00    -0.002 C 
HETATM    5  C   UNK N   1       7.347   1.408  -0.461  0.00  0.00     0.068 C 
HETATM    6  C   UNK N   1       4.846   1.722   0.216  0.00  0.00     0.013 C 
HETATM    7  C   UNK N   1       7.248  -1.032  -0.800  0.00  0.00     0.009 C 
HETATM    8  C   UNK N   1       3.750   0.815   0.828  0.00  0.00     0.006 C 
HETATM    9  C   UNK N   1       8.123   0.214  -1.039  0.00  0.00     0.039 C 
HETATM   10  C   UNK N   1       2.350  -1.293   0.726  0.00  0.00     0.019 C 
HETATM   11  C   UNK N   1       4.719  -2.669   0.263  0.00  0.00     0.009 C 
HETATM   12  C   UNK N   1       5.467   1.011  -2.089  0.00  0.00     0.019 C 
HETATM   13  C   UNK N   1       3.471  -3.471  -0.135  0.00  0.00     0.034 C 
HETATM   14  C   UNK N   1       2.226  -2.646   0.044  0.00  0.00    -0.079 C 
HETATM   15  C   UNK N   1       1.006  -0.563   0.895  0.00  0.00     0.010 C 
HETATM   16  C   UNK N   1       0.088  -0.807  -0.293  0.00  0.00     0.004 C 
HETATM   17  C   UNK N   1       1.062  -3.100  -0.451  0.00  0.00    -0.024 C 
HETATM   18  C   UNK N   1      -0.210  -2.301  -0.366  0.00  0.00     0.027 C 
ENDROOT
BRANCH   5  19
HETATM   19  O   UNK N   1       7.584   2.583  -1.181  0.00  0.00    -0.389 OA
HETATM   20  H   UNK N   1       8.372   2.849  -1.681  0.00  0.00     0.210 HD
ENDBRANCH   5  19
BRANCH   5  21
HETATM   21  C   UNK N   1       7.752   1.618   1.016  0.00  0.00     0.065 C 
BRANCH  21  22
HETATM   22  C   UNK N   1       9.188   2.014   1.281  0.00  0.00    -0.034 C 
HETATM   23  C   UNK N   1      10.085   2.235   0.319  0.00  0.00     0.007 C 
ENDBRANCH  21  22
ENDBRANCH   5  21
TORSDOF 3
