REMARK  1 active torsions:
REMARK  status: ('A' for Active; 'I' for Inactive)
REMARK    1  A    between atoms: N_2  and  C_5 
ROOT
HETATM    1  O   UNK N   1       0.776   1.099  -0.000  0.00  0.00    -0.266 OA
HETATM    2  N   UNK N   1       3.012   0.598  -0.000  0.00  0.00    -0.219 N 
HETATM    3  N   UNK N   1       4.112   1.344   0.000  0.00  0.00    -0.291 N 
HETATM    4  C   UNK N   1       3.759   2.645   0.000  0.00  0.00     0.030 A 
HETATM    5  C   UNK N   1       1.944   1.447  -0.000  0.00  0.00     0.268 A 
HETATM    6  C   UNK N   1       2.377   2.759   0.000  0.00  0.00     0.102 A 
HETATM    7  C   UNK N   1       5.491   0.866   0.000  0.00  0.00     0.178 C 
HETATM    8  C   UNK N   1       4.721   3.781   0.000  0.00  0.00     0.070 C 
ENDROOT
BRANCH   2   9
HETATM    9  C   UNK N   1       2.966  -0.851  -0.000  0.00  0.00     0.060 A 
HETATM   10  C   UNK N   1       4.149  -1.606  -0.000  0.00  0.00     0.031 A 
HETATM   11  C   UNK N   1       4.110  -2.999  -0.000  0.00  0.00     0.002 A 
HETATM   12  C   UNK N   1       2.881  -3.659  -0.000  0.00  0.00     0.000 A 
HETATM   13  C   UNK N   1       1.693  -2.924  -0.000  0.00  0.00     0.002 A 
HETATM   14  C   UNK N   1       1.735  -1.528  -0.000  0.00  0.00     0.031 A 
ENDBRANCH   2   9
TORSDOF 1
