REMARK  8 active torsions:
REMARK  status: ('A' for Active; 'I' for Inactive)
REMARK    1  A    between atoms: C_26  and  O_1 
REMARK    2  A    between atoms: C_27  and  O_2 
REMARK    3  A    between atoms: C_4  and  C_9 
REMARK    4  A    between atoms: C_9  and  C_14 
REMARK    5  A    between atoms: C_14  and  C_17 
REMARK    6  A    between atoms: C_16  and  C_19 
REMARK    7  A    between atoms: C_17  and  C_18 
REMARK    8  A    between atoms: C_18  and  C_20 
ROOT
HETATM    1  C   UNK N   1       3.974   1.915   0.033  0.00  0.00    -0.033 C 
HETATM    2  C   UNK N   1       5.476   2.069   0.321  0.00  0.00    -0.002 C 
HETATM    3  C   UNK N   1       3.857   0.405   0.215  0.00  0.00     0.023 C 
HETATM    4  C   UNK N   1       6.097   0.948  -0.532  0.00  0.00     0.006 C 
HETATM    5  C   UNK N   1       4.991  -0.124  -0.663  0.00  0.00     0.010 C 
HETATM    6  C   UNK N   1       2.999   2.613   0.988  0.00  0.00     0.010 C 
HETATM    7  C   UNK N   1       2.443  -0.091  -0.005  0.00  0.00    -0.075 C 
HETATM    8  C   UNK N   1       3.636   2.344  -1.412  0.00  0.00     0.016 C 
HETATM    9  C   UNK N   1       1.541   2.085   0.835  0.00  0.00     0.005 C 
HETATM   10  C   UNK N   1       1.361   0.938  -0.191  0.00  0.00     0.034 C 
HETATM   11  C   UNK N   1       2.121  -1.388   0.100  0.00  0.00     0.004 C 
ENDROOT
BRANCH  11  12
HETATM   12  C   UNK N   1       3.151  -2.402   0.396  0.00  0.00     0.008 C 
HETATM   13  C   UNK N   1       2.956  -3.723   0.338  0.00  0.00    -0.048 C 
HETATM   14  C   UNK N   1       1.621  -4.280  -0.087  0.00  0.00     0.071 C 
HETATM   15  C   UNK N   1       4.083  -4.661   0.628  0.00  0.00    -0.033 C 
HETATM   16  C   UNK N   1       1.810  -5.585  -0.843  0.00  0.00     0.125 C 
HETATM   17  C   UNK N   1       2.493  -6.580   0.083  0.00  0.00     0.068 C 
HETATM   18  C   UNK N   1       3.922  -6.150   0.432  0.00  0.00     0.153 C 
HETATM   19  C   UNK N   1       5.295  -4.187   0.951  0.00  0.00     0.022 C 
BRANCH  16  20
HETATM   20  O   UNK N   1       0.564  -6.083  -1.220  0.00  0.00    -0.395 OA
HETATM   21  H   UNK N   1      -0.170  -5.505  -1.482  0.00  0.00     0.210 HD
ENDBRANCH  16  20
BRANCH  18  22
HETATM   22  O   UNK N   1       4.329  -6.840   1.574  0.00  0.00    -0.391 OA
HETATM   23  H   UNK N   1       4.055  -7.324   2.369  0.00  0.00     0.210 HD
ENDBRANCH  18  22
ENDBRANCH  11  12
BRANCH   2  24
HETATM   24  C   UNK N   1       6.091   3.471   0.152  0.00  0.00    -0.014 C 
HETATM   25  C   UNK N   1       5.987   4.072  -1.247  0.00  0.00     0.010 C 
BRANCH  24  26
HETATM   26  C   UNK N   1       7.516   3.559   0.707  0.00  0.00     0.005 C 
BRANCH  26  27
HETATM   27  C   UNK N   1       8.588   3.160  -0.300  0.00  0.00     0.001 C 
BRANCH  27  28
HETATM   28  C   UNK N   1       9.749   4.152  -0.280  0.00  0.00     0.004 C 
BRANCH  28  29
HETATM   29  C   UNK N   1       9.326   5.552  -0.720  0.00  0.00    -0.023 C 
HETATM   30  C   UNK N   1       8.695   6.312   0.434  0.00  0.00     0.009 C 
HETATM   31  C   UNK N   1      10.539   6.323  -1.191  0.00  0.00     0.009 C 
ENDBRANCH  28  29
ENDBRANCH  27  28
ENDBRANCH  26  27
ENDBRANCH  24  26
ENDBRANCH   2  24
TORSDOF 8
