REMARK  2 active torsions:
REMARK  status: ('A' for Active; 'I' for Inactive)
REMARK    1  A    between atoms: C_4  and  C_6 
REMARK    2  A    between atoms: C_4  and  C_7 
ROOT
HETATM    1  O   UNK N   1       1.744  -0.169   1.419  0.00  0.00    -0.272 OA
HETATM    2  O   UNK N   1       3.811  -3.930   0.243  0.00  0.00    -0.273 OA
HETATM    3  N   UNK N   1       2.753  -2.059   0.829  0.00  0.00    -0.297 N 
HETATM    4  C   UNK N   1       3.092   0.042  -0.541  0.00  0.00     0.068 C 
HETATM    5  C   UNK N   1       3.858  -0.899  -1.493  0.00  0.00     0.033 C 
HETATM    6  C   UNK N   1       4.643  -1.970  -0.759  0.00  0.00     0.105 C 
HETATM    7  C   UNK N   1       2.490  -0.738   0.639  0.00  0.00     0.237 C 
HETATM    8  C   UNK N   1       3.698  -2.723   0.122  0.00  0.00     0.224 C 
HETATM    9  H   UNK N   1       2.237  -2.551   1.507  0.00  0.00     0.171 HD
ENDROOT
BRANCH   4  10
HETATM   10  C   UNK N   1       1.955   0.594  -1.431  0.00  0.00     0.020 C 
HETATM   11  C   UNK N   1       0.960   1.517  -0.739  0.00  0.00     0.006 C 
ENDBRANCH   4  10
BRANCH   4  12
HETATM   12  C   UNK N   1       4.031   1.135  -0.025  0.00  0.00    -0.040 A 
HETATM   13  C   UNK N   1       3.764   2.499  -0.250  0.00  0.00     0.008 A 
HETATM   14  C   UNK N   1       4.629   3.487   0.228  0.00  0.00     0.001 A 
HETATM   15  C   UNK N   1       5.783   3.126   0.926  0.00  0.00     0.000 A 
HETATM   16  C   UNK N   1       6.067   1.778   1.153  0.00  0.00     0.001 A 
HETATM   17  C   UNK N   1       5.194   0.789   0.687  0.00  0.00     0.008 A 
ENDBRANCH   4  12
TORSDOF 2
