REMARK  4 active torsions:
REMARK  status: ('A' for Active; 'I' for Inactive)
REMARK    1  A    between atoms: N_3  and  C_9 
REMARK    2  A    between atoms: N_5  and  C_14 
REMARK    3  A    between atoms: N_7  and  C_10 
REMARK    4  A    between atoms: N_8  and  C_13 
ROOT
HETATM    1  N   UNK N   1       5.946  -2.962  -0.005  0.00  0.00    -0.328 N 
ATOM      2  HN  UNK N   1       5.905  -3.981  -0.006  1.00  0.00     0.169 HD
HETATM    3  C   UNK N   1       4.825  -0.848   0.000  0.00  0.00     0.091 A 
HETATM    4  C   UNK N   1       4.785  -2.251  -0.002  0.00  0.00     0.129 A 
HETATM    5  C   UNK N   1       6.071  -0.207  -0.005  0.00  0.00     0.038 A 
HETATM    6  C   UNK N   1       7.243  -0.956  -0.010  0.00  0.00     0.050 A 
HETATM    7  C   UNK N   1       7.161  -2.347  -0.008  0.00  0.00     0.100 A 
ENDROOT
BRANCH   3   8
HETATM    8  N   UNK N   1       3.629  -0.087   0.009  0.00  0.00    -0.297 N 
HETATM    9  N   UNK N   1       3.682   1.158   0.033  0.00  0.00    -0.300 N 
ATOM     10  HN  UNK N   1       4.594   1.613   0.059  1.00  0.00     0.187 HD
ATOM     11  HN  UNK N   1       2.725  -0.559  -0.005  1.00  0.00     0.187 HD
BRANCH   9  12
HETATM   12  C   UNK N   1       2.519   1.960   0.024  0.00  0.00     0.048 A 
HETATM   13  C   UNK N   1       1.236   1.392  -0.006  0.00  0.00     0.031 A 
HETATM   14  C   UNK N   1       0.107   2.216  -0.031  0.00  0.00     0.002 A 
HETATM   15  C   UNK N   1       0.256   3.607  -0.027  0.00  0.00     0.000 A 
HETATM   16  C   UNK N   1       1.533   4.174   0.004  0.00  0.00     0.002 A 
HETATM   17  C   UNK N   1       2.661   3.351   0.030  0.00  0.00     0.031 A 
ENDBRANCH   9  12
ENDBRANCH   3   8
BRANCH   4  18
HETATM   18  N   UNK N   1       3.549  -2.932   0.002  0.00  0.00    -0.384 N 
HETATM   19  H   UNK N   1       2.707  -2.423   0.005  0.00  0.00     0.157 HD
HETATM   20  H   UNK N   1       3.530  -3.916   0.002  0.00  0.00     0.157 HD
ENDBRANCH   4  18
BRANCH   7  21
HETATM   21  N   UNK N   1       8.340  -3.116  -0.006  0.00  0.00    -0.385 N 
HETATM   22  H   UNK N   1       8.287  -4.099  -0.004  0.00  0.00     0.157 HD
HETATM   23  H   UNK N   1       9.218  -2.670  -0.006  0.00  0.00     0.157 HD
ENDBRANCH   7  21
TORSDOF 4
