REMARK  3 active torsions:
REMARK  status: ('A' for Active; 'I' for Inactive)
REMARK    1  A    between atoms: O_2  and  C_12 
REMARK    2  A    between atoms: O_2  and  C_24 
REMARK       I    between atoms: N_8  and  C_24 
REMARK    3  A    between atoms: C_11  and  C_14 
ROOT
HETATM    1 Cl   UNK N   1       1.919  -5.403   0.624  0.00  0.00    -0.084 Cl
HETATM    2  O   UNK N   1       1.939   2.645  -0.678  0.00  0.00    -0.268 OA
HETATM    3  N   UNK N   1       1.386   0.514  -0.306  0.00  0.00    -0.318 N 
HETATM    4  N   UNK N   1       4.473   0.404  -0.134  0.00  0.00    -0.354 N 
ATOM      5  HN  UNK N   1       5.366   0.723  -0.509  1.00  0.00     0.162 HD
HETATM    6  C   UNK N   1       1.640  -0.867   0.041  0.00  0.00     0.049 A 
HETATM    7  C   UNK N   1       2.936  -1.511   0.079  0.00  0.00     0.020 A 
HETATM    8  C   UNK N   1       4.284  -0.863  -0.190  0.00  0.00     0.053 C 
HETATM    9  C   UNK N   1       3.627   1.437   0.373  0.00  0.00     0.327 C 
HETATM   10  C   UNK N   1       2.282   1.542  -0.265  0.00  0.00     0.273 C 
HETATM   11  C   UNK N   1       0.495  -1.681   0.227  0.00  0.00     0.032 A 
HETATM   12  C   UNK N   1       2.951  -2.906   0.278  0.00  0.00     0.040 A 
HETATM   13  C   UNK N   1       0.040   0.848  -0.748  0.00  0.00     0.159 C 
HETATM   14  C   UNK N   1       0.570  -3.050   0.430  0.00  0.00     0.026 A 
HETATM   15  C   UNK N   1       1.803  -3.666   0.447  0.00  0.00     0.035 A 
ENDROOT
BRANCH   8  16
HETATM   16  C   UNK N   1       5.552  -1.662  -0.413  0.00  0.00    -0.009 A 
HETATM   17  C   UNK N   1       6.768  -0.962  -0.568  0.00  0.00     0.014 A 
HETATM   18  C   UNK N   1       7.984  -1.638  -0.682  0.00  0.00     0.001 A 
HETATM   19  C   UNK N   1       8.013  -3.031  -0.635  0.00  0.00     0.000 A 
HETATM   20  C   UNK N   1       6.823  -3.745  -0.487  0.00  0.00     0.001 A 
HETATM   21  C   UNK N   1       5.606  -3.066  -0.377  0.00  0.00     0.014 A 
ENDBRANCH   8  16
BRANCH   9  22
HETATM   22  O   UNK N   1       4.296   2.642   0.200  0.00  0.00    -0.269 OA
BRANCH  22  23
HETATM   23  C   UNK N   1       5.587   2.876   0.573  0.00  0.00     0.364 C 
HETATM   24  O   UNK N   1       6.181   2.067   1.276  0.00  0.00    -0.238 OA
HETATM   25  N   UNK N   1       6.226   3.990   0.125  0.00  0.00    -0.337 N 
HETATM   26  C   UNK N   1       7.609   4.231   0.454  0.00  0.00     0.154 C 
HETATM   27  C   UNK N   1       5.545   4.930  -0.727  0.00  0.00     0.154 C 
ENDBRANCH  22  23
ENDBRANCH   9  22
TORSDOF 3
