REMARK  1 active torsions:
REMARK  status: ('A' for Active; 'I' for Inactive)
REMARK    1  A    between atoms: C_7  and  C_12 
ROOT
HETATM    1 Cl   UNK N   1      -0.527  -0.346   1.466  0.00  0.00    -0.084 Cl
HETATM    2  O   UNK N   1       5.195  -0.356   1.619  0.00  0.00    -0.343 OA
HETATM    3  O   UNK N   1       6.251   3.408  -0.749  0.00  0.00    -0.271 OA
HETATM    4  N   UNK N   1       5.584   0.178  -0.627  0.00  0.00     0.144 N 
HETATM    5  N   UNK N   1       4.378   2.867   0.312  0.00  0.00    -0.325 N 
HETATM    6  C   UNK N   1       4.579  -0.285   0.350  0.00  0.00     0.322 C 
HETATM    7  C   UNK N   1       6.842   0.283   0.080  0.00  0.00     0.304 C 
HETATM    8  C   UNK N   1       3.307   0.594   0.534  0.00  0.00     0.041 A 
HETATM    9  C   UNK N   1       6.583  -0.326   1.420  0.00  0.00     0.202 C 
HETATM   10  C   UNK N   1       5.306   1.371  -1.420  0.00  0.00     0.380 C 
HETATM   11  C   UNK N   1       3.266   2.028   0.570  0.00  0.00     0.046 A 
HETATM   12  C   UNK N   1       5.350   2.605  -0.584  0.00  0.00     0.250 C 
HETATM   13  C   UNK N   1       2.107  -0.092   0.835  0.00  0.00     0.038 A 
HETATM   14  C   UNK N   1       2.058   2.674   0.869  0.00  0.00     0.032 A 
HETATM   15  C   UNK N   1       0.920   0.572   1.114  0.00  0.00     0.034 A 
HETATM   16  C   UNK N   1       0.893   1.958   1.131  0.00  0.00     0.026 A 
HETATM   17  H   UNK N   1       4.446   3.704   0.826  0.00  0.00     0.169 HD
ENDROOT
BRANCH   6  18
HETATM   18  C   UNK N   1       4.130  -1.670  -0.166  0.00  0.00     0.034 A 
HETATM   19  C   UNK N   1       4.286  -2.911   0.522  0.00  0.00     0.045 A 
HETATM   20 Cl   UNK N   1       5.070  -3.086   2.085  0.00  0.00    -0.084 Cl
HETATM   21  C   UNK N   1       3.782  -4.085  -0.051  0.00  0.00     0.024 A 
HETATM   22  C   UNK N   1       3.129  -4.063  -1.282  0.00  0.00     0.002 A 
HETATM   23  C   UNK N   1       2.981  -2.862  -1.968  0.00  0.00     0.001 A 
HETATM   24  C   UNK N   1       3.478  -1.684  -1.417  0.00  0.00     0.014 A 
ENDBRANCH   6  18
TORSDOF 1
