REMARK  2 active torsions:
REMARK  status: ('A' for Active; 'I' for Inactive)
REMARK    1  A    between atoms: C_9  and  C_15 
REMARK    2  A    between atoms: C_10  and  C_12 
ROOT
HETATM    1  S   UNK N   1       5.207  -3.094  -0.073  0.00  0.00    -0.076 SA
HETATM    2  O   UNK N   1       0.279  -3.063  -0.432  0.00  0.00    -0.271 OA
HETATM    3  N   UNK N   1       2.517  -2.957  -0.455  0.00  0.00    -0.314 N 
HETATM    4  N   UNK N   1       1.688  -0.166   0.542  0.00  0.00    -0.380 N 
ATOM      5  HN  UNK N   1       1.002   0.579   0.418  1.00  0.00     0.160 HD
HETATM    6  C   UNK N   1       3.970  -0.962   0.296  0.00  0.00     0.026 A 
HETATM    7  C   UNK N   1       3.735  -2.327  -0.058  0.00  0.00     0.091 A 
HETATM    8  C   UNK N   1       2.925   0.140   0.296  0.00  0.00     0.053 C 
HETATM    9  C   UNK N   1       6.168  -1.839   0.397  0.00  0.00    -0.015 A 
HETATM   10  C   UNK N   1       5.344  -0.728   0.571  0.00  0.00     0.031 A 
HETATM   11  C   UNK N   1       1.182  -1.440   0.969  0.00  0.00     0.223 C 
HETATM   12  C   UNK N   1       1.299  -2.510  -0.053  0.00  0.00     0.242 C 
HETATM   13  C   UNK N   1       2.587  -4.163  -1.255  0.00  0.00     0.160 C 
ENDROOT
BRANCH   8  14
HETATM   14  C   UNK N   1       3.172   1.646   0.073  0.00  0.00     0.013 A 
HETATM   15  C   UNK N   1       4.384   2.369  -0.249  0.00  0.00     0.046 A 
HETATM   16 Cl   UNK N   1       5.985   1.725  -0.533  0.00  0.00    -0.083 Cl
HETATM   17  C   UNK N   1       4.342   3.763  -0.399  0.00  0.00     0.025 A 
HETATM   18  C   UNK N   1       3.163   4.482  -0.261  0.00  0.00     0.002 A 
HETATM   19  C   UNK N   1       1.987   3.814   0.026  0.00  0.00     0.001 A 
HETATM   20  C   UNK N   1       1.999   2.433   0.191  0.00  0.00     0.015 A 
ENDBRANCH   8  14
BRANCH   9  21
HETATM   21  C   UNK N   1       7.658  -1.829   0.551  0.00  0.00     0.042 C 
HETATM   22  C   UNK N   1       8.298  -3.153   0.170  0.00  0.00     0.010 C 
ENDBRANCH   9  21
TORSDOF 2
