REMARK  3 active torsions:
REMARK  status: ('A' for Active; 'I' for Inactive)
REMARK    1  A    between atoms: O_4  and  C_6 
REMARK    2  A    between atoms: O_5  and  C_6 
REMARK    3  A    between atoms: C_6  and  C_7 
ROOT
HETATM    1  C   UNK N   1       3.574   0.016  -0.000  0.00  0.00     0.163 C 
ENDROOT
BRANCH   1   2
HETATM    2  O   UNK N   1       4.708  -0.718  -0.000  0.00  0.00    -0.775 OA
HETATM    3  H   UNK N   1       4.661  -1.653   0.000  0.00  0.00     0.167 HD
ENDBRANCH   1   2
BRANCH   1   4
HETATM    4  O   UNK N   1       3.702   1.362   0.000  0.00  0.00    -0.775 OA
HETATM    5  H   UNK N   1       4.554   1.751   0.000  0.00  0.00     0.167 HD
ENDBRANCH   1   4
BRANCH   1   6
HETATM    6  C   UNK N   1       2.186  -0.666   0.001  0.00  0.00     0.270 A 
HETATM    7 Cl   UNK N   1       0.537  -1.325  -0.000  0.00  0.00    -0.072 Cl
HETATM    8 Cl   UNK N   1       1.103   0.761   0.000  0.00  0.00    -0.072 Cl
HETATM    9 Cl   UNK N   1       2.584  -2.418   0.000  0.00  0.00    -0.072 Cl
ENDBRANCH   1   6
TORSDOF 3
