REMARK  3 active torsions:
REMARK  status: ('A' for Active; 'I' for Inactive)
REMARK    1  A    between atoms: C_2  and  N_1 
REMARK    2  A    between atoms: C_2  and  C_3 
REMARK    3  A    between atoms: C_3  and  C_4 
ROOT
HETATM    1  C   UNK N   1       2.188  -0.475   0.275  0.00  0.00    -0.056 A 
HETATM    2  C   UNK N   1       3.250  -1.387   0.277  0.00  0.00     0.007 A 
HETATM    3  C   UNK N   1       0.904  -0.907  -0.072  0.00  0.00     0.007 A 
HETATM    4  C   UNK N   1       3.033  -2.722  -0.083  0.00  0.00     0.001 A 
HETATM    5  C   UNK N   1       0.685  -2.245  -0.425  0.00  0.00     0.001 A 
HETATM    6  C   UNK N   1       1.750  -3.150  -0.431  0.00  0.00     0.000 A 
ENDROOT
BRANCH   1   7
HETATM    7  C   UNK N   1       2.394   0.951   0.703  0.00  0.00     0.062 C 
BRANCH   7   8
HETATM    8  C   UNK N   1       3.449   1.702  -0.107  0.00  0.00     0.076 C 
HETATM    9  C   UNK N   1       4.838   1.222   0.297  0.00  0.00     0.032 C 
BRANCH   8  10
HETATM   10  N   UNK N   1       3.325   3.126   0.179  0.00  0.00    -0.421 N 
HETATM   11  C   UNK N   1       4.107   3.868  -0.799  0.00  0.00     0.140 C 
HETATM   12  H   UNK N   1       2.780   3.535   0.939  0.00  0.00     0.153 HD
ENDBRANCH   8  10
ENDBRANCH   7   8
ENDBRANCH   1   7
TORSDOF 3
