REMARK  4 active torsions:
REMARK  status: ('A' for Active; 'I' for Inactive)
REMARK    1  A    between atoms: O_3  and  C_14 
REMARK    2  A    between atoms: N_5  and  C_11 
REMARK    3  A    between atoms: C_11  and  C_18 
REMARK    4  A    between atoms: C_12  and  C_17 
ROOT
HETATM    1  N   UNK N   1       0.458   4.528  -0.257  0.00  0.00    -0.197 NA
HETATM    2  C   UNK N   1       1.317   2.072  -0.256  0.00  0.00     0.144 C 
HETATM    3  C   UNK N   1       0.853   3.444  -0.244  0.00  0.00     0.060 C 
ENDROOT
BRANCH   2   4
HETATM    4  C   UNK N   1       2.497   1.993   0.673  0.00  0.00     0.146 C 
BRANCH   4   5
HETATM    5  N   UNK N   1       3.733   1.683  -0.029  0.00  0.00    -0.312 N 
HETATM    6  C   UNK N   1       3.932   0.316  -0.392  0.00  0.00     0.050 C 
HETATM    7  C   UNK N   1       5.169  -0.398  -0.185  0.00  0.00     0.020 C 
HETATM    8  C   UNK N   1       2.758  -0.413  -0.679  0.00  0.00     0.032 C 
HETATM    9  C   UNK N   1       6.565   0.191   0.060  0.00  0.00     0.056 C 
HETATM   10  C   UNK N   1       5.030  -1.773  -0.047  0.00  0.00     0.040 C 
HETATM   11  N   UNK N   1       6.803   1.444  -0.163  0.00  0.00    -0.355 N 
HETATM   12  C   UNK N   1       5.966   2.426  -0.789  0.00  0.00     0.312 C 
ATOM     13  HN  UNK N   1       7.714   1.779   0.150  1.00  0.00     0.162 HD
HETATM   14  C   UNK N   1       4.670   2.657  -0.110  0.00  0.00     0.273 C 
HETATM   15  O   UNK N   1       4.413   3.779   0.309  0.00  0.00    -0.268 OA
HETATM   16  C   UNK N   1       3.833  -2.456  -0.202  0.00  0.00     0.035 C 
HETATM   17 Cl   UNK N   1       3.713  -4.135   0.249  0.00  0.00    -0.084 Cl
HETATM   18  C   UNK N   1       2.707  -1.783  -0.605  0.00  0.00     0.026 C 
BRANCH   9  19
HETATM   19  C   UNK N   1       7.854  -0.629   0.329  0.00  0.00     0.030 A 
HETATM   20  C   UNK N   1       8.046  -2.062   0.342  0.00  0.00     0.128 A 
HETATM   21  F   UNK N   1       7.083  -2.984   0.199  0.00  0.00    -0.205 F 
HETATM   22  C   UNK N   1       9.328  -2.602   0.467  0.00  0.00     0.043 A 
HETATM   23  C   UNK N   1      10.446  -1.795   0.595  0.00  0.00     0.003 A 
HETATM   24  C   UNK N   1      10.297  -0.418   0.612  0.00  0.00     0.001 A 
HETATM   25  C   UNK N   1       9.030   0.148   0.475  0.00  0.00     0.017 A 
ENDBRANCH   9  19
BRANCH  12  26
HETATM   26  O   UNK N   1       6.690   3.618  -0.880  0.00  0.00    -0.368 OA
HETATM   27  H   UNK N   1       7.658   3.596  -0.944  0.00  0.00     0.212 HD
ENDBRANCH  12  26
ENDBRANCH   4   5
ENDBRANCH   2   4
TORSDOF 4
