REMARK  9 active torsions:
REMARK  status: ('A' for Active; 'I' for Inactive)
REMARK    1  A    between atoms: S_1  and  C_16 
REMARK    2  A    between atoms: S_1  and  C_19 
REMARK    3  A    between atoms: C_14  and  O_2 
REMARK    4  A    between atoms: O_4  and  C_18 
REMARK    5  A    between atoms: N_7  and  C_20 
REMARK    6  A    between atoms: N_9  and  C_21 
REMARK    7  A    between atoms: C_11  and  C_14 
REMARK    8  A    between atoms: C_15  and  C_18 
REMARK    9  A    between atoms: C_19  and  C_20 
ROOT
HETATM    1  O   UNK N   1       2.175  -1.986   0.641  0.00  0.00    -0.279 OA
HETATM    2  N   UNK N   1       3.617  -0.811  -0.620  0.00  0.00    -0.207 NA
HETATM    3  C   UNK N   1       3.432   0.589  -0.611  0.00  0.00     0.091 A 
HETATM    4  C   UNK N   1       1.917   0.334  -0.088  0.00  0.00     0.120 A 
HETATM    5  C   UNK N   1       4.551   1.049   0.381  0.00  0.00     0.069 C 
HETATM    6  C   UNK N   1       2.428  -1.078  -0.136  0.00  0.00     0.213 A 
HETATM    7  C   UNK N   1       4.799  -1.244  -0.021  0.00  0.00     0.105 C 
HETATM    8  C   UNK N   1       5.389  -0.211   0.563  0.00  0.00     0.008 C 
ENDROOT
BRANCH   8   9
HETATM    9  S   UNK N   1       6.924  -0.273   1.500  0.00  0.00    -0.131 SA
BRANCH   9  10
HETATM   10  C   UNK N   1       7.693   1.088   0.577  0.00  0.00     0.099 C 
BRANCH  10  11
HETATM   11  C   UNK N   1       8.584   0.539  -0.524  0.00  0.00     0.130 C 
BRANCH  11  12
HETATM   12  N   UNK N   1       9.652   1.465  -0.804  0.00  0.00    -0.386 N 
HETATM   13  C   UNK N   1      10.599   1.636   0.044  0.00  0.00     0.168 C 
ATOM     14  HN  UNK N   1       9.654   1.986  -1.680  1.00  0.00     0.160 HD
BRANCH  13  15
HETATM   15  N   UNK N   1      11.640   2.548  -0.230  0.00  0.00    -0.396 N 
HETATM   16  H   UNK N   1      12.554   2.238  -0.421  0.00  0.00     0.156 HD
HETATM   17  H   UNK N   1      11.447   3.514  -0.230  0.00  0.00     0.156 HD
ENDBRANCH  13  15
ENDBRANCH  11  12
ENDBRANCH  10  11
ENDBRANCH   9  10
ENDBRANCH   8   9
BRANCH   7  18
HETATM   18  C   UNK N   1       5.258  -2.654  -0.077  0.00  0.00     0.189 C 
HETATM   19  O   UNK N   1       4.589  -3.483  -0.672  0.00  0.00    -0.645 OA
BRANCH  18  20
HETATM   20  O   UNK N   1       6.424  -3.028   0.485  0.00  0.00    -0.772 OA
HETATM   21  H   UNK N   1       6.603  -3.861   0.875  0.00  0.00     0.167 HD
ENDBRANCH  18  20
ENDBRANCH   7  18
BRANCH   4  22
HETATM   22  C   UNK N   1       1.159   1.668  -0.114  0.00  0.00     0.128 C 
HETATM   23  C   UNK N   1      -0.236   1.522   0.471  0.00  0.00     0.040 C 
BRANCH  22  24
HETATM   24  O   UNK N   1       1.847   2.666   0.576  0.00  0.00    -0.395 OA
HETATM   25  H   UNK N   1       2.687   2.599   1.056  0.00  0.00     0.210 HD
ENDBRANCH  22  24
ENDBRANCH   4  22
TORSDOF 9
