REMARK  16 active torsions:
REMARK  status: ('A' for Active; 'I' for Inactive)
REMARK    1  A    between atoms: C_13  and  O_1 
REMARK    2  A    between atoms: O_5  and  C_32 
REMARK    3  A    between atoms: O_5  and  C_39 
REMARK    4  A    between atoms: N_6  and  C_11 
REMARK    5  A    between atoms: C_10  and  N_7 
REMARK       I    between atoms: N_7  and  C_17 
REMARK    6  A    between atoms: C_15  and  N_8 
REMARK       I    between atoms: N_8  and  C_27 
REMARK    7  A    between atoms: C_10  and  C_12 
REMARK    8  A    between atoms: C_10  and  C_16 
REMARK    9  A    between atoms: C_11  and  C_14 
REMARK   10  A    between atoms: C_11  and  C_17 
REMARK   11  A    between atoms: C_12  and  C_13 
REMARK   12  A    between atoms: C_13  and  C_15 
REMARK   13  A    between atoms: C_15  and  C_20 
REMARK   14  A    between atoms: C_16  and  C_25 
REMARK   15  A    between atoms: C_20  and  C_26 
REMARK   16  A    between atoms: C_27  and  C_32 
ROOT
HETATM    1  C   UNK N   1       7.238   0.500  -1.582  0.00  0.00     0.059 C 
ENDROOT
BRANCH   1   2
HETATM    2  C   UNK N   1       8.507   1.322  -1.383  0.00  0.00     0.091 C 
BRANCH   2   3
HETATM    3  N   UNK N   1       8.482   2.046  -0.117  0.00  0.00    -0.354 N 
HETATM    4  C   UNK N   1       7.445   2.815   0.354  0.00  0.00     0.241 C 
HETATM    5  O   UNK N   1       7.540   3.297   1.471  0.00  0.00    -0.271 OA
HETATM    6  H   UNK N   1       9.282   1.977   0.453  0.00  0.00     0.162 HD
BRANCH   4   7
HETATM    7  C   UNK N   1       6.152   3.059  -0.431  0.00  0.00     0.184 C 
BRANCH   7   8
HETATM    8  N   UNK N   1       5.747   4.474  -0.336  0.00  0.00    -0.320 N 
HETATM    9  C   UNK N   1       6.716   5.446  -0.806  0.00  0.00     0.130 C 
HETATM   10  C   UNK N   1       6.732   6.657   0.104  0.00  0.00     0.040 C 
HETATM   11  C   UNK N   1       5.340   7.270   0.061  0.00  0.00     0.126 C 
HETATM   12  N   UNK N   1       4.322   6.270   0.307  0.00  0.00    -0.343 N 
HETATM   13  C   UNK N   1       4.537   4.935   0.153  0.00  0.00     0.319 C 
HETATM   14  H   UNK N   1       3.431   6.570   0.599  0.00  0.00     0.164 HD
HETATM   15  O   UNK N   1       3.649   4.172   0.485  0.00  0.00    -0.247 OA
ENDBRANCH   7   8
BRANCH   7  16
HETATM   16  C   UNK N   1       5.089   1.966  -0.158  0.00  0.00     0.010 C 
HETATM   17  C   UNK N   1       4.654   1.773   1.289  0.00  0.00     0.012 C 
HETATM   18  C   UNK N   1       3.938   1.937  -1.151  0.00  0.00     0.012 C 
ENDBRANCH   7  16
ENDBRANCH   4   7
ENDBRANCH   2   3
BRANCH   2  19
HETATM   19  C   UNK N   1       9.613   0.256  -1.504  0.00  0.00     0.063 C 
BRANCH  19  20
HETATM   20  C   UNK N   1      10.842   0.167  -0.653  0.00  0.00    -0.056 A 
HETATM   21  C   UNK N   1      11.368   1.251   0.058  0.00  0.00     0.007 A 
HETATM   22  C   UNK N   1      12.546   1.091   0.801  0.00  0.00     0.001 A 
HETATM   23  C   UNK N   1      13.198  -0.148   0.833  0.00  0.00     0.000 A 
HETATM   24  C   UNK N   1      12.674  -1.230   0.123  0.00  0.00     0.001 A 
HETATM   25  C   UNK N   1      11.504  -1.068  -0.620  0.00  0.00     0.007 A 
ENDBRANCH  19  20
ENDBRANCH   2  19
ENDBRANCH   1   2
BRANCH   1  26
HETATM   26  C   UNK N   1       6.834  -0.371  -0.379  0.00  0.00     0.143 C 
BRANCH  26  27
HETATM   27  O   UNK N   1       7.449  -0.065   0.842  0.00  0.00    -0.393 OA
HETATM   28  H   UNK N   1       7.846  -0.328   1.687  0.00  0.00     0.210 HD
ENDBRANCH  26  27
BRANCH  26  29
HETATM   29  C   UNK N   1       6.707  -1.861  -0.613  0.00  0.00     0.117 C 
BRANCH  29  30
HETATM   30  N   UNK N   1       5.450  -2.312  -0.045  0.00  0.00    -0.352 N 
HETATM   31  C   UNK N   1       5.093  -2.177   1.260  0.00  0.00     0.242 C 
HETATM   32  O   UNK N   1       5.863  -1.707   2.083  0.00  0.00    -0.271 OA
HETATM   33  H   UNK N   1       4.807  -2.748  -0.650  0.00  0.00     0.163 HD
BRANCH  31  34
HETATM   34  C   UNK N   1       3.739  -2.597   1.698  0.00  0.00     0.278 C 
BRANCH  34  35
HETATM   35  O   UNK N   1       2.768  -1.879   1.035  0.00  0.00    -0.341 OA
BRANCH  35  36
HETATM   36  C   UNK N   1       1.752  -2.433   0.314  0.00  0.00     0.081 A 
HETATM   37  C   UNK N   1       1.799  -3.757  -0.212  0.00  0.00    -0.028 A 
HETATM   38  C   UNK N   1       0.698  -4.267  -0.904  0.00  0.00     0.009 A 
HETATM   39  C   UNK N   1       2.994  -4.641  -0.085  0.00  0.00     0.051 C 
HETATM   40  C   UNK N   1      -0.447  -3.495  -1.087  0.00  0.00     0.001 A 
HETATM   41  C   UNK N   1      -0.494  -2.192  -0.598  0.00  0.00     0.009 A 
HETATM   42  C   UNK N   1       0.596  -1.657   0.092  0.00  0.00    -0.028 A 
HETATM   43  C   UNK N   1       0.505  -0.261   0.608  0.00  0.00     0.051 C 
ENDBRANCH  35  36
ENDBRANCH  34  35
ENDBRANCH  31  34
ENDBRANCH  29  30
BRANCH  29  44
HETATM   44  C   UNK N   1       7.924  -2.609  -0.047  0.00  0.00     0.066 C 
BRANCH  44  45
HETATM   45  C   UNK N   1       7.943  -4.089  -0.271  0.00  0.00    -0.056 A 
HETATM   46  C   UNK N   1       9.003  -4.832   0.259  0.00  0.00     0.007 A 
HETATM   47  C   UNK N   1       9.048  -6.218   0.083  0.00  0.00     0.001 A 
HETATM   48  C   UNK N   1       8.032  -6.866  -0.625  0.00  0.00     0.000 A 
HETATM   49  C   UNK N   1       6.972  -6.129  -1.160  0.00  0.00     0.001 A 
HETATM   50  C   UNK N   1       6.927  -4.744  -0.984  0.00  0.00     0.007 A 
ENDBRANCH  44  45
ENDBRANCH  29  44
ENDBRANCH  26  29
ENDBRANCH   1  26
TORSDOF 16
