REMARK  7 active torsions:
REMARK  status: ('A' for Active; 'I' for Inactive)
REMARK    1  A    between atoms: O_4  and  C_18 
REMARK    2  A    between atoms: O_7  and  C_22 
REMARK    3  A    between atoms: C_14  and  N_10 
REMARK       I    between atoms: N_10  and  C_19 
REMARK    4  A    between atoms: C_13  and  C_18 
REMARK    5  A    between atoms: C_20  and  C_19 
REMARK    6  A    between atoms: C_20  and  C_21 
REMARK    7  A    between atoms: C_20  and  C_22 
ROOT
HETATM    1  S   UNK N   1       8.435   0.866  -0.945  0.00  0.00    -0.135 SA
HETATM    2  O   UNK N   1       5.511  -2.002   0.335  0.00  0.00    -0.277 OA
HETATM    3  N   UNK N   1       7.389  -0.819   0.726  0.00  0.00    -0.219 NA
HETATM    4  C   UNK N   1       7.342   0.588   0.506  0.00  0.00     0.160 A 
HETATM    5  C   UNK N   1       9.399  -0.627  -0.457  0.00  0.00     0.029 C 
HETATM    6  C   UNK N   1       8.316  -1.612  -0.025  0.00  0.00     0.182 C 
HETATM    7  C   UNK N   1       5.731   0.435   0.372  0.00  0.00     0.199 A 
HETATM    8  C   UNK N   1       6.099  -0.973   0.648  0.00  0.00     0.227 A 
HETATM    9  C   UNK N   1      10.196  -1.171  -1.625  0.00  0.00     0.029 C 
HETATM   10  C   UNK N   1      10.345  -0.264   0.684  0.00  0.00     0.029 C 
ENDROOT
BRANCH   7  11
HETATM   11  N   UNK N   1       5.239   0.472  -0.986  0.00  0.00    -0.345 N 
HETATM   12  C   UNK N   1       3.986   0.911  -1.266  0.00  0.00     0.237 C 
HETATM   13  O   UNK N   1       3.560   0.830  -2.407  0.00  0.00    -0.272 OA
HETATM   14  H   UNK N   1       5.823   0.174  -1.721  0.00  0.00     0.163 HD
BRANCH  12  15
HETATM   15  C   UNK N   1       3.131   1.544  -0.195  0.00  0.00     0.209 C 
BRANCH  15  16
HETATM   16  C   UNK N   1       1.692   1.148  -0.072  0.00  0.00    -0.028 A 
HETATM   17  C   UNK N   1       0.646   1.842  -0.743  0.00  0.00     0.016 A 
HETATM   18  C   UNK N   1      -0.627   1.341  -0.459  0.00  0.00     0.050 A 
HETATM   19  S   UNK N   1      -0.389   0.085   0.599  0.00  0.00    -0.113 SA
HETATM   20  C   UNK N   1       1.262   0.104   0.750  0.00  0.00     0.058 A 
ENDBRANCH  15  16
BRANCH  15  21
HETATM   21  C   UNK N   1       3.515   2.931   0.243  0.00  0.00     0.157 C 
HETATM   22  O   UNK N   1       4.575   3.419  -0.118  0.00  0.00    -0.649 OA
BRANCH  21  23
HETATM   23  O   UNK N   1       2.697   3.641   1.042  0.00  0.00    -0.775 OA
HETATM   24  H   UNK N   1       2.840   4.381   1.598  0.00  0.00     0.167 HD
ENDBRANCH  21  23
ENDBRANCH  15  21
ENDBRANCH  12  15
ENDBRANCH   7  11
BRANCH   6  25
HETATM   25  C   UNK N   1       8.659  -2.932   0.610  0.00  0.00     0.160 C 
HETATM   26  O   UNK N   1       9.811  -3.206   0.902  0.00  0.00    -0.649 OA
BRANCH  25  27
HETATM   27  O   UNK N   1       7.688  -3.844   0.800  0.00  0.00    -0.775 OA
HETATM   28  H   UNK N   1       6.800  -3.576   0.933  0.00  0.00     0.167 HD
ENDBRANCH  25  27
ENDBRANCH   6  25
TORSDOF 7
