REMARK  5 active torsions:
REMARK  status: ('A' for Active; 'I' for Inactive)
REMARK    1  A    between atoms: O_2  and  C_8 
REMARK    2  A    between atoms: N_3  and  C_11 
REMARK    3  A    between atoms: N_4  and  C_13 
REMARK    4  A    between atoms: C_11  and  C_12 
REMARK    5  A    between atoms: C_12  and  C_13 
ROOT
HETATM    1  S   UNK N   1       5.366  -4.609  -0.239  0.00  0.00    -0.086 SA
HETATM    2  N   UNK N   1       5.181  -1.552  -0.874  0.00  0.00    -0.345 N 
HETATM    3  N   UNK N   1      10.478   0.375   0.296  0.00  0.00    -0.191 NA
HETATM    4  C   UNK N   1       6.432  -2.035  -0.407  0.00  0.00     0.053 A 
HETATM    5  C   UNK N   1       3.971  -2.185  -0.446  0.00  0.00     0.052 A 
HETATM    6  C   UNK N   1       6.634  -3.371  -0.019  0.00  0.00     0.032 A 
HETATM    7  C   UNK N   1       3.954  -3.530  -0.023  0.00  0.00     0.032 A 
HETATM    8  C   UNK N   1       7.479  -1.128  -0.286  0.00  0.00     0.053 A 
HETATM    9  C   UNK N   1       2.795  -1.442  -0.349  0.00  0.00     0.031 A 
HETATM   10  C   UNK N   1       7.889  -3.767   0.470  0.00  0.00     0.023 A 
HETATM   11  C   UNK N   1       2.785  -4.079   0.516  0.00  0.00     0.021 A 
HETATM   12  C   UNK N   1       8.706  -1.504   0.206  0.00  0.00     0.046 A 
HETATM   13  C   UNK N   1       1.637  -1.984   0.208  0.00  0.00     0.002 A 
HETATM   14  C   UNK N   1       8.928  -2.831   0.592  0.00  0.00     0.024 A 
HETATM   15  C   UNK N   1       1.637  -3.300   0.656  0.00  0.00     0.002 A 
HETATM   16  C   UNK N   1       9.713  -0.491   0.271  0.00  0.00     0.099 C 
ENDROOT
BRANCH   2  17
HETATM   17  C   UNK N   1       5.188  -0.306  -1.634  0.00  0.00     0.131 C 
BRANCH  17  18
HETATM   18  C   UNK N   1       4.655   0.926  -0.917  0.00  0.00     0.050 C 
BRANCH  18  19
HETATM   19  C   UNK N   1       4.949   1.035   0.579  0.00  0.00     0.274 C 
BRANCH  19  20
HETATM   20  N   UNK N   1       3.904   1.791   1.299  0.00  0.00     0.088 N 
HETATM   21  C   UNK N   1       2.579   1.158   1.266  0.00  0.00     0.275 C 
HETATM   22  C   UNK N   1       1.911   1.269  -0.114  0.00  0.00     0.062 C 
HETATM   23  C   UNK N   1       1.862   2.695  -0.634  0.00  0.00     0.121 C 
HETATM   24  C   UNK N   1       3.199   3.422  -0.458  0.00  0.00     0.062 C 
HETATM   25  C   UNK N   1       3.814   3.211   0.934  0.00  0.00     0.275 C 
BRANCH  23  26
HETATM   26  O   UNK N   1       0.824   3.386  -0.018  0.00  0.00    -0.395 OA
HETATM   27  H   UNK N   1       0.879   4.254   0.411  0.00  0.00     0.210 HD
ENDBRANCH  23  26
ENDBRANCH  19  20
ENDBRANCH  18  19
ENDBRANCH  17  18
ENDBRANCH   2  17
TORSDOF 5
