REMARK  11 active torsions:
REMARK  status: ('A' for Active; 'I' for Inactive)
REMARK    1  A    between atoms: O_1  and  C_16 
REMARK    2  A    between atoms: O_1  and  C_21 
REMARK    3  A    between atoms: O_2  and  C_17 
REMARK    4  A    between atoms: O_2  and  C_20 
REMARK    5  A    between atoms: O_3  and  C_22 
REMARK    6  A    between atoms: N_6  and  C_21 
REMARK    7  A    between atoms: C_15  and  N_7 
REMARK       I    between atoms: N_13  and  C_27 
REMARK    8  A    between atoms: C_14  and  C_15 
REMARK    9  A    between atoms: C_15  and  C_20 
REMARK   10  A    between atoms: C_16  and  C_17 
REMARK   11  A    between atoms: C_16  and  C_22 
ROOT
HETATM    1  C   UNK N   1       4.849  -0.350  -0.656  0.00  0.00     0.301 C 
ENDROOT
BRANCH   1   2
HETATM    2  O   UNK N   1       5.187   0.300   0.530  0.00  0.00    -0.362 OA
BRANCH   2   3
HETATM    3  C   UNK N   1       5.859   1.449   0.119  0.00  0.00     0.171 C 
BRANCH   3   4
HETATM    4  C   UNK N   1       7.272   1.417   0.688  0.00  0.00     0.213 C 
BRANCH   4   5
HETATM    5  O   UNK N   1       7.990   2.523   0.295  0.00  0.00    -0.317 OA
BRANCH   5   6
HETATM    6  C   UNK N   1       9.272   2.453  -0.143  0.00  0.00     0.281 C 
HETATM    7  O   UNK N   1       9.834   1.371  -0.244  0.00  0.00    -0.263 OA
BRANCH   6   8
HETATM    8  C   UNK N   1      10.006   3.722  -0.508  0.00  0.00     0.178 C 
BRANCH   8   9
HETATM    9  N   UNK N   1       9.113   4.862  -0.337  0.00  0.00    -0.418 N 
HETATM   10  H   UNK N   1       9.492   5.802  -0.218  0.00  0.00     0.150 HD
HETATM   11  H   UNK N   1       8.104   4.719  -0.337  0.00  0.00     0.150 HD
ENDBRANCH   8   9
BRANCH   8  12
HETATM   12  C   UNK N   1      11.273   3.922   0.337  0.00  0.00     0.009 C 
HETATM   13  C   UNK N   1      12.309   2.853   0.034  0.00  0.00     0.012 C 
HETATM   14  C   UNK N   1      11.910   5.273   0.054  0.00  0.00     0.012 C 
ENDBRANCH   8  12
ENDBRANCH   6   8
ENDBRANCH   5   6
ENDBRANCH   4   5
ENDBRANCH   3   4
BRANCH   3  15
HETATM   15  C   UNK N   1       5.081   2.674   0.586  0.00  0.00     0.198 C 
BRANCH  15  16
HETATM   16  O   UNK N   1       5.498   3.808  -0.113  0.00  0.00    -0.398 OA
HETATM   17  H   UNK N   1       6.325   3.951  -0.599  0.00  0.00     0.209 HD
ENDBRANCH  15  16
ENDBRANCH   3  15
ENDBRANCH   2   3
ENDBRANCH   1   2
BRANCH   1  18
HETATM   18  N   UNK N   1       4.543  -1.743  -0.386  0.00  0.00    -0.305 N 
HETATM   19  C   UNK N   1       3.336  -2.277  -0.216  0.00  0.00     0.158 A 
HETATM   20  N   UNK N   1       2.140  -1.639  -0.229  0.00  0.00    -0.174 N 
HETATM   21  C   UNK N   1       3.454  -3.603  -0.025  0.00  0.00     0.147 A 
HETATM   22  C   UNK N   1       1.010  -2.387  -0.037  0.00  0.00     0.680 A 
HETATM   23  H   UNK N   1       2.086  -0.667  -0.372  0.00  0.00     0.186 HD
HETATM   24  N   UNK N   1       1.098  -3.745   0.153  0.00  0.00    -0.154 N 
HETATM   25  N   UNK N   1      -0.251  -1.759  -0.035  0.00  0.00    -0.234 N 
HETATM   26  C   UNK N   1       2.324  -4.380   0.161  0.00  0.00     0.290 A 
ATOM     27  HN  UNK N   1       0.247  -4.291   0.289  1.00  0.00     0.187 HD
HETATM   28  O   UNK N   1       2.399  -5.584   0.323  0.00  0.00    -0.265 OA
HETATM   29  H   UNK N   1      -0.311  -0.776  -0.034  0.00  0.00     0.174 HD
HETATM   30  H   UNK N   1      -1.071  -2.302  -0.035  0.00  0.00     0.174 HD
HETATM   31  N   UNK N   1       4.756  -3.954  -0.061  0.00  0.00    -0.345 N 
HETATM   32  C   UNK N   1       5.413  -2.780  -0.287  0.00  0.00     0.187 A 
ATOM     33  HN  UNK N   1       5.157  -4.885   0.054  1.00  0.00     0.167 HD
ENDBRANCH   1  18
TORSDOF 11
