REMARK  10 active torsions:
REMARK  status: ('A' for Active; 'I' for Inactive)
REMARK    1  A    between atoms: O_2  and  C_15 
REMARK    2  A    between atoms: N_3  and  C_10 
REMARK    3  A    between atoms: N_3  and  C_11 
REMARK    4  A    between atoms: N_3  and  C_13 
REMARK    5  A    between atoms: N_4  and  C_9 
REMARK    6  A    between atoms: N_4  and  C_14 
REMARK    7  A    between atoms: C_7  and  C_8 
REMARK    8  A    between atoms: C_7  and  C_9 
REMARK    9  A    between atoms: C_8  and  C_10 
REMARK   10  A    between atoms: C_11  and  C_15 
ROOT
HETATM    1  N   UNK N   1       5.124   1.445   0.171  0.00  0.00    -0.385 N 
HETATM    2  H   UNK N   1       5.933   0.892   0.265  0.00  0.00     0.160 HD
ENDROOT
BRANCH   1   3
HETATM    3  C   UNK N   1       3.840   0.778   0.245  0.00  0.00     0.077 C 
HETATM    4  C   UNK N   1       2.946   1.433   1.282  0.00  0.00     0.032 C 
BRANCH   3   5
HETATM    5  C   UNK N   1       4.054  -0.651   0.707  0.00  0.00     0.026 C 
BRANCH   5   6
HETATM    6  C   UNK N   1       4.339  -1.575  -0.458  0.00  0.00     0.032 C 
BRANCH   6   7
HETATM    7  C   UNK N   1       3.858  -2.991  -0.120  0.00  0.00     0.272 C 
BRANCH   7   8
HETATM    8  N   UNK N   1       2.396  -3.186  -0.041  0.00  0.00     0.090 N 
BRANCH   8   9
HETATM    9  C   UNK N   1       2.068  -4.245  -0.984  0.00  0.00     0.298 C 
BRANCH   9  10
HETATM   10  C   UNK N   1       1.399  -5.403  -0.269  0.00  0.00     0.194 C 
BRANCH  10  11
HETATM   11  O   UNK N   1       2.343  -6.101   0.486  0.00  0.00    -0.399 OA
HETATM   12  H   UNK N   1       2.251  -6.912   1.011  0.00  0.00     0.209 HD
ENDBRANCH  10  11
ENDBRANCH   9  10
ENDBRANCH   8   9
BRANCH   8  13
HETATM   13  C   UNK N   1       1.607  -2.016  -0.429  0.00  0.00     0.268 C 
HETATM   14  C   UNK N   1       0.290  -1.996   0.324  0.00  0.00     0.037 C 
ENDBRANCH   8  13
ENDBRANCH   7   8
ENDBRANCH   6   7
ENDBRANCH   5   6
ENDBRANCH   3   5
ENDBRANCH   1   3
BRANCH   1  15
HETATM   15  C   UNK N   1       5.299   2.846  -0.030  0.00  0.00     0.042 A 
HETATM   16  C   UNK N   1       6.590   3.398  -0.032  0.00  0.00     0.017 A 
HETATM   17  C   UNK N   1       6.746   4.797  -0.162  0.00  0.00     0.046 A 
HETATM   18  C   UNK N   1       7.726   2.586   0.105  0.00  0.00     0.018 A 
HETATM   19  N   UNK N   1       5.653   5.595  -0.293  0.00  0.00    -0.365 N 
HETATM   20  C   UNK N   1       8.024   5.362  -0.146  0.00  0.00     0.054 A 
HETATM   21  C   UNK N   1       4.395   5.078  -0.308  0.00  0.00     0.090 A 
ATOM     22  HN  UNK N   1       5.779   6.604  -0.381  1.00  0.00     0.165 HD
HETATM   23  C   UNK N   1       4.197   3.703  -0.175  0.00  0.00     0.047 A 
HETATM   24  C   UNK N   1       9.149   4.544  -0.007  0.00  0.00     0.036 A 
HETATM   25 Cl   UNK N   1      10.747   5.255   0.022  0.00  0.00    -0.084 Cl
HETATM   26  C   UNK N   1       9.000   3.159   0.114  0.00  0.00     0.025 A 
ENDBRANCH   1  15
TORSDOF 10
