REMARK  9 active torsions:
REMARK  status: ('A' for Active; 'I' for Inactive)
REMARK    1  A    between atoms: N_1  and  C_2 
REMARK    2  A    between atoms: N_1  and  C_3 
REMARK    3  A    between atoms: N_1  and  C_6 
REMARK    4  A    between atoms: C_2  and  C_4 
REMARK    5  A    between atoms: C_3  and  C_5 
REMARK    6  A    between atoms: C_4  and  C_7 
REMARK    7  A    between atoms: C_5  and  C_8 
REMARK    8  A    between atoms: C_7  and  C_10 
REMARK    9  A    between atoms: C_8  and  C_11 
ROOT
HETATM    1  N   UNK N   1       3.661   0.755   0.007  0.00  0.00     0.088 N 
ENDROOT
BRANCH   1   2
HETATM    2  C   UNK N   1       2.978   1.680   0.909  0.00  0.00     0.272 C 
BRANCH   2   3
HETATM    3  C   UNK N   1       3.865   2.868   1.236  0.00  0.00     0.035 C 
BRANCH   3   4
HETATM    4  C   UNK N   1       4.111   3.705  -0.007  0.00  0.00     0.040 C 
BRANCH   4   5
HETATM    5  C   UNK N   1       5.572   3.950  -0.166  0.00  0.00    -0.058 A 
HETATM    6  C   UNK N   1       6.075   5.247  -0.029  0.00  0.00     0.007 A 
HETATM    7  C   UNK N   1       7.447   5.481  -0.160  0.00  0.00     0.001 A 
HETATM    8  C   UNK N   1       8.316   4.420  -0.432  0.00  0.00     0.000 A 
HETATM    9  C   UNK N   1       7.814   3.123  -0.576  0.00  0.00     0.001 A 
HETATM   10  C   UNK N   1       6.442   2.888  -0.443  0.00  0.00     0.007 A 
ENDBRANCH   4   5
ENDBRANCH   3   4
ENDBRANCH   2   3
ENDBRANCH   1   2
BRANCH   1  11
HETATM   11  C   UNK N   1       2.686  -0.081  -0.699  0.00  0.00     0.272 C 
BRANCH  11  12
HETATM   12  C   UNK N   1       1.697  -0.790   0.229  0.00  0.00     0.035 C 
BRANCH  12  13
HETATM   13  C   UNK N   1       0.922  -1.813  -0.579  0.00  0.00     0.040 C 
BRANCH  13  14
HETATM   14  C   UNK N   1       1.430  -3.192  -0.326  0.00  0.00    -0.058 A 
HETATM   15  C   UNK N   1       2.788  -3.499  -0.510  0.00  0.00     0.007 A 
HETATM   16  C   UNK N   1       3.249  -4.797  -0.279  0.00  0.00     0.001 A 
HETATM   17  C   UNK N   1       2.358  -5.795   0.124  0.00  0.00     0.000 A 
HETATM   18  C   UNK N   1       1.003  -5.493   0.300  0.00  0.00     0.001 A 
HETATM   19  C   UNK N   1       0.542  -4.193   0.077  0.00  0.00     0.007 A 
ENDBRANCH  13  14
ENDBRANCH  12  13
ENDBRANCH  11  12
ENDBRANCH   1  11
BRANCH   1  20
HETATM   20  C   UNK N   1       4.585  -0.084   0.764  0.00  0.00     0.268 C 
HETATM   21  C   UNK N   1       5.729  -0.530  -0.130  0.00  0.00     0.037 C 
ENDBRANCH   1  20
TORSDOF 9
