REMARK  3 active torsions:
REMARK  status: ('A' for Active; 'I' for Inactive)
REMARK    1  A    between atoms: N_3  and  C_7 
REMARK    2  A    between atoms: C_5  and  C_7 
REMARK    3  A    between atoms: C_12  and  C_18 
ROOT
HETATM    1  O   UNK N   1       5.533   2.079  -0.509  0.00  0.00    -0.292 OA
HETATM    2  N   UNK N   1       8.228  -1.599   0.019  0.00  0.00    -0.362 N 
HETATM    3  C   UNK N   1       4.352   0.075   0.066  0.00  0.00     0.089 C 
HETATM    4  C   UNK N   1       4.510  -1.340  -0.519  0.00  0.00     0.020 C 
HETATM    5  C   UNK N   1       5.743  -2.068   0.046  0.00  0.00     0.059 C 
HETATM    6  C   UNK N   1       6.882   0.184  -0.167  0.00  0.00     0.041 A 
HETATM    7  C   UNK N   1       6.949  -1.180  -0.019  0.00  0.00     0.024 A 
HETATM    8  C   UNK N   1       5.593   0.889  -0.237  0.00  0.00     0.168 C 
HETATM    9  C   UNK N   1       8.180   0.638  -0.237  0.00  0.00    -0.021 A 
HETATM   10  C   UNK N   1       8.984  -0.487  -0.115  0.00  0.00     0.012 A 
HETATM   11  C   UNK N   1      10.472  -0.509  -0.132  0.00  0.00     0.068 C 
HETATM   12  H   UNK N   1       8.547  -2.525   0.122  0.00  0.00     0.165 HD
ENDROOT
BRANCH   3  13
HETATM   13  C   UNK N   1       3.052   0.742  -0.400  0.00  0.00     0.285 C 
BRANCH  13  14
HETATM   14  N   UNK N   1       1.877   0.225   0.306  0.00  0.00     0.093 N 
HETATM   15  C   UNK N   1       0.736   1.044  -0.115  0.00  0.00     0.298 C 
HETATM   16  C   UNK N   1      -0.569   0.437   0.417  0.00  0.00     0.198 C 
HETATM   17  O   UNK N   1      -0.726  -0.864  -0.094  0.00  0.00    -0.388 OA
HETATM   18  C   UNK N   1       0.296  -1.639   0.478  0.00  0.00     0.198 C 
HETATM   19  C   UNK N   1       1.636  -1.171  -0.083  0.00  0.00     0.298 C 
ENDBRANCH  13  14
ENDBRANCH   3  13
BRANCH   9  20
HETATM   20  C   UNK N   1       8.623   2.055  -0.411  0.00  0.00     0.037 C 
HETATM   21  C   UNK N   1       9.402   2.522   0.804  0.00  0.00     0.010 C 
ENDBRANCH   9  20
TORSDOF 3
