REMARK  1 active torsions:
REMARK  status: ('A' for Active; 'I' for Inactive)
REMARK    1  A    between atoms: C_2  and  C_10 
ROOT
HETATM    1  N   UNK N   1       6.938  -1.684   0.150  0.00  0.00     0.088 N 
HETATM    2  C   UNK N   1       3.509  -0.282  -0.955  0.00  0.00     0.083 A 
HETATM    3  C   UNK N   1       4.673  -1.198  -0.577  0.00  0.00    -0.032 A 
HETATM    4  C   UNK N   1       4.265  -2.323   0.009  0.00  0.00    -0.041 A 
HETATM    5  C   UNK N   1       6.133  -0.933  -0.819  0.00  0.00     0.307 C 
HETATM    6  C   UNK N   1       2.372  -1.124  -0.421  0.00  0.00    -0.035 A 
HETATM    7  C   UNK N   1       5.198  -3.410   0.471  0.00  0.00     0.070 C 
HETATM    8  C   UNK N   1       2.833  -2.301   0.118  0.00  0.00    -0.022 A 
HETATM    9  C   UNK N   1       6.639  -3.113   0.027  0.00  0.00     0.277 C 
HETATM   10  C   UNK N   1       1.002  -0.851  -0.464  0.00  0.00     0.009 A 
HETATM   11  C   UNK N   1       1.973  -3.262   0.645  0.00  0.00     0.012 A 
HETATM   12  C   UNK N   1       8.333  -1.494  -0.198  0.00  0.00     0.310 C 
HETATM   13  C   UNK N   1       0.110  -1.799   0.066  0.00  0.00     0.001 A 
HETATM   14  C   UNK N   1       0.594  -3.003   0.617  0.00  0.00     0.001 A 
ENDROOT
BRANCH   2  15
HETATM   15  C   UNK N   1       3.575   1.114  -0.367  0.00  0.00    -0.045 A 
HETATM   16  C   UNK N   1       2.511   2.001  -0.588  0.00  0.00     0.008 A 
HETATM   17  C   UNK N   1       2.571   3.315  -0.112  0.00  0.00     0.001 A 
HETATM   18  C   UNK N   1       3.703   3.759   0.576  0.00  0.00     0.000 A 
HETATM   19  C   UNK N   1       4.772   2.887   0.795  0.00  0.00     0.001 A 
HETATM   20  C   UNK N   1       4.709   1.571   0.327  0.00  0.00     0.008 A 
ENDBRANCH   2  15
TORSDOF 1
