REMARK  9 active torsions:
REMARK  status: ('A' for Active; 'I' for Inactive)
REMARK    1  A    between atoms: S_2  and  N_8 
REMARK    2  A    between atoms: S_2  and  C_24 
REMARK    3  A    between atoms: O_3  and  C_17 
REMARK    4  A    between atoms: N_6  and  C_15 
REMARK    5  A    between atoms: N_7  and  C_18 
REMARK    6  A    between atoms: C_9  and  C_14 
REMARK    7  A    between atoms: C_14  and  C_17 
REMARK    8  A    between atoms: C_15  and  C_16 
REMARK    9  A    between atoms: C_16  and  C_18 
ROOT
HETATM    1  S   UNK N   1       5.703  -5.787  -0.658  0.00  0.00    -0.086 SA
HETATM    2  N   UNK N   1       5.480  -2.657  -0.009  0.00  0.00    -0.345 N 
HETATM    3  C   UNK N   1       6.780  -3.255  -0.007  0.00  0.00     0.053 A 
HETATM    4  C   UNK N   1       4.269  -3.371  -0.275  0.00  0.00     0.052 A 
HETATM    5  C   UNK N   1       7.005  -4.622  -0.277  0.00  0.00     0.032 A 
HETATM    6  C   UNK N   1       4.245  -4.754  -0.568  0.00  0.00     0.032 A 
HETATM    7  C   UNK N   1       7.887  -2.448   0.294  0.00  0.00     0.055 A 
HETATM    8  C   UNK N   1       9.179  -2.945   0.326  0.00  0.00     0.076 A 
HETATM    9  C   UNK N   1       3.043  -2.673  -0.239  0.00  0.00     0.031 A 
HETATM   10  C   UNK N   1       8.316  -5.125  -0.243  0.00  0.00     0.023 A 
HETATM   11  C   UNK N   1       9.402  -4.294   0.057  0.00  0.00     0.026 A 
HETATM   12  C   UNK N   1       3.018  -5.388  -0.806  0.00  0.00     0.021 A 
HETATM   13  C   UNK N   1       1.832  -3.316  -0.481  0.00  0.00     0.002 A 
HETATM   14  C   UNK N   1       1.819  -4.678  -0.763  0.00  0.00     0.002 A 
ENDROOT
BRANCH   2  15
HETATM   15  C   UNK N   1       5.369  -1.256   0.367  0.00  0.00     0.131 C 
BRANCH  15  16
HETATM   16  C   UNK N   1       5.971  -0.327  -0.680  0.00  0.00     0.050 C 
BRANCH  16  17
HETATM   17  C   UNK N   1       5.827   1.118  -0.217  0.00  0.00     0.274 C 
BRANCH  17  18
HETATM   18  N   UNK N   1       4.457   1.580  -0.404  0.00  0.00     0.088 N 
HETATM   19  C   UNK N   1       4.444   3.037  -0.301  0.00  0.00     0.272 C 
HETATM   20  C   UNK N   1       3.031   3.550  -0.585  0.00  0.00     0.035 C 
HETATM   21  C   UNK N   1       2.030   2.918   0.392  0.00  0.00    -0.009 C 
HETATM   22  C   UNK N   1       2.173   1.402   0.399  0.00  0.00     0.035 C 
HETATM   23  C   UNK N   1       3.623   1.049   0.674  0.00  0.00     0.272 C 
BRANCH  21  24
HETATM   24  C   UNK N   1       0.606   3.257  -0.005  0.00  0.00     0.031 C 
BRANCH  24  25
HETATM   25  C   UNK N   1       0.309   4.722   0.238  0.00  0.00     0.164 C 
BRANCH  25  26
HETATM   26  O   UNK N   1      -0.989   5.001  -0.182  0.00  0.00    -0.401 OA
HETATM   27  H   UNK N   1      -1.273   5.881  -0.475  0.00  0.00     0.209 HD
ENDBRANCH  25  26
ENDBRANCH  24  25
ENDBRANCH  21  24
ENDBRANCH  17  18
ENDBRANCH  16  17
ENDBRANCH  15  16
ENDBRANCH   2  15
BRANCH   8  28
HETATM   28  S   UNK N   1      10.513  -1.828   0.741  0.00  0.00     0.243 S 
HETATM   29  O   UNK N   1       9.920  -0.507   1.263  0.00  0.00    -0.206 OA
HETATM   30  O   UNK N   1      11.332  -2.283   1.961  0.00  0.00    -0.206 OA
BRANCH  28  31
HETATM   31  N   UNK N   1      11.662  -1.361  -0.539  0.00  0.00    -0.215 NA
HETATM   32  C   UNK N   1      12.888  -2.123  -0.379  0.00  0.00     0.129 C 
HETATM   33  C   UNK N   1      12.009   0.046  -0.411  0.00  0.00     0.129 C 
ENDBRANCH  28  31
ENDBRANCH   8  28
TORSDOF 9
