REMARK  15 active torsions:
REMARK  status: ('A' for Active; 'I' for Inactive)
REMARK    1  A    between atoms: C_2  and  C_3 
REMARK    2  A    between atoms: C_3  and  C_4 
REMARK    3  A    between atoms: C_4  and  C_5 
REMARK    4  A    between atoms: C_5  and  C_6 
REMARK    5  A    between atoms: C_6  and  C_7 
REMARK    6  A    between atoms: C_7  and  C_8 
REMARK    7  A    between atoms: C_8  and  C_9 
REMARK    8  A    between atoms: C_9  and  C_10 
REMARK    9  A    between atoms: C_10  and  C_11 
REMARK   10  A    between atoms: C_11  and  C_12 
REMARK   11  A    between atoms: C_12  and  C_13 
REMARK   12  A    between atoms: C_13  and  C_14 
REMARK   13  A    between atoms: C_14  and  C_15 
REMARK   14  A    between atoms: C_15  and  C_16 
REMARK   15  A    between atoms: C_16  and  N_17 
ROOT
HETATM    1  C   UNK N   1       0.077   0.275   0.659  0.00  0.00     0.000 C 
ENDROOT
BRANCH   1   2
HETATM    2  C   UNK N   1      -1.084   0.983  -0.011  0.00  0.00     0.000 C 
BRANCH   2   3
HETATM    3  C   UNK N   1      -2.271   0.044  -0.074  0.00  0.00     0.000 C 
BRANCH   3   4
HETATM    4  C   UNK N   1      -3.558   0.837  -0.159  0.00  0.00     0.000 C 
BRANCH   4   5
HETATM    5  C   UNK N   1      -4.726  -0.124  -0.084  0.00  0.00     0.000 C 
BRANCH   5   6
HETATM    6  C   UNK N   1      -6.035   0.636  -0.041  0.00  0.00     0.000 C 
BRANCH   6   7
HETATM    7  C   UNK N   1      -7.172  -0.364   0.006  0.00  0.00     0.000 C 
BRANCH   7   8
HETATM    8  C   UNK N   1      -8.502   0.359   0.017  0.00  0.00    -0.000 C 
BRANCH   8   9
HETATM    9  C   UNK N   1      -9.620  -0.663   0.009  0.00  0.00    -0.005 C 
HETATM   10  C   UNK N   1     -10.958   0.045   0.004  0.00  0.00     0.005 C 
ENDBRANCH   8   9
ENDBRANCH   7   8
ENDBRANCH   6   7
ENDBRANCH   5   6
ENDBRANCH   4   5
ENDBRANCH   3   4
ENDBRANCH   2   3
ENDBRANCH   1   2
BRANCH   1  11
HETATM   11  C   UNK N   1       1.186  -0.003  -0.336  0.00  0.00     0.000 C 
BRANCH  11  12
HETATM   12  C   UNK N   1       2.301  -0.740   0.377  0.00  0.00     0.000 C 
BRANCH  12  13
HETATM   13  C   UNK N   1       3.403  -1.103  -0.600  0.00  0.00     0.000 C 
BRANCH  13  14
HETATM   14  C   UNK N   1       4.474  -1.908   0.115  0.00  0.00     0.002 C 
BRANCH  14  15
HETATM   15  C   UNK N   1       5.442  -0.986   0.833  0.00  0.00     0.028 C 
BRANCH  15  16
HETATM   16  C   UNK N   1       6.707  -0.818  -0.010  0.00  0.00     0.236 C 
BRANCH  16  17
HETATM   17  N   UNK N   1       7.132   0.573  -0.144  0.00  0.00    -0.079 N 
HETATM   18  C   UNK N   1       7.406   1.177   1.154  0.00  0.00     0.271 C 
HETATM   19  C   UNK N   1       8.354   0.604  -0.924  0.00  0.00     0.271 C 
HETATM   20  C   UNK N   1       6.126   1.360  -0.845  0.00  0.00     0.271 C 
ENDBRANCH  16  17
ENDBRANCH  15  16
ENDBRANCH  14  15
ENDBRANCH  13  14
ENDBRANCH  12  13
ENDBRANCH  11  12
ENDBRANCH   1  11
TORSDOF 15
