REMARK  5 active torsions:
REMARK  status: ('A' for Active; 'I' for Inactive)
REMARK    1  A    between atoms: N_1  and  C_5 
REMARK    2  A    between atoms: N_1  and  C_7 
REMARK    3  A    between atoms: N_1  and  C_9 
REMARK    4  A    between atoms: C_5  and  C_6 
REMARK    5  A    between atoms: C_7  and  C_11 
ROOT
HETATM    1  N   UNK N   1       4.942  -0.002  -0.000  0.00  0.00    -0.370 N 
ENDROOT
BRANCH   1   2
HETATM    2  C   UNK N   1       6.155   0.823  -0.000  0.00  0.00     0.199 C 
BRANCH   2   3
HETATM    3  C   UNK N   1       6.063   2.335  -0.000  0.00  0.00     0.091 A 
HETATM    4  N   UNK N   1       4.891   3.090   0.000  0.00  0.00    -0.377 N 
HETATM    5  C   UNK N   1       5.233   4.485   0.000  0.00  0.00     0.140 A 
HETATM    6  H   UNK N   1       3.976   2.726   0.000  0.00  0.00     0.160 HD
HETATM    7  C   UNK N   1       6.781   4.461  -0.000  0.00  0.00     0.140 A 
HETATM    8  N   UNK N   1       7.109   3.055  -0.000  0.00  0.00    -0.377 N 
ATOM      9  HN  UNK N   1       8.060   2.687  -0.000  1.00  0.00     0.160 HD
ENDBRANCH   2   3
ENDBRANCH   1   2
BRANCH   1  10
HETATM   10  C   UNK N   1       3.645   0.706  -0.000  0.00  0.00     0.162 C 
BRANCH  10  11
HETATM   11  C   UNK N   1       2.212   0.200  -0.000  0.00  0.00    -0.040 A 
HETATM   12  C   UNK N   1       1.820  -1.137  -0.000  0.00  0.00     0.009 A 
HETATM   13  C   UNK N   1       0.475  -1.506  -0.000  0.00  0.00     0.001 A 
HETATM   14  C   UNK N   1      -0.512  -0.523  -0.000  0.00  0.00     0.000 A 
HETATM   15  C   UNK N   1      -0.146   0.824   0.000  0.00  0.00     0.001 A 
HETATM   16  C   UNK N   1       1.208   1.181   0.000  0.00  0.00     0.009 A 
ENDBRANCH  10  11
ENDBRANCH   1  10
BRANCH   1  17
HETATM   17  C   UNK N   1       5.173  -1.433   0.000  0.00  0.00     0.030 A 
HETATM   18  C   UNK N   1       6.499  -1.922  -0.000  0.00  0.00     0.029 A 
HETATM   19  C   UNK N   1       6.772  -3.293   0.000  0.00  0.00     0.002 A 
HETATM   20  C   UNK N   1       5.723  -4.210   0.000  0.00  0.00     0.000 A 
HETATM   21  C   UNK N   1       4.408  -3.752   0.000  0.00  0.00     0.002 A 
HETATM   22  C   UNK N   1       4.149  -2.380   0.000  0.00  0.00     0.029 A 
ENDBRANCH   1  17
TORSDOF 5
