REMARK  7 active torsions:
REMARK  status: ('A' for Active; 'I' for Inactive)
REMARK    1  A    between atoms: O_2  and  C_7 
REMARK    2  A    between atoms: O_3  and  C_11 
REMARK    3  A    between atoms: O_3  and  C_12 
REMARK    4  A    between atoms: N_4  and  C_5 
REMARK    5  A    between atoms: N_4  and  C_6 
REMARK    6  A    between atoms: C_6  and  C_7 
REMARK    7  A    between atoms: C_7  and  C_11 
ROOT
HETATM    1  C   UNK N   1       3.271   1.686   0.287  0.00  0.00     0.159 C 
ENDROOT
BRANCH   1   2
HETATM    2  O   UNK N   1       2.005   2.058  -0.168  0.00  0.00    -0.392 OA
HETATM    3  H   UNK N   1       1.789   2.949  -0.484  0.00  0.00     0.210 HD
ENDBRANCH   1   2
BRANCH   1   4
HETATM    4  C   UNK N   1       4.297   2.595  -0.353  0.00  0.00     0.148 C 
BRANCH   4   5
HETATM    5  N   UNK N   1       5.162   3.193   0.660  0.00  0.00    -0.411 N 
HETATM    6  H   UNK N   1       4.984   3.165   1.664  0.00  0.00     0.154 HD
BRANCH   5   7
HETATM    7  C   UNK N   1       6.322   3.838   0.035  0.00  0.00     0.014 C 
HETATM    8  C   UNK N   1       7.151   4.498   1.116  0.00  0.00     0.037 C 
HETATM    9  C   UNK N   1       5.895   4.918  -0.952  0.00  0.00     0.037 C 
HETATM   10  C   UNK N   1       7.196   2.812  -0.671  0.00  0.00     0.037 C 
ENDBRANCH   5   7
ENDBRANCH   4   5
ENDBRANCH   1   4
BRANCH   1  11
HETATM   11  C   UNK N   1       3.587   0.261  -0.136  0.00  0.00     0.209 C 
BRANCH  11  12
HETATM   12  O   UNK N   1       2.507  -0.573   0.064  0.00  0.00    -0.347 OA
BRANCH  12  13
HETATM   13  C   UNK N   1       2.613  -1.924   0.037  0.00  0.00     0.091 A 
HETATM   14  C   UNK N   1       3.872  -2.551   0.011  0.00  0.00     0.045 A 
HETATM   15  C   UNK N   1       3.969  -3.943  -0.008  0.00  0.00    -0.059 A 
HETATM   16  C   UNK N   1       2.810  -4.723  -0.007  0.00  0.00     0.008 A 
HETATM   17  C   UNK N   1       5.305  -4.592  -0.024  0.00  0.00     0.048 C 
HETATM   18  C   UNK N   1       1.555  -4.110   0.014  0.00  0.00     0.027 A 
HETATM   19  C   UNK N   1       1.452  -2.715   0.039  0.00  0.00     0.067 A 
HETATM   20 Cl   UNK N   1      -0.139  -1.974   0.057  0.00  0.00    -0.081 Cl
ENDBRANCH  12  13
ENDBRANCH  11  12
ENDBRANCH   1  11
TORSDOF 7
