REMARK  6 active torsions:
REMARK  status: ('A' for Active; 'I' for Inactive)
REMARK    1  A    between atoms: N_2  and  C_6 
REMARK    2  A    between atoms: N_2  and  C_8 
REMARK    3  A    between atoms: N_2  and  C_9 
REMARK    4  A    between atoms: N_3  and  C_7 
REMARK    5  A    between atoms: C_6  and  C_7 
REMARK    6  A    between atoms: C_8  and  C_10 
ROOT
HETATM    1  N   UNK N   1       3.297   1.014  -0.043  0.00  0.00    -0.361 N 
ENDROOT
BRANCH   1   2
HETATM    2  C   UNK N   1       4.416   0.359  -0.692  0.00  0.00     0.155 C 
BRANCH   2   3
HETATM    3  C   UNK N   1       5.461  -0.084   0.319  0.00  0.00     0.291 C 
BRANCH   3   4
HETATM    4  N   UNK N   1       6.748  -0.214  -0.346  0.00  0.00     0.081 N 
HETATM    5  C   UNK N   1       7.421   1.071  -0.245  0.00  0.00     0.309 C 
HETATM    6  C   UNK N   1       7.538  -1.166   0.412  0.00  0.00     0.309 C 
ENDBRANCH   3   4
ENDBRANCH   2   3
ENDBRANCH   1   2
BRANCH   1   7
HETATM    7  C   UNK N   1       2.218   0.259   0.586  0.00  0.00     0.162 C 
BRANCH   7   8
HETATM    8  C   UNK N   1       2.178  -1.201   0.261  0.00  0.00    -0.040 A 
HETATM    9  C   UNK N   1       3.093  -2.097   0.830  0.00  0.00     0.010 A 
HETATM   10  C   UNK N   1       3.007  -3.462   0.540  0.00  0.00     0.024 A 
HETATM   11  C   UNK N   1       2.003  -3.935  -0.311  0.00  0.00     0.034 A 
HETATM   12 Cl   UNK N   1       1.892  -5.642  -0.675  0.00  0.00    -0.084 Cl
HETATM   13  C   UNK N   1       1.082  -3.043  -0.868  0.00  0.00     0.024 A 
HETATM   14  C   UNK N   1       1.167  -1.680  -0.578  0.00  0.00     0.010 A 
ENDBRANCH   7   8
ENDBRANCH   1   7
BRANCH   1  15
HETATM   15  C   UNK N   1       3.158   2.430  -0.149  0.00  0.00     0.103 A 
HETATM   16  N   UNK N   1       1.993   3.032   0.226  0.00  0.00    -0.352 N 
HETATM   17  C   UNK N   1       1.810   4.376   0.117  0.00  0.00     0.089 A 
ATOM     18  HN  UNK N   1       1.237   2.459   0.599  1.00  0.00     0.166 HD
HETATM   19  C   UNK N   1       2.835   5.184  -0.377  0.00  0.00     0.017 A 
HETATM   20  C   UNK N   1       4.041   4.599  -0.759  0.00  0.00     0.005 A 
HETATM   21  C   UNK N   1       4.206   3.218  -0.655  0.00  0.00     0.048 A 
ENDBRANCH   1  15
TORSDOF 6
