REMARK  28 active torsions:
REMARK  status: ('A' for Active; 'I' for Inactive)
REMARK    1  A    between atoms: O_15  and  C_81 
REMARK       I    between atoms: N_18  and  C_39 
REMARK       I    between atoms: N_19  and  C_38 
REMARK    2  A    between atoms: C_41  and  N_19 
REMARK       I    between atoms: N_21  and  C_45 
REMARK    3  A    between atoms: N_21  and  C_52 
REMARK    4  A    between atoms: N_23  and  C_50 
REMARK    5  A    between atoms: C_57  and  N_27 
REMARK       I    between atoms: N_27  and  C_70 
REMARK       I    between atoms: N_28  and  C_56 
REMARK       I    between atoms: N_29  and  C_61 
REMARK       I    between atoms: N_30  and  C_68 
REMARK    6  A    between atoms: N_31  and  C_73 
REMARK       I    between atoms: N_31  and  C_82 
REMARK    7  A    between atoms: N_32  and  C_83 
REMARK       I    between atoms: N_32  and  C_84 
REMARK    8  A    between atoms: N_33  and  C_85 
REMARK    9  A    between atoms: C_34  and  C_38 
REMARK   10  A    between atoms: C_40  and  C_39 
REMARK   11  A    between atoms: C_41  and  C_43 
REMARK   12  A    between atoms: C_41  and  C_45 
REMARK   13  A    between atoms: C_43  and  C_44 
REMARK   14  A    between atoms: C_44  and  C_48 
REMARK   15  A    between atoms: C_47  and  C_49 
REMARK   16  A    between atoms: C_48  and  C_50 
REMARK   17  A    between atoms: C_49  and  C_56 
REMARK   18  A    between atoms: C_51  and  C_55 
REMARK   19  A    between atoms: C_52  and  C_61 
REMARK   20  A    between atoms: C_55  and  C_62 
REMARK   21  A    between atoms: C_58  and  C_64 
REMARK   22  A    between atoms: C_60  and  C_66 
REMARK   23  A    between atoms: C_62  and  C_68 
REMARK   24  A    between atoms: C_64  and  C_67 
REMARK   25  A    between atoms: C_66  and  C_69 
REMARK   26  A    between atoms: C_70  and  C_73 
REMARK   27  A    between atoms: C_82  and  C_83 
REMARK   28  A    between atoms: C_84  and  C_85 
ROOT
HETATM    1  S   UNK N   1       6.707   0.142   3.783  0.00  0.00    -0.095 SA
HETATM    2  S   UNK N   1       8.354  -1.187   3.695  0.00  0.00    -0.095 SA
HETATM    3  O   UNK N   1       4.613  -1.635  -0.991  0.00  0.00    -0.271 OA
HETATM    4  O   UNK N   1       6.157  -5.128   1.092  0.00  0.00    -0.271 OA
HETATM    5  O   UNK N   1       8.794  -3.989   1.148  0.00  0.00    -0.271 OA
HETATM    6  O   UNK N   1      12.230  -0.350   3.406  0.00  0.00    -0.271 OA
HETATM    7  O   UNK N   1      13.229  -4.722   1.574  0.00  0.00    -0.271 OA
HETATM    8  N   UNK N   1       5.158  -2.381   1.066  0.00  0.00    -0.345 N 
HETATM    9  N   UNK N   1       5.586  -4.637  -1.021  0.00  0.00    -0.346 N 
HETATM   10  N   UNK N   1       8.736  -4.917  -0.893  0.00  0.00    -0.346 N 
HETATM   11  N   UNK N   1      11.582  -4.208   0.175  0.00  0.00    -0.346 N 
HETATM   12  N   UNK N   1      11.374  -1.902   2.038  0.00  0.00    -0.346 N 
HETATM   13  C   UNK N   1       5.637  -1.115   1.591  0.00  0.00     0.186 C 
HETATM   14  C   UNK N   1       5.645  -1.164   3.110  0.00  0.00     0.120 C 
HETATM   15  C   UNK N   1       4.708  -2.568  -0.209  0.00  0.00     0.241 C 
HETATM   16  C   UNK N   1       4.368  -3.929  -0.700  0.00  0.00     0.185 C 
HETATM   17  C   UNK N   1       7.678  -5.837  -0.543  0.00  0.00     0.177 C 
HETATM   18  C   UNK N   1       6.431  -5.157  -0.099  0.00  0.00     0.241 C 
HETATM   19  C   UNK N   1       8.915  -0.499   2.106  0.00  0.00     0.120 C 
HETATM   20  C   UNK N   1      10.247   0.214   2.298  0.00  0.00     0.186 C 
HETATM   21  C   UNK N   1      10.527  -3.331  -0.270  0.00  0.00     0.180 C 
HETATM   22  C   UNK N   1       9.250  -4.046   0.015  0.00  0.00     0.241 C 
HETATM   23  C   UNK N   1      12.635  -2.449   1.634  0.00  0.00     0.180 C 
HETATM   24  C   UNK N   1      11.279  -0.756   2.755  0.00  0.00     0.242 C 
HETATM   25  C   UNK N   1      12.474  -3.869   1.140  0.00  0.00     0.241 C 
HETATM   26  H   UNK N   1       5.158  -3.158   1.671  0.00  0.00     0.163 HD
HETATM   27  H   UNK N   1       5.817  -4.748  -1.972  0.00  0.00     0.163 HD
HETATM   28  H   UNK N   1       9.092  -4.921  -1.811  0.00  0.00     0.163 HD
HETATM   29  H   UNK N   1      11.658  -5.096  -0.241  0.00  0.00     0.163 HD
HETATM   30  H   UNK N   1      10.548  -2.375   1.787  0.00  0.00     0.163 HD
ENDROOT
BRANCH  13  31
HETATM   31  C   UNK N   1       4.785   0.019   1.107  0.00  0.00     0.244 C 
HETATM   32  O   UNK N   1       3.613   0.055   1.432  0.00  0.00    -0.271 OA
HETATM   33  N   UNK N   1       5.305   0.923   0.224  0.00  0.00    -0.337 N 
HETATM   34  C   UNK N   1       4.515   1.936  -0.412  0.00  0.00     0.179 C 
HETATM   35  C   UNK N   1       6.687   0.971  -0.134  0.00  0.00     0.127 C 
HETATM   36  C   UNK N   1       5.411   2.533  -1.476  0.00  0.00     0.037 C 
HETATM   37  C   UNK N   1       6.814   2.252  -0.954  0.00  0.00     0.022 C 
BRANCH  34  38
HETATM   38  C   UNK N   1       3.184   1.467  -0.914  0.00  0.00     0.241 C 
HETATM   39  O   UNK N   1       3.126   0.695  -1.859  0.00  0.00    -0.271 OA
HETATM   40  N   UNK N   1       2.034   1.840  -0.288  0.00  0.00    -0.346 N 
HETATM   41  H   UNK N   1       1.199   1.487  -0.672  0.00  0.00     0.163 HD
BRANCH  40  42
HETATM   42  C   UNK N   1       1.888   2.702   0.889  0.00  0.00     0.176 C 
BRANCH  42  43
HETATM   43  C   UNK N   1       3.181   3.239   1.573  0.00  0.00     0.035 C 
BRANCH  43  44
HETATM   44  C   UNK N   1       3.804   4.434   0.836  0.00  0.00     0.004 C 
BRANCH  44  45
HETATM   45  C   UNK N   1       5.260   4.675   1.171  0.00  0.00     0.019 C 
BRANCH  45  46
HETATM   46  C   UNK N   1       5.809   5.644   0.138  0.00  0.00     0.111 C 
BRANCH  46  47
HETATM   47  N   UNK N   1       7.175   6.005   0.464  0.00  0.00    -0.430 N 
HETATM   48  H   UNK N   1       7.876   5.300   0.694  0.00  0.00     0.149 HD
HETATM   49  H   UNK N   1       7.443   6.989   0.464  0.00  0.00     0.149 HD
ENDBRANCH  46  47
ENDBRANCH  45  46
ENDBRANCH  44  45
ENDBRANCH  43  44
ENDBRANCH  42  43
BRANCH  42  50
HETATM   50  C   UNK N   1       0.996   3.840   0.548  0.00  0.00     0.240 C 
HETATM   51  O   UNK N   1       0.043   4.107   1.264  0.00  0.00    -0.271 OA
HETATM   52  N   UNK N   1       1.337   4.637  -0.491  0.00  0.00    -0.351 N 
HETATM   53  H   UNK N   1       2.017   4.317  -1.127  0.00  0.00     0.163 HD
BRANCH  52  54
HETATM   54  C   UNK N   1       0.750   5.925  -0.703  0.00  0.00     0.225 C 
BRANCH  54  55
HETATM   55  C   UNK N   1       1.633   6.912  -0.013  0.00  0.00     0.233 C 
HETATM   56  O   UNK N   1       2.544   7.446  -0.623  0.00  0.00    -0.272 OA
HETATM   57  N   UNK N   1       1.510   7.106   1.315  0.00  0.00    -0.369 N 
HETATM   58  H   UNK N   1       1.588   7.255   2.285  0.00  0.00     0.159 HD
HETATM   59  H   UNK N   1       0.526   7.066   1.315  0.00  0.00     0.159 HD
ENDBRANCH  54  55
ENDBRANCH  52  54
ENDBRANCH  42  50
ENDBRANCH  40  42
ENDBRANCH  34  38
ENDBRANCH  13  31
BRANCH  16  60
HETATM   60  C   UNK N   1       3.435  -4.690   0.251  0.00  0.00     0.137 C 
BRANCH  60  61
HETATM   61  C   UNK N   1       3.058  -6.043  -0.268  0.00  0.00     0.217 C 
HETATM   62  O   UNK N   1       3.910  -6.901  -0.435  0.00  0.00    -0.274 OA
HETATM   63  N   UNK N   1       1.766  -6.328  -0.514  0.00  0.00    -0.370 N 
HETATM   64  H   UNK N   1       1.113  -5.614  -0.693  0.00  0.00     0.159 HD
HETATM   65  H   UNK N   1       1.469  -7.267  -0.514  0.00  0.00     0.159 HD
ENDBRANCH  60  61
ENDBRANCH  16  60
BRANCH  20  66
HETATM   66  N   UNK N   1      10.812   0.567   1.028  0.00  0.00    -0.346 N 
HETATM   67  C   UNK N   1      10.945   1.788   0.496  0.00  0.00     0.236 C 
HETATM   68  O   UNK N   1      11.777   1.933  -0.390  0.00  0.00    -0.272 OA
HETATM   69  H   UNK N   1      11.143  -0.181   0.480  0.00  0.00     0.163 HD
BRANCH  67  70
HETATM   70  C   UNK N   1      10.037   2.933   0.850  0.00  0.00     0.225 C 
BRANCH  70  71
HETATM   71  N   UNK N   1      10.035   3.741  -0.341  0.00  0.00    -0.351 N 
HETATM   72  C   UNK N   1      10.448   5.019  -0.357  0.00  0.00     0.235 C 
HETATM   73  O   UNK N   1      10.426   5.699   0.655  0.00  0.00    -0.272 OA
HETATM   74  H   UNK N   1       9.717   3.339  -1.181  0.00  0.00     0.163 HD
BRANCH  72  75
HETATM   75  C   UNK N   1      11.248   5.461  -1.533  0.00  0.00     0.225 C 
BRANCH  75  76
HETATM   76  N   UNK N   1      12.502   4.728  -1.479  0.00  0.00    -0.351 N 
HETATM   77  C   UNK N   1      13.469   5.012  -0.564  0.00  0.00     0.235 C 
HETATM   78  O   UNK N   1      14.455   4.296  -0.482  0.00  0.00    -0.272 OA
HETATM   79  H   UNK N   1      12.657   4.001  -2.125  0.00  0.00     0.163 HD
BRANCH  77  80
HETATM   80  C   UNK N   1      13.342   6.191   0.352  0.00  0.00     0.214 C 
BRANCH  80  81
HETATM   81  N   UNK N   1      14.379   7.161   0.047  0.00  0.00    -0.422 N 
HETATM   82  H   UNK N   1      15.333   6.871  -0.167  0.00  0.00     0.150 HD
HETATM   83  H   UNK N   1      14.147   8.154   0.047  0.00  0.00     0.150 HD
ENDBRANCH  80  81
ENDBRANCH  77  80
ENDBRANCH  75  76
ENDBRANCH  72  75
ENDBRANCH  70  71
ENDBRANCH  67  70
ENDBRANCH  20  66
BRANCH  17  84
HETATM   84  C   UNK N   1       7.377  -6.806  -1.678  0.00  0.00     0.044 C 
BRANCH  84  85
HETATM   85  C   UNK N   1       7.925  -8.196  -1.382  0.00  0.00     0.105 C 
BRANCH  85  86
HETATM   86  C   UNK N   1       7.572  -8.653   0.001  0.00  0.00     0.215 C 
HETATM   87  O   UNK N   1       6.405  -8.706   0.356  0.00  0.00    -0.274 OA
HETATM   88  N   UNK N   1       8.552  -8.966   0.867  0.00  0.00    -0.370 N 
HETATM   89  H   UNK N   1       8.713  -9.702   1.501  0.00  0.00     0.159 HD
HETATM   90  H   UNK N   1       9.281  -8.304   0.867  0.00  0.00     0.159 HD
ENDBRANCH  85  86
ENDBRANCH  84  85
ENDBRANCH  17  84
BRANCH  23  91
HETATM   91  C   UNK N   1      13.177  -1.574   0.483  0.00  0.00     0.073 C 
BRANCH  91  92
HETATM   92  C   UNK N   1      14.486  -2.127   0.068  0.00  0.00    -0.056 A 
HETATM   93  C   UNK N   1      15.597  -1.923   0.885  0.00  0.00     0.010 A 
HETATM   94  C   UNK N   1      16.762  -2.654   0.666  0.00  0.00     0.037 A 
HETATM   95  C   UNK N   1      16.804  -3.610  -0.353  0.00  0.00     0.065 A 
HETATM   96  C   UNK N   1      15.699  -3.797  -1.189  0.00  0.00     0.037 A 
HETATM   97  C   UNK N   1      14.536  -3.058  -0.976  0.00  0.00     0.010 A 
BRANCH  95  98
HETATM   98  O   UNK N   1      17.902  -4.361  -0.517  0.00  0.00    -0.361 OA
HETATM   99  H   UNK N   1      17.831  -5.288  -0.631  0.00  0.00     0.217 HD
ENDBRANCH  95  98
ENDBRANCH  91  92
ENDBRANCH  23  91
BRANCH  21 100
HETATM  100  C   UNK N   1      10.712  -2.909  -1.723  0.00  0.00     0.073 C 
BRANCH 100 101
HETATM  101  C   UNK N   1       9.823  -1.758  -2.079  0.00  0.00    -0.056 A 
HETATM  102  C   UNK N   1       8.447  -1.946  -2.266  0.00  0.00     0.007 A 
HETATM  103  C   UNK N   1       7.637  -0.872  -2.645  0.00  0.00     0.001 A 
HETATM  104  C   UNK N   1       8.203   0.391  -2.839  0.00  0.00     0.000 A 
HETATM  105  C   UNK N   1       9.570   0.589  -2.634  0.00  0.00     0.001 A 
HETATM  106  C   UNK N   1      10.381  -0.487  -2.263  0.00  0.00     0.007 A 
ENDBRANCH 100 101
ENDBRANCH  21 100
TORSDOF 28
