REMARK  2 active torsions:
REMARK  status: ('A' for Active; 'I' for Inactive)
REMARK    1  A    between atoms: C_10  and  O_1 
REMARK    2  A    between atoms: C_3  and  C_12 
ROOT
HETATM    1  O   UNK N   1      -0.438  -3.427   0.056  0.00  0.00    -0.293 OA
HETATM    2  C   UNK N   1       6.714   1.060   0.007  0.00  0.00     0.013 C 
HETATM    3  C   UNK N   1       5.547  -1.278  -0.028  0.00  0.00    -0.001 C 
HETATM    4  C   UNK N   1       6.786  -0.450   0.399  0.00  0.00     0.025 C 
HETATM    5  C   UNK N   1       4.248  -0.475   0.101  0.00  0.00    -0.002 C 
HETATM    6  C   UNK N   1       5.719   1.198  -1.170  0.00  0.00     0.015 C 
HETATM    7  C   UNK N   1       4.299   0.781  -0.779  0.00  0.00     0.007 C 
HETATM    8  C   UNK N   1       3.006  -1.267  -0.320  0.00  0.00     0.019 C 
HETATM    9  C   UNK N   1       8.158   1.396  -0.500  0.00  0.00     0.146 C 
HETATM   10  C   UNK N   1       5.454  -2.593   0.741  0.00  0.00     0.010 C 
HETATM   11  C   UNK N   1       7.946  -0.934  -0.406  0.00  0.00    -0.021 C 
HETATM   12  C   UNK N   1       3.037  -2.717   0.120  0.00  0.00    -0.072 C 
HETATM   13  C   UNK N   1       4.343  -3.458   0.151  0.00  0.00     0.035 C 
HETATM   14  C   UNK N   1       8.662   0.057  -0.918  0.00  0.00     0.021 C 
HETATM   15  C   UNK N   1       1.771  -0.555   0.236  0.00  0.00     0.017 C 
HETATM   16  C   UNK N   1       0.479  -1.268  -0.147  0.00  0.00     0.084 C 
HETATM   17  C   UNK N   1       1.894  -3.412   0.230  0.00  0.00     0.053 C 
HETATM   18  C   UNK N   1       9.117   1.918   0.490  0.00  0.00    -0.074 C 
HETATM   19  C   UNK N   1       0.578  -2.753   0.061  0.00  0.00     0.149 C 
HETATM   20  C   UNK N   1       9.940   2.290   1.290  0.00  0.00     0.015 C 
ENDROOT
BRANCH   9  21
HETATM   21  O   UNK N   1       8.134   2.286  -1.573  0.00  0.00    -0.373 OA
HETATM   22  H   UNK N   1       8.662   2.611  -2.319  0.00  0.00     0.212 HD
ENDBRANCH   9  21
BRANCH   2  23
HETATM   23  C   UNK N   1       6.236   1.937   1.181  0.00  0.00     0.010 C 
HETATM   24  C   UNK N   1       6.041   3.398   0.793  0.00  0.00     0.006 C 
ENDBRANCH   2  23
TORSDOF 2
