REMARK  12 active torsions:
REMARK  status: ('A' for Active; 'I' for Inactive)
REMARK    1  A    between atoms: S_1  and  C_26 
REMARK    2  A    between atoms: S_1  and  C_34 
REMARK    3  A    between atoms: O_3  and  C_19 
REMARK    4  A    between atoms: O_5  and  C_27 
REMARK    5  A    between atoms: O_8  and  C_31 
REMARK    6  A    between atoms: O_10  and  C_37 
REMARK    7  A    between atoms: C_19  and  N_12 
REMARK       I    between atoms: N_12  and  C_25 
REMARK    8  A    between atoms: C_22  and  C_27 
REMARK    9  A    between atoms: C_23  and  C_26 
REMARK   10  A    between atoms: C_25  and  C_29 
REMARK   11  A    between atoms: C_29  and  C_30 
REMARK   12  A    between atoms: C_29  and  C_31 
ROOT
HETATM    1  O   UNK N   1       5.357  -0.385   0.063  0.00  0.00    -0.356 OA
HETATM    2  O   UNK N   1       8.557   2.173  -0.387  0.00  0.00    -0.267 OA
HETATM    3  N   UNK N   1       6.494   1.366  -0.879  0.00  0.00    -0.274 N 
HETATM    4  C   UNK N   1       7.861  -0.197  -0.646  0.00  0.00     0.265 A 
HETATM    5  C   UNK N   1       6.270  -0.037  -0.954  0.00  0.00     0.297 A 
HETATM    6  C   UNK N   1       7.778   1.289  -0.709  0.00  0.00     0.287 A 
HETATM    7  C   UNK N   1       5.507   2.333  -0.573  0.00  0.00     0.119 C 
HETATM    8  C   UNK N   1       4.296   1.816  -0.248  0.00  0.00    -0.013 C 
HETATM    9  C   UNK N   1       4.138   0.291  -0.247  0.00  0.00     0.208 C 
ENDROOT
BRANCH   4  10
HETATM   10  O   UNK N   1       8.643  -0.761  -1.672  0.00  0.00    -0.354 OA
HETATM   11  C   UNK N   1       8.174  -2.066  -1.881  0.00  0.00     0.205 C 
ENDBRANCH   4  10
BRANCH   4  12
HETATM   12  N   UNK N   1       8.185  -0.604   0.710  0.00  0.00    -0.317 N 
HETATM   13  C   UNK N   1       9.446  -0.615   1.212  0.00  0.00     0.239 C 
HETATM   14  O   UNK N   1       9.616  -0.874   2.394  0.00  0.00    -0.272 OA
HETATM   15  H   UNK N   1       7.448  -0.889   1.298  0.00  0.00     0.166 HD
BRANCH  13  16
HETATM   16  C   UNK N   1      10.637  -0.388   0.314  0.00  0.00     0.208 C 
BRANCH  16  17
HETATM   17  C   UNK N   1      11.418  -1.664   0.247  0.00  0.00    -0.035 A 
HETATM   18  C   UNK N   1      12.315  -2.025   1.262  0.00  0.00     0.011 A 
HETATM   19  C   UNK N   1      12.912  -3.288   1.253  0.00  0.00     0.037 A 
HETATM   20  C   UNK N   1      12.590  -4.206   0.248  0.00  0.00     0.065 A 
HETATM   21  C   UNK N   1      11.692  -3.853  -0.761  0.00  0.00     0.037 A 
HETATM   22  C   UNK N   1      11.107  -2.586  -0.760  0.00  0.00     0.011 A 
BRANCH  20  23
HETATM   23  O   UNK N   1      13.138  -5.431   0.256  0.00  0.00    -0.361 OA
HETATM   24  H   UNK N   1      12.588  -6.190   0.261  0.00  0.00     0.217 HD
ENDBRANCH  20  23
ENDBRANCH  16  17
BRANCH  16  25
HETATM   25  C   UNK N   1      11.475   0.827   0.632  0.00  0.00     0.157 C 
HETATM   26  O   UNK N   1      11.223   1.524   1.604  0.00  0.00    -0.649 OA
BRANCH  25  27
HETATM   27  O   UNK N   1      12.495   1.165  -0.179  0.00  0.00    -0.775 OA
HETATM   28  H   UNK N   1      13.054   0.667  -0.744  0.00  0.00     0.167 HD
ENDBRANCH  25  27
ENDBRANCH  16  25
ENDBRANCH  13  16
ENDBRANCH   4  12
BRANCH   7  29
HETATM   29  C   UNK N   1       5.821   3.796  -0.548  0.00  0.00     0.194 C 
HETATM   30  O   UNK N   1       6.925   4.191  -0.884  0.00  0.00    -0.645 OA
BRANCH  29  31
HETATM   31  O   UNK N   1       4.900   4.700  -0.161  0.00  0.00    -0.772 OA
HETATM   32  H   UNK N   1       5.124   5.569   0.108  0.00  0.00     0.167 HD
ENDBRANCH  29  31
ENDBRANCH   7  29
BRANCH   8  33
HETATM   33  C   UNK N   1       3.128   2.672   0.116  0.00  0.00     0.121 C 
BRANCH  33  34
HETATM   34  S   UNK N   1       2.387   2.177   1.696  0.00  0.00    -0.087 SA
BRANCH  34  35
HETATM   35  C   UNK N   1       0.777   2.417   0.965  0.00  0.00     0.175 A 
HETATM   36  N   UNK N   1       0.037   1.478   0.361  0.00  0.00    -0.262 N 
HETATM   37  N   UNK N   1      -1.051   2.077  -0.081  0.00  0.00    -0.223 N 
HETATM   38  C   UNK N   1       0.341   0.068   0.183  0.00  0.00     0.181 C 
HETATM   39  N   UNK N   1      -0.988   3.363   0.242  0.00  0.00    -0.005 NA
ATOM     40  HN  UNK N   1      -1.814   1.628  -0.588  1.00  0.00     0.206 HD
HETATM   41  N   UNK N   1       0.144   3.601   0.894  0.00  0.00    -0.261 N 
ATOM     42  HN  UNK N   1       0.466   4.495   1.264  1.00  0.00     0.186 HD
ENDBRANCH  34  35
ENDBRANCH  33  34
ENDBRANCH   8  33
TORSDOF 12
