REMARK  3 active torsions:
REMARK  status: ('A' for Active; 'I' for Inactive)
REMARK    1  A    between atoms: C_6  and  O_1 
REMARK    2  A    between atoms: O_2  and  C_21 
REMARK    3  A    between atoms: O_2  and  C_23 
ROOT
HETATM    1  C   UNK N   1       9.208   1.155  -0.407  0.00  0.00     0.003 C 
HETATM    2  C   UNK N   1       9.231  -0.219   0.264  0.00  0.00     0.002 C 
HETATM    3  C   UNK N   1       7.985  -1.057  -0.059  0.00  0.00    -0.001 C 
HETATM    4  C   UNK N   1      10.592   1.685   0.014  0.00  0.00     0.128 C 
HETATM    5  C   UNK N   1       6.778  -0.260   0.458  0.00  0.00     0.023 C 
HETATM    6  C   UNK N   1       8.004   1.952   0.110  0.00  0.00     0.014 C 
HETATM    7  C   UNK N   1      10.586  -0.778  -0.124  0.00  0.00     0.010 C 
HETATM    8  C   UNK N   1       6.714   1.160  -0.161  0.00  0.00     0.010 C 
HETATM    9  C   UNK N   1      11.502   0.456  -0.121  0.00  0.00     0.052 C 
HETATM   10  C   UNK N   1       8.085  -2.401   0.694  0.00  0.00     0.010 C 
HETATM   11  C   UNK N   1       9.105   1.021  -1.940  0.00  0.00     0.020 C 
HETATM   12  C   UNK N   1       5.531  -1.052   0.220  0.00  0.00    -0.047 A 
HETATM   13  C   UNK N   1       6.763  -3.167   0.909  0.00  0.00     0.039 C 
HETATM   14  C   UNK N   1       5.512  -2.430   0.516  0.00  0.00    -0.049 A 
HETATM   15  C   UNK N   1      11.123   2.791  -0.799  0.00  0.00    -0.078 C 
HETATM   16  C   UNK N   1       4.374  -0.431  -0.258  0.00  0.00     0.011 A 
HETATM   17  C   UNK N   1       4.313  -3.141   0.420  0.00  0.00     0.044 A 
HETATM   18  C   UNK N   1       3.192  -1.146  -0.356  0.00  0.00     0.037 A 
HETATM   19  C   UNK N   1       3.140  -2.490   0.030  0.00  0.00     0.069 A 
HETATM   20  C   UNK N   1      11.531   3.716  -1.456  0.00  0.00     0.015 C 
ENDROOT
BRANCH   4  21
HETATM   21  O   UNK N   1      10.564   2.084   1.358  0.00  0.00    -0.377 OA
HETATM   22  H   UNK N   1      10.794   2.238   2.288  0.00  0.00     0.211 HD
ENDBRANCH   4  21
BRANCH  19  23
HETATM   23  O   UNK N   1       1.961  -3.154   0.099  0.00  0.00    -0.346 OA
BRANCH  23  24
HETATM   24  C   UNK N   1       0.790  -2.666   0.685  0.00  0.00     0.129 C 
HETATM   25  C   UNK N   1       0.893  -1.285   1.336  0.00  0.00     0.032 C 
HETATM   26  C   UNK N   1       0.384  -0.292   0.301  0.00  0.00     0.002 C 
HETATM   27  C   UNK N   1      -0.225  -1.108  -0.828  0.00  0.00     0.002 C 
HETATM   28  C   UNK N   1      -0.320  -2.534  -0.326  0.00  0.00     0.032 C 
ENDBRANCH  23  24
ENDBRANCH  19  23
TORSDOF 3
