REMARK  5 active torsions:
REMARK  status: ('A' for Active; 'I' for Inactive)
REMARK    1  A    between atoms: S_1  and  N_5 
REMARK    2  A    between atoms: S_1  and  C_10 
REMARK    3  A    between atoms: N_4  and  C_11 
REMARK    4  A    between atoms: N_5  and  C_9 
REMARK    5  A    between atoms: N_8  and  C_20 
ROOT
HETATM    1  N   UNK N   1       3.517   0.173  -0.529  0.00  0.00    -0.264 N 
HETATM    2  H   UNK N   1       3.561  -0.442  -1.297  0.00  0.00     0.180 HD
ENDROOT
BRANCH   1   3
HETATM    3  S   UNK N   1       2.197   0.007   0.619  0.00  0.00     0.264 S 
HETATM    4  O   UNK N   1       2.625  -0.664   1.935  0.00  0.00    -0.200 OA
HETATM    5  O   UNK N   1       0.880  -0.461  -0.022  0.00  0.00    -0.200 OA
BRANCH   3   6
HETATM    6  C   UNK N   1       2.358  -1.852   0.272  0.00  0.00     0.080 A 
HETATM    7  C   UNK N   1       1.516  -2.784   0.956  0.00  0.00     0.027 A 
HETATM    8  C   UNK N   1       1.603  -4.156   0.721  0.00  0.00     0.030 A 
HETATM    9  C   UNK N   1       2.523  -4.648  -0.200  0.00  0.00     0.025 A 
HETATM   10  C   UNK N   1       3.359  -3.769  -0.889  0.00  0.00     0.030 A 
HETATM   11  C   UNK N   1       3.279  -2.392  -0.658  0.00  0.00     0.027 A 
BRANCH   9  12
HETATM   12  N   UNK N   1       2.608  -6.034  -0.436  0.00  0.00    -0.399 N 
HETATM   13  H   UNK N   1       1.799  -6.570  -0.601  0.00  0.00     0.156 HD
HETATM   14  H   UNK N   1       3.490  -6.473  -0.436  0.00  0.00     0.156 HD
ENDBRANCH   9  12
ENDBRANCH   3   6
ENDBRANCH   1   3
BRANCH   1  15
HETATM   15  C   UNK N   1       4.522   1.164  -0.387  0.00  0.00     0.138 A 
HETATM   16  N   UNK N   1       4.353   2.494  -0.166  0.00  0.00    -0.240 N 
HETATM   17  N   UNK N   1       5.551   3.044  -0.047  0.00  0.00    -0.303 N 
HETATM   18  C   UNK N   1       6.492   2.090  -0.202  0.00  0.00     0.111 A 
ATOM     19  HN  UNK N   1       5.733   4.031   0.133  1.00  0.00     0.186 HD
HETATM   20  C   UNK N   1       5.868   0.875  -0.429  0.00  0.00     0.069 A 
BRANCH  16  21
HETATM   21  C   UNK N   1       3.154   3.302  -0.113  0.00  0.00     0.058 A 
HETATM   22  C   UNK N   1       1.896   2.787  -0.453  0.00  0.00     0.031 A 
HETATM   23  C   UNK N   1       0.759   3.602  -0.427  0.00  0.00     0.002 A 
HETATM   24  C   UNK N   1       0.872   4.949  -0.074  0.00  0.00     0.000 A 
HETATM   25  C   UNK N   1       2.121   5.480   0.250  0.00  0.00     0.002 A 
HETATM   26  C   UNK N   1       3.255   4.663   0.226  0.00  0.00     0.031 A 
ENDBRANCH  16  21
ENDBRANCH   1  15
TORSDOF 5
