REMARK  8 active torsions:
REMARK  status: ('A' for Active; 'I' for Inactive)
REMARK    1  A    between atoms: O_2  and  C_23 
REMARK    2  A    between atoms: O_2  and  C_28 
REMARK    3  A    between atoms: N_5  and  C_10 
REMARK    4  A    between atoms: N_6  and  C_11 
REMARK       I    between atoms: N_6  and  C_21 
REMARK    5  A    between atoms: N_7  and  C_25 
REMARK    6  A    between atoms: N_8  and  C_27 
REMARK    7  A    between atoms: C_9  and  C_10 
REMARK    8  A    between atoms: C_21  and  C_22 
ROOT
HETATM    1  O   UNK N   1       2.910  -0.279   0.020  0.00  0.00    -0.268 OA
HETATM    2  N   UNK N   1       5.070  -0.371   0.587  0.00  0.00    -0.352 N 
HETATM    3  C   UNK N   1       3.900  -0.958   0.213  0.00  0.00     0.254 C 
HETATM    4  H   UNK N   1       5.844  -0.976   0.650  0.00  0.00     0.163 HD
ENDROOT
BRANCH   3   5
HETATM    5  C   UNK N   1       3.896  -2.447   0.058  0.00  0.00     0.067 A 
HETATM    6  C   UNK N   1       2.766  -3.325  -0.108  0.00  0.00     0.086 A 
HETATM    7  C   UNK N   1       3.007  -4.701  -0.228  0.00  0.00     0.069 A 
HETATM    8  C   UNK N   1       4.292  -5.243  -0.186  0.00  0.00     0.061 A 
HETATM    9  C   UNK N   1       5.402  -4.392  -0.034  0.00  0.00     0.130 A 
HETATM   10  C   UNK N   1       5.176  -3.026   0.087  0.00  0.00     0.058 A 
BRANCH   6  11
HETATM   11  O   UNK N   1       1.454  -2.962  -0.143  0.00  0.00    -0.350 OA
BRANCH  11  12
HETATM   12  C   UNK N   1       0.876  -1.801   0.299  0.00  0.00     0.171 C 
HETATM   13  C   UNK N   1      -0.598  -1.809  -0.045  0.00  0.00     0.034 C 
ENDBRANCH  11  12
ENDBRANCH   6  11
BRANCH   8  14
HETATM   14  N   UNK N   1       4.445  -6.641  -0.297  0.00  0.00    -0.397 N 
HETATM   15  H   UNK N   1       3.654  -7.221  -0.375  0.00  0.00     0.156 HD
HETATM   16  H   UNK N   1       5.346  -7.037  -0.297  0.00  0.00     0.156 HD
ENDBRANCH   8  14
BRANCH   9  17
HETATM   17  N   UNK N   1       6.750  -4.870  -0.004  0.00  0.00    -0.113 N 
HETATM   18  O   UNK N   1       7.746  -4.011   0.086  0.00  0.00    -0.532 OA
HETATM   19  O   UNK N   1       6.993  -6.035  -0.077  0.00  0.00    -0.532 OA
ENDBRANCH   9  17
ENDBRANCH   3   5
BRANCH   2  20
HETATM   20  C   UNK N   1       5.337   1.015   0.907  0.00  0.00     0.088 C 
HETATM   21  C   UNK N   1       4.137   1.969   0.999  0.00  0.00     0.055 C 
HETATM   22  C   UNK N   1       3.826   2.639  -0.346  0.00  0.00     0.274 C 
HETATM   23  N   UNK N   1       5.017   3.270  -0.926  0.00  0.00     0.088 N 
HETATM   24  C   UNK N   1       6.011   2.223  -1.207  0.00  0.00     0.274 C 
HETATM   25  C   UNK N   1       6.493   1.544   0.074  0.00  0.00     0.055 C 
BRANCH  23  26
HETATM   26  C   UNK N   1       5.484   4.348  -0.031  0.00  0.00     0.277 C 
BRANCH  26  27
HETATM   27  C   UNK N   1       6.895   4.851  -0.337  0.00  0.00     0.017 C 
HETATM   28  C   UNK N   1       7.005   6.323   0.027  0.00  0.00     0.010 C 
HETATM   29  C   UNK N   1       8.397   6.856  -0.329  0.00  0.00     0.027 C 
HETATM   30  C   UNK N   1       9.517   5.903   0.019  0.00  0.00    -0.031 C 
HETATM   31  C   UNK N   1       9.293   4.639   0.405  0.00  0.00    -0.030 C 
HETATM   32  C   UNK N   1       7.904   4.081   0.518  0.00  0.00     0.033 C 
ENDBRANCH  26  27
ENDBRANCH  23  26
ENDBRANCH   2  20
TORSDOF 8
