REMARK  4 active torsions:
REMARK  status: ('A' for Active; 'I' for Inactive)
REMARK    1  A    between atoms: S_1  and  O_2 
REMARK    2  A    between atoms: S_1  and  O_5 
REMARK    3  A    between atoms: O_2  and  N_9 
REMARK       I    between atoms: N_10  and  C_17 
REMARK    4  A    between atoms: C_14  and  C_17 
ROOT
HETATM    1  O   UNK N   1       7.113   1.112   2.168  0.00  0.00    -0.251 OA
HETATM    2  N   UNK N   1       6.004   1.383   0.206  0.00  0.00    -0.217 NA
HETATM    3  N   UNK N   1       7.730   0.026   0.306  0.00  0.00    -0.187 N 
HETATM    4  C   UNK N   1       6.977  -0.318  -0.889  0.00  0.00     0.134 C 
HETATM    5  C   UNK N   1       6.341   1.046  -1.171  0.00  0.00     0.129 C 
HETATM    6  C   UNK N   1       5.785  -1.266  -0.480  0.00  0.00     0.031 C 
HETATM    7  C   UNK N   1       4.691   0.954   0.651  0.00  0.00     0.159 C 
HETATM    8  C   UNK N   1       4.513  -0.543   0.156  0.00  0.00     0.032 C 
HETATM    9  C   UNK N   1       7.025   0.942   0.959  0.00  0.00     0.325 C 
ENDROOT
BRANCH   3  10
HETATM   10  O   UNK N   1       8.612  -0.791   0.908  0.00  0.00    -0.132 OA
BRANCH  10  11
HETATM   11  S   UNK N   1      10.033  -0.707  -0.067  0.00  0.00     0.263 S 
HETATM   12  O   UNK N   1       9.763  -2.192   0.226  0.00  0.00    -0.578 OA
HETATM   13  O   UNK N   1      10.409  -0.087   1.289  0.00  0.00    -0.578 OA
BRANCH  11  14
HETATM   14  O   UNK N   1      11.525  -1.415   0.403  0.00  0.00    -0.272 OA
HETATM   15  H   UNK N   1      12.138  -1.223  -0.355  0.00  0.00     0.234 HD
ENDBRANCH  11  14
ENDBRANCH  10  11
ENDBRANCH   3  10
BRANCH   7  16
HETATM   16  C   UNK N   1       3.592   1.849   0.098  0.00  0.00     0.233 C 
HETATM   17  O   UNK N   1       3.875   2.816  -0.594  0.00  0.00    -0.272 OA
HETATM   18  N   UNK N   1       2.293   1.575   0.360  0.00  0.00    -0.369 N 
HETATM   19  H   UNK N   1       2.035   0.759   0.934  0.00  0.00     0.159 HD
HETATM   20  H   UNK N   1       1.546   2.172  -0.026  0.00  0.00     0.159 HD
ENDBRANCH   7  16
TORSDOF 4
