REMARK  8 active torsions:
REMARK  status: ('A' for Active; 'I' for Inactive)
REMARK    1  A    between atoms: C_16  and  O_1 
REMARK    2  A    between atoms: O_2  and  C_27 
REMARK    3  A    between atoms: N_4  and  C_6 
REMARK    4  A    between atoms: N_4  and  C_13 
REMARK    5  A    between atoms: C_13  and  C_16 
REMARK    6  A    between atoms: C_14  and  C_17 
REMARK    7  A    between atoms: C_15  and  C_18 
REMARK    8  A    between atoms: C_16  and  C_19 
ROOT
HETATM    1  C   UNK N   1       7.404  -0.119  -1.006  0.00  0.00     0.169 C 
ENDROOT
BRANCH   1   2
HETATM    2  O   UNK N   1       8.232   0.056  -2.114  0.00  0.00    -0.389 OA
HETATM    3  H   UNK N   1       8.626  -0.382  -2.885  0.00  0.00     0.210 HD
ENDBRANCH   1   2
BRANCH   1   4
HETATM    4  C   UNK N   1       7.893   0.753   0.145  0.00  0.00     0.150 C 
BRANCH   4   5
HETATM    5  N   UNK N   1       7.085   0.574   1.348  0.00  0.00    -0.414 N 
HETATM    6  H   UNK N   1       7.379   0.008   2.144  0.00  0.00     0.153 HD
BRANCH   5   7
HETATM    7  C   UNK N   1       5.808   1.291   1.294  0.00  0.00     0.085 C 
HETATM    8  C   UNK N   1       4.651   0.559   0.602  0.00  0.00     0.064 C 
HETATM    9  C   UNK N   1       3.750   1.706   0.367  0.00  0.00    -0.049 A 
HETATM   10  C   UNK N   1       4.387   2.912   0.494  0.00  0.00    -0.049 A 
HETATM   11  C   UNK N   1       2.384   1.632   0.108  0.00  0.00     0.015 A 
HETATM   12  C   UNK N   1       5.820   2.764   0.841  0.00  0.00     0.064 C 
HETATM   13  C   UNK N   1       3.688   4.111   0.361  0.00  0.00     0.015 A 
HETATM   14  C   UNK N   1       2.306   4.076   0.104  0.00  0.00    -0.052 A 
HETATM   15  C   UNK N   1       1.640   2.824  -0.018  0.00  0.00    -0.052 A 
BRANCH  14  16
HETATM   16  C   UNK N   1       1.565   5.377   0.028  0.00  0.00     0.034 C 
HETATM   17  C   UNK N   1       0.973   5.607  -1.351  0.00  0.00     0.010 C 
ENDBRANCH  14  16
BRANCH  15  18
HETATM   18  C   UNK N   1       0.148   2.778  -0.241  0.00  0.00     0.034 C 
HETATM   19  C   UNK N   1      -0.444   1.375  -0.235  0.00  0.00     0.010 C 
ENDBRANCH  15  18
ENDBRANCH   5   7
ENDBRANCH   4   5
ENDBRANCH   1   4
BRANCH   1  20
HETATM   20  C   UNK N   1       7.279  -1.582  -0.665  0.00  0.00    -0.015 A 
HETATM   21  C   UNK N   1       8.383  -2.403  -0.332  0.00  0.00     0.003 A 
HETATM   22  C   UNK N   1       8.176  -3.777  -0.048  0.00  0.00     0.079 A 
HETATM   23  C   UNK N   1       9.690  -1.899  -0.284  0.00  0.00     0.020 A 
HETATM   24  N   UNK N   1       9.232  -4.576   0.260  0.00  0.00    -0.321 N 
HETATM   25  C   UNK N   1       6.880  -4.311  -0.092  0.00  0.00     0.093 A 
HETATM   26  C   UNK N   1      10.513  -4.088   0.306  0.00  0.00     0.245 A 
HETATM   27  H   UNK N   1       9.074  -5.528   0.456  0.00  0.00     0.169 HD
HETATM   28  O   UNK N   1      11.437  -4.830   0.579  0.00  0.00    -0.268 OA
HETATM   29  C   UNK N   1      10.756  -2.740   0.035  0.00  0.00     0.075 A 
HETATM   30  C   UNK N   1       5.799  -3.493  -0.418  0.00  0.00     0.039 A 
HETATM   31  C   UNK N   1       5.999  -2.143  -0.705  0.00  0.00     0.013 A 
BRANCH  25  32
HETATM   32  O   UNK N   1       6.670  -5.612   0.174  0.00  0.00    -0.358 OA
HETATM   33  H   UNK N   1       5.812  -5.939   0.360  0.00  0.00     0.217 HD
ENDBRANCH  25  32
ENDBRANCH   1  20
TORSDOF 8
