REMARK  1 active torsions:
REMARK  status: ('A' for Active; 'I' for Inactive)
REMARK    1  A    between atoms: C_16  and  C_10 
ROOT
HETATM    1  O   UNK N   1       0.857  -0.338  -0.033  0.00  0.00    -0.271 OA
HETATM    2  O   UNK N   1       5.460  -0.288  -1.035  0.00  0.00    -0.271 OA
HETATM    3  O   UNK N   1       3.511  -3.870   0.708  0.00  0.00    -0.246 OA
HETATM    4  N   UNK N   1       2.162  -2.110   0.373  0.00  0.00    -0.273 N 
HETATM    5  N   UNK N   1       4.476  -2.056  -0.130  0.00  0.00    -0.277 N 
HETATM    6  C   UNK N   1       1.980  -0.827  -0.060  0.00  0.00     0.249 A 
HETATM    7  C   UNK N   1       4.433  -0.788  -0.600  0.00  0.00     0.247 A 
HETATM    8  C   UNK N   1       3.385  -2.714   0.333  0.00  0.00     0.331 A 
HETATM    9  C   UNK N   1       1.022  -2.860   0.862  0.00  0.00     0.164 C 
HETATM   10  C   UNK N   1       3.129   0.002  -0.633  0.00  0.00     0.142 A 
HETATM   11  C   UNK N   1       2.799   0.271  -2.095  0.00  0.00     0.041 C 
HETATM   12  H   UNK N   1       5.342  -2.524  -0.124  0.00  0.00     0.173 HD
ENDROOT
BRANCH  10  13
HETATM   13  C   UNK N   1       3.231   1.375   0.055  0.00  0.00    -0.057 C 
HETATM   14  C   UNK N   1       4.425   1.894   0.419  0.00  0.00    -0.022 C 
HETATM   15  C   UNK N   1       4.605   3.319   0.898  0.00  0.00     0.027 C 
HETATM   16  C   UNK N   1       3.323   4.166   0.905  0.00  0.00     0.004 C 
HETATM   17  C   UNK N   1       2.316   3.691  -0.132  0.00  0.00     0.005 C 
HETATM   18  C   UNK N   1       1.994   2.239   0.165  0.00  0.00     0.036 C 
ENDBRANCH  10  13
TORSDOF 1
