REMARK  1 active torsions:
REMARK  status: ('A' for Active; 'I' for Inactive)
REMARK    1  A    between atoms: C_20  and  O_22 
ROOT
HETATM    1  C   UNK N   1      13.091 -14.674  -0.634  0.00  0.00     0.009 C 
HETATM    2  C   UNK N   1      10.411 -16.288  -0.295  0.00  0.00     0.010 C 
HETATM    3  C   UNK N   1      10.824 -12.128   0.970  0.00  0.00     0.013 C 
HETATM    4  C   UNK N   1      14.117 -13.560  -0.324  0.00  0.00     0.038 C 
HETATM    5  C   UNK N   1       9.440 -12.598   0.487  0.00  0.00     0.007 C 
HETATM    6  C   UNK N   1       6.832 -14.091   0.774  0.00  0.00     0.022 C 
HETATM    7  C   UNK N   1       6.685 -16.694  -0.398  0.00  0.00     0.053 C 
HETATM    8  C   UNK N   1      10.480 -14.764  -0.431  0.00  0.00    -0.004 C 
HETATM    9  C   UNK N   1       9.327 -14.142   0.409  0.00  0.00     0.002 C 
HETATM   10  C   UNK N   1      11.908 -12.720   0.067  0.00  0.00    -0.009 C 
HETATM   11  C   UNK N   1      11.711 -12.169  -1.362  0.00  0.00     0.018 C 
HETATM   12  C   UNK N   1      11.825 -14.246   0.103  0.00  0.00     0.001 C 
HETATM   13  C   UNK N   1       7.950 -14.569  -0.169  0.00  0.00    -0.016 C 
HETATM   14  C   UNK N   1       7.737 -13.943  -1.551  0.00  0.00     0.020 C 
HETATM   15  C   UNK N   1       5.437 -14.535   0.323  0.00  0.00     0.084 C 
HETATM   16  C   UNK N   1       5.424 -15.960  -0.156  0.00  0.00     0.149 C 
HETATM   17  O   UNK N   1       4.358 -16.506  -0.385  0.00  0.00    -0.293 OA
HETATM   18  C   UNK N   1       7.879 -16.085  -0.316  0.00  0.00    -0.068 C 
HETATM   19  C   UNK N   1       9.082 -16.862  -0.786  0.00  0.00     0.035 C 
HETATM   20  C   UNK N   1      13.367 -12.501   0.497  0.00  0.00     0.062 C 
HETATM   21  C   UNK N   1      13.604 -12.779   1.981  0.00  0.00     0.046 C 
ENDROOT
BRANCH  20  22
HETATM   22  O   UNK N   1      13.818 -11.210   0.207  0.00  0.00    -0.389 OA
HETATM   23  H   UNK N   1      14.750 -11.034   0.006  0.00  0.00     0.210 HD
ENDBRANCH  20  22
TORSDOF 1
