REMARK  5 active torsions:
REMARK  status: ('A' for Active; 'I' for Inactive)
REMARK    1  A    between atoms: O_1  and  C_15 
REMARK    2  A    between atoms: N_4  and  C_11 
REMARK       I    between atoms: N_4  and  C_20 
REMARK    3  A    between atoms: C_6  and  C_8 
REMARK    4  A    between atoms: C_7  and  C_9 
REMARK    5  A    between atoms: C_20  and  C_21 
ROOT
HETATM    1  C   UNK N   1       2.586   0.484  -0.090  0.00  0.00    -0.023 A 
HETATM    2  C   UNK N   1       1.187  -1.525   0.105  0.00  0.00    -0.017 A 
HETATM    3  C   UNK N   1       1.333  -0.128   0.050  0.00  0.00     0.021 A 
HETATM    4  C   UNK N   1       3.731  -0.336  -0.141  0.00  0.00     0.044 A 
HETATM    5  C   UNK N   1       2.346  -2.330  -0.053  0.00  0.00     0.074 A 
HETATM    6  C   UNK N   1       3.596  -1.727  -0.155  0.00  0.00     0.067 A 
ENDROOT
BRANCH   4   7
HETATM    7  N   UNK N   1       5.005   0.282  -0.115  0.00  0.00    -0.322 N 
HETATM    8  C   UNK N   1       6.201  -0.309   0.142  0.00  0.00     0.261 C 
HETATM    9  O   UNK N   1       6.281  -1.509   0.350  0.00  0.00    -0.267 OA
HETATM   10  H   UNK N   1       5.027   1.248  -0.303  0.00  0.00     0.169 HD
BRANCH   8  11
HETATM   11  C   UNK N   1       7.400   0.556   0.171  0.00  0.00     0.098 A 
HETATM   12  C   UNK N   1       8.712   0.040   0.212  0.00  0.00     0.201 A 
HETATM   13  O   UNK N   1       8.908  -1.161   0.260  0.00  0.00    -0.286 OA
HETATM   14  C   UNK N   1       9.795   0.934   0.154  0.00  0.00     0.042 A 
HETATM   15  C   UNK N   1       9.546   2.324   0.090  0.00  0.00     0.046 A 
HETATM   16  C   UNK N   1      11.118   0.470   0.127  0.00  0.00     0.018 A 
HETATM   17  N   UNK N   1       8.273   2.790   0.091  0.00  0.00    -0.364 N 
HETATM   18  C   UNK N   1      10.609   3.223   0.003  0.00  0.00     0.030 A 
HETATM   19  C   UNK N   1       7.215   1.943   0.118  0.00  0.00     0.109 A 
HETATM   20  H   UNK N   1       8.114   3.761   0.072  0.00  0.00     0.165 HD
HETATM   21  C   UNK N   1      11.922   2.750  -0.034  0.00  0.00     0.002 A 
HETATM   22  C   UNK N   1      12.176   1.377   0.028  0.00  0.00     0.001 A 
ENDBRANCH   8  11
ENDBRANCH   4   7
BRANCH   1  23
HETATM   23  C   UNK N   1       2.706   2.008  -0.135  0.00  0.00    -0.022 C 
HETATM   24  C   UNK N   1       3.379   2.440  -1.430  0.00  0.00     0.019 C 
HETATM   25  C   UNK N   1       1.358   2.710  -0.075  0.00  0.00     0.019 C 
HETATM   26  C   UNK N   1       3.532   2.513   1.036  0.00  0.00     0.019 C 
ENDBRANCH   1  23
BRANCH   5  27
HETATM   27  O   UNK N   1       2.286  -3.672  -0.059  0.00  0.00    -0.360 OA
HETATM   28  H   UNK N   1       1.454  -4.103  -0.064  0.00  0.00     0.217 HD
ENDBRANCH   5  27
BRANCH   2  29
HETATM   29  C   UNK N   1      -0.207  -2.075   0.396  0.00  0.00    -0.021 C 
HETATM   30  C   UNK N   1      -0.631  -1.576   1.769  0.00  0.00     0.019 C 
HETATM   31  C   UNK N   1      -1.204  -1.566  -0.628  0.00  0.00     0.019 C 
HETATM   32  C   UNK N   1      -0.321  -3.590   0.431  0.00  0.00     0.019 C 
ENDBRANCH   2  29
TORSDOF 5
