REMARK  5 active torsions:
REMARK  status: ('A' for Active; 'I' for Inactive)
REMARK    1  A    between atoms: O_1  and  C_2 
REMARK    2  A    between atoms: C_4  and  O_1 
REMARK    3  A    between atoms: C_12  and  N_14 
REMARK    4  A    between atoms: C_16  and  N_17 
REMARK    5  A    between atoms: N_17  and  S_18 
ROOT
HETATM    1  C   UNK N   1       0.476   0.333  -0.092  0.00  0.00     0.105 A 
HETATM    2  C   UNK N   1       0.540  -1.059   0.081  0.00  0.00     0.075 A 
HETATM    3  C   UNK N   1       2.951  -0.992   0.043  0.00  0.00     0.038 A 
HETATM    4  C   UNK N   1       2.905   0.395  -0.113  0.00  0.00     0.035 A 
HETATM    5  C   UNK N   1       1.766  -1.727   0.153  0.00  0.00     0.105 A 
HETATM    6  C   UNK N   1       1.673   1.064  -0.176  0.00  0.00     0.076 A 
ENDROOT
BRANCH   1   7
HETATM    7  O   UNK N   1      -0.716   0.996  -0.111  0.00  0.00    -0.308 OA
BRANCH   7   8
HETATM    8  C   UNK N   1      -1.966   0.456  -0.158  0.00  0.00     0.076 A 
HETATM    9  C   UNK N   1      -2.198  -0.868  -0.575  0.00  0.00     0.037 A 
HETATM   10  C   UNK N   1      -3.493  -1.388  -0.603  0.00  0.00     0.003 A 
HETATM   11  C   UNK N   1      -4.571  -0.591  -0.213  0.00  0.00     0.000 A 
HETATM   12  C   UNK N   1      -4.353   0.728   0.193  0.00  0.00     0.003 A 
HETATM   13  C   UNK N   1      -3.056   1.250   0.215  0.00  0.00     0.037 A 
ENDBRANCH   7   8
ENDBRANCH   1   7
BRANCH   6  14
HETATM   14  N   UNK N   1       1.625   2.477  -0.279  0.00  0.00    -0.282 N 
HETATM   15  H   UNK N   1       0.798   2.905  -0.598  0.00  0.00     0.178 HD
BRANCH  14  16
HETATM   16  S   UNK N   1       2.997   3.487   0.148  0.00  0.00     0.227 S 
HETATM   17  O   UNK N   1       2.462   4.923   0.054  0.00  0.00    -0.206 OA
HETATM   18  C   UNK N   1       4.572   3.250  -0.722  0.00  0.00     0.186 C 
HETATM   19  O   UNK N   1       3.126   3.306   1.668  0.00  0.00    -0.206 OA
ENDBRANCH  14  16
ENDBRANCH   6  14
BRANCH   5  20
HETATM   20  N   UNK N   1       1.802  -3.133   0.366  0.00  0.00    -0.116 N 
HETATM   21  O   UNK N   1       2.957  -3.763   0.435  0.00  0.00    -0.532 OA
HETATM   22  O   UNK N   1       0.789  -3.746   0.519  0.00  0.00    -0.532 OA
ENDBRANCH   5  20
TORSDOF 5
