REMARK  10 active torsions:
REMARK  status: ('A' for Active; 'I' for Inactive)
REMARK    1  A    between atoms: N_2  and  C_5 
REMARK    2  A    between atoms: C_5  and  C_6 
REMARK    3  A    between atoms: C_6  and  O_7 
REMARK    4  A    between atoms: C_11  and  O_17 
REMARK    5  A    between atoms: C_12  and  C_14 
REMARK    6  A    between atoms: C_21  and  O_27 
REMARK    7  A    between atoms: C_22  and  C_24 
REMARK    8  A    between atoms: Mg_28  and  Mg_28 
REMARK    9  A    between atoms: C_32  and  O_38 
REMARK   10  A    between atoms: C_33  and  C_35 
ROOT
HETATM    1 Mg   UNK N   1       2.986  -3.796  -2.039  0.00  0.00     0.000 Mg
ENDROOT
TORSDOF 10
