REMARK  1 active torsions:
REMARK  status: ('A' for Active; 'I' for Inactive)
REMARK    1  A    between atoms: C_1  and  O_4 
ROOT
HETATM    1  C   UNK N   1      -0.107  -0.200   0.000  0.00  0.00     0.135 C 
HETATM    2  C   UNK N   1      -1.371  -0.987   0.000  0.00  0.00     0.125 C 
HETATM    3  O   UNK N   1      -0.145   1.020   0.000  0.00  0.00    -0.650 OA
ENDROOT
BRANCH   1   4
HETATM    4  O   UNK N   1       1.078  -0.836   0.000  0.00  0.00    -0.777 OA
HETATM    5  H   UNK N   1       1.107  -1.772   0.000  0.00  0.00     0.167 HD
ENDBRANCH   1   4
TORSDOF 1
