REMARK  2 active torsions:
REMARK  status: ('A' for Active; 'I' for Inactive)
REMARK    1  A    between atoms: O_1  and  C_2 
REMARK    2  A    between atoms: C_2  and  C_4 
ROOT
HETATM    1  C   UNK N   1       0.639   1.563  -0.000  0.00  0.00     0.037 A 
HETATM    2  C   UNK N   1       1.877   0.902   0.000  0.00  0.00     0.018 A 
HETATM    3  C   UNK N   1       1.933  -0.494   0.000  0.00  0.00     0.001 A 
HETATM    4  C   UNK N   1       0.753  -1.241  -0.000  0.00  0.00     0.000 A 
HETATM    5  C   UNK N   1      -0.485  -0.591  -0.000  0.00  0.00     0.001 A 
HETATM    6  C   UNK N   1      -0.543   0.808  -0.000  0.00  0.00     0.018 A 
ENDROOT
BRANCH   1   7
HETATM    7  C   UNK N   1       0.598   3.040   0.000  0.00  0.00     0.176 C 
HETATM    8  O   UNK N   1       1.634   3.683  -0.000  0.00  0.00    -0.646 OA
BRANCH   7   9
HETATM    9  O   UNK N   1      -0.585   3.690   0.000  0.00  0.00    -0.773 OA
HETATM   10  H   UNK N   1      -0.605   4.626   0.000  0.00  0.00     0.167 HD
ENDBRANCH   7   9
ENDBRANCH   1   7
TORSDOF 2
