REMARK  8 active torsions:
REMARK  status: ('A' for Active; 'I' for Inactive)
REMARK    1  A    between atoms: C_3  and  O_4 
REMARK    2  A    between atoms: C_8  and  O_9 
REMARK    3  A    between atoms: C_14  and  O_15 
REMARK    4  A    between atoms: C_20  and  C_23 
REMARK    5  A    between atoms: C_23  and  C_25 
REMARK    6  A    between atoms: C_25  and  C_26 
REMARK    7  A    between atoms: C_26  and  C_28 
REMARK    8  A    between atoms: C_28  and  O_29 
ROOT
HETATM    1  C   UNK N   1       3.269   0.053  -1.332  0.00  0.00     0.012 C 
HETATM    2  C   UNK N   1       4.685   0.354  -1.885  0.00  0.00     0.032 C 
HETATM    3  C   UNK N   1       5.642   1.111  -0.945  0.00  0.00     0.118 C 
HETATM    4  C   UNK N   1       4.929   2.230  -0.186  0.00  0.00     0.037 C 
HETATM    5  C   UNK N   1       3.531   1.891   0.364  0.00  0.00    -0.001 C 
HETATM    6  C   UNK N   1       2.553   2.839  -0.336  0.00  0.00     0.037 C 
HETATM    7  C   UNK N   1       1.150   2.717   0.249  0.00  0.00     0.123 C 
HETATM    8  C   UNK N   1       0.589   1.280   0.078  0.00  0.00     0.024 C 
HETATM    9  C   UNK N   1       1.601   0.254   0.641  0.00  0.00     0.003 C 
HETATM   10  C   UNK N   1       3.075   0.416   0.149  0.00  0.00    -0.036 C 
HETATM   11  C   UNK N   1       1.038  -1.153   0.373  0.00  0.00     0.038 C 
HETATM   12  C   UNK N   1      -0.226  -1.361   1.204  0.00  0.00     0.127 C 
HETATM   13  C   UNK N   1      -1.345  -0.306   0.916  0.00  0.00    -0.010 C 
HETATM   14  C   UNK N   1      -0.747   1.124   0.889  0.00  0.00     0.003 C 
HETATM   15  C   UNK N   1      -1.861   1.981   0.300  0.00  0.00     0.006 C 
HETATM   16  C   UNK N   1      -2.735   1.047  -0.531  0.00  0.00     0.006 C 
HETATM   17  C   UNK N   1      -2.149  -0.366  -0.424  0.00  0.00     0.000 C 
HETATM   18  C   UNK N   1      -2.337  -0.372   2.091  0.00  0.00     0.018 C 
HETATM   19  C   UNK N   1       3.910  -0.542   1.001  0.00  0.00     0.016 C 
ENDROOT
BRANCH  17  20
HETATM   20  C   UNK N   1      -3.305  -1.425  -0.504  0.00  0.00    -0.013 C 
HETATM   21  C   UNK N   1      -2.779  -2.840  -0.588  0.00  0.00     0.010 C 
BRANCH  20  22
HETATM   22  C   UNK N   1      -4.220  -1.252  -1.725  0.00  0.00     0.015 C 
BRANCH  22  23
HETATM   23  C   UNK N   1      -5.397  -0.299  -1.487  0.00  0.00     0.110 C 
BRANCH  23  24
HETATM   24  C   UNK N   1      -6.404  -0.880  -0.535  0.00  0.00     0.139 C 
HETATM   25  O   UNK N   1      -6.939  -1.951  -0.780  0.00  0.00    -0.650 OA
BRANCH  24  26
HETATM   26  O   UNK N   1      -6.725  -0.215   0.590  0.00  0.00    -0.776 OA
HETATM   27  H   UNK N   1      -6.436   0.209   1.374  0.00  0.00     0.167 HD
ENDBRANCH  24  26
ENDBRANCH  23  24
ENDBRANCH  22  23
ENDBRANCH  20  22
ENDBRANCH  17  20
BRANCH  12  28
HETATM   28  O   UNK N   1      -0.671  -2.671   1.060  0.00  0.00    -0.395 OA
HETATM   29  H   UNK N   1      -1.618  -2.859   0.960  0.00  0.00     0.210 HD
ENDBRANCH  12  28
BRANCH   7  30
HETATM   30  O   UNK N   1       0.325   3.648  -0.383  0.00  0.00    -0.395 OA
HETATM   31  H   UNK N   1       0.599   4.469  -0.823  0.00  0.00     0.210 HD
ENDBRANCH   7  30
BRANCH   3  32
HETATM   32  O   UNK N   1       6.260   0.241  -0.046  0.00  0.00    -0.396 OA
HETATM   33  H   UNK N   1       5.950  -0.434   0.579  0.00  0.00     0.210 HD
ENDBRANCH   3  32
TORSDOF 8
