REMARK  8 active torsions:
REMARK  status: ('A' for Active; 'I' for Inactive)
REMARK    1  A    between atoms: C_6  and  S_7 
REMARK    2  A    between atoms: C_10  and  S_7 
REMARK    3  A    between atoms: C_10  and  C_11 
REMARK    4  A    between atoms: C_11  and  N_12 
REMARK    5  A    between atoms: C_13  and  N_12 
REMARK    6  A    between atoms: C_15  and  N_12 
REMARK    7  A    between atoms: C_28  and  O_29 
REMARK    8  A    between atoms: C_43  and  C_44 
ROOT
HETATM    1  O   UNK N   1      -1.167  -0.659   0.037  0.00  0.00    -0.266 OA
HETATM    2  C   UNK N   1      -1.203   0.563   0.025  0.00  0.00     0.273 C 
HETATM    3  N   UNK N   1      -0.061   1.258  -0.265  0.00  0.00    -0.331 N 
HETATM    4  C   UNK N   1      -0.031   2.684  -0.419  0.00  0.00     0.128 C 
HETATM    5  C   UNK N   1       0.969   2.904  -1.540  0.00  0.00     0.042 C 
HETATM    6  C   UNK N   1       1.923   1.713  -1.474  0.00  0.00     0.142 C 
HETATM    7  C   UNK N   1       1.080   0.584  -0.848  0.00  0.00     0.205 C 
HETATM    8  C   UNK N   1      -2.530   1.199   0.178  0.00  0.00     0.125 A 
HETATM    9  C   UNK N   1      -2.880   2.538   0.275  0.00  0.00     0.179 A 
HETATM   10  O   UNK N   1      -4.198   2.583   0.281  0.00  0.00    -0.307 OA
HETATM   11  N   UNK N   1      -3.647   0.464   0.107  0.00  0.00    -0.334 N 
ATOM     12  HN  UNK N   1      -3.720  -0.550   0.023  1.00  0.00     0.168 HD
HETATM   13  C   UNK N   1      -4.646   1.351   0.172  0.00  0.00     0.130 A 
HETATM   14  C   UNK N   1      -6.084   0.944   0.122  0.00  0.00     0.162 C 
HETATM   15  C   UNK N   1      -6.333  -0.226   1.039  0.00  0.00     0.137 C 
HETATM   16  O   UNK N   1      -5.630  -0.401   2.023  0.00  0.00    -0.297 OA
HETATM   17  C   UNK N   1      -7.473  -1.161   0.778  0.00  0.00     0.114 C 
HETATM   18  C   UNK N   1      -7.078  -2.593   0.380  0.00  0.00     0.148 C 
HETATM   19  C   UNK N   1      -5.800  -3.185   0.944  0.00  0.00     0.011 C 
HETATM   20  C   UNK N   1      -4.602  -3.159   0.330  0.00  0.00    -0.064 C 
HETATM   21  C   UNK N   1      -4.453  -2.503  -1.012  0.00  0.00     0.048 C 
HETATM   22  C   UNK N   1      -3.459  -3.848   0.993  0.00  0.00     0.004 C 
HETATM   23  C   UNK N   1      -2.209  -3.987   0.510  0.00  0.00    -0.007 C 
HETATM   24  C   UNK N   1      -1.758  -3.402  -0.794  0.00  0.00     0.150 C 
HETATM   25  N   UNK N   1      -0.510  -3.955  -1.271  0.00  0.00    -0.354 N 
HETATM   26  C   UNK N   1       0.660  -3.861  -0.597  0.00  0.00     0.241 C 
HETATM   27  O   UNK N   1       0.690  -3.378   0.526  0.00  0.00    -0.269 OA
HETATM   28  C   UNK N   1       1.905  -4.300  -1.273  0.00  0.00     0.070 C 
HETATM   29  C   UNK N   1       3.150  -4.057  -0.831  0.00  0.00    -0.014 C 
HETATM   30  C   UNK N   1       3.434  -3.321   0.446  0.00  0.00     0.034 C 
HETATM   31  C   UNK N   1       4.472  -4.062   1.269  0.00  0.00     0.017 C 
HETATM   32  C   UNK N   1       3.746  -1.819   0.270  0.00  0.00     0.142 C 
HETATM   33  O   UNK N   1       2.778  -1.180  -0.479  0.00  0.00    -0.313 OA
HETATM   34  C   UNK N   1       1.827  -0.372   0.061  0.00  0.00     0.283 C 
HETATM   35  O   UNK N   1       1.566  -0.428   1.256  0.00  0.00    -0.263 OA
HETATM   36  H   UNK N   1      -0.512  -4.426  -2.136  0.00  0.00     0.163 HD
ENDROOT
BRANCH   6  37
HETATM   37  S   UNK N   1       3.440   2.232  -0.593  0.00  0.00     0.152 S 
HETATM   38  O   UNK N   1       3.458   1.863   0.899  0.00  0.00    -0.227 OA
HETATM   39  O   UNK N   1       4.370   1.113  -1.069  0.00  0.00    -0.227 OA
BRANCH  37  40
HETATM   40  C   UNK N   1       4.562   3.610  -0.959  0.00  0.00     0.171 C 
BRANCH  40  41
HETATM   41  C   UNK N   1       3.896   4.981  -0.817  0.00  0.00     0.287 C 
BRANCH  41  42
HETATM   42  N   UNK N   1       3.600   5.407   0.563  0.00  0.00     0.088 N 
BRANCH  42  43
HETATM   43  C   UNK N   1       2.236   5.029   0.903  0.00  0.00     0.268 C 
HETATM   44  C   UNK N   1       1.253   6.017   0.298  0.00  0.00     0.037 C 
ENDBRANCH  42  43
BRANCH  42  45
HETATM   45  C   UNK N   1       4.499   4.838   1.567  0.00  0.00     0.268 C 
HETATM   46  C   UNK N   1       5.887   5.445   1.453  0.00  0.00     0.037 C 
ENDBRANCH  42  45
ENDBRANCH  41  42
ENDBRANCH  40  41
ENDBRANCH  37  40
ENDBRANCH   6  37
BRANCH  32  47
HETATM   47  C   UNK N   1       5.131  -1.467  -0.293  0.00  0.00     0.008 C 
HETATM   48  C   UNK N   1       6.221  -1.517   0.756  0.00  0.00     0.012 C 
HETATM   49  C   UNK N   1       5.521  -2.235  -1.545  0.00  0.00     0.012 C 
ENDBRANCH  32  47
BRANCH  18  50
HETATM   50  O   UNK N   1      -7.236  -2.828  -0.987  0.00  0.00    -0.391 OA
HETATM   51  H   UNK N   1      -7.433  -2.815  -1.937  0.00  0.00     0.210 HD
ENDBRANCH  18  50
TORSDOF 8
