REMARK  6 active torsions:
REMARK  status: ('A' for Active; 'I' for Inactive)
REMARK    1  A    between atoms: C_2  and  C_1 
REMARK    2  A    between atoms: C_4  and  C_1 
REMARK    3  A    between atoms: C_4  and  C_3 
REMARK    4  A    between atoms: C_3  and  O_9 
REMARK    5  A    between atoms: O_7  and  N_5 
REMARK    6  A    between atoms: O_9  and  N_5 
ROOT
HETATM    1  C   UNK N   1       0.108   0.504   0.000  0.00  0.00     0.203 C 
ENDROOT
BRANCH   1   2
HETATM    2  C   UNK N   1      -1.081  -0.424   0.000  0.00  0.00     0.029 C 
BRANCH   2   3
HETATM    3  C   UNK N   1      -2.326   0.427  -0.000  0.00  0.00     0.002 C 
BRANCH   3   4
HETATM    4  C   UNK N   1      -3.552  -0.452  -0.000  0.00  0.00    -0.004 C 
HETATM    5  C   UNK N   1      -4.774   0.437   0.000  0.00  0.00     0.005 C 
ENDBRANCH   3   4
ENDBRANCH   2   3
ENDBRANCH   1   2
BRANCH   1   6
HETATM    6  O   UNK N   1       1.261  -0.230  -0.000  0.00  0.00    -0.260 OA
BRANCH   6   7
HETATM    7  N   UNK N   1       2.421   0.384  -0.000  0.00  0.00    -0.174 N 
ATOM      8  HN  UNK N   1       2.459   1.404  -0.000  1.00  0.00     0.223 HD
BRANCH   7   9
HETATM    9  O   UNK N   1       3.432  -0.251   0.000  0.00  0.00    -0.269 OA
ATOM     10  HO  UNK N   1       4.271   0.193   0.000  1.00  0.00     0.246 HD
ENDBRANCH   7   9
ENDBRANCH   6   7
ENDBRANCH   1   6
TORSDOF 6
