REMARK  5 active torsions:
REMARK  status: ('A' for Active; 'I' for Inactive)
REMARK    1  A    between atoms: C_4  and  O_10 
REMARK    2  A    between atoms: C_5  and  C_7 
REMARK    3  A    between atoms: C_14  and  O_20 
REMARK    4  A    between atoms: C_15  and  C_17 
REMARK    5  A    between atoms: Mg_21  and  Mg_21 
ROOT
HETATM    1 Mg   UNK N   1      -1.344  -4.694   0.071  0.00  0.00     0.000 Mg
ENDROOT
TORSDOF 5
