REMARK  4 active torsions:
REMARK  status: ('A' for Active; 'I' for Inactive)
REMARK    1  A    between atoms: C_15  and  C_19 
REMARK    2  A    between atoms: C_16  and  C_18 
REMARK    3  A    between atoms: C_17  and  O_20 
REMARK    4  A    between atoms: C_21  and  O_23 
ROOT
HETATM    1  C   UNK N   1      10.068  -9.651  -0.953  0.00  0.00     0.001 A 
HETATM    2  C   UNK N   1      10.106 -11.060  -0.917  0.00  0.00     0.002 A 
HETATM    3  C   UNK N   1      11.290 -11.729  -0.568  0.00  0.00     0.030 A 
HETATM    4  C   UNK N   1      12.408 -10.959  -0.251  0.00  0.00     0.037 A 
HETATM    5  C   UNK N   1      12.373  -9.582  -0.266  0.00  0.00    -0.018 A 
HETATM    6  C   UNK N   1      11.214  -8.900  -0.640  0.00  0.00     0.010 A 
HETATM    7  N   UNK N   1      13.673 -11.423   0.122  0.00  0.00    -0.377 N 
HETATM    8  C   UNK N   1      14.399 -10.305   0.652  0.00  0.00     0.133 C 
HETATM    9  C   UNK N   1      13.746  -9.035   0.024  0.00  0.00     0.040 C 
HETATM   10  C   UNK N   1      15.921 -10.270   0.740  0.00  0.00     0.251 C 
HETATM   11  N   UNK N   1      16.291  -8.974   1.408  0.00  0.00     0.129 N 
HETATM   12  C   UNK N   1      15.578  -7.827   0.766  0.00  0.00     0.235 C 
HETATM   13  C   UNK N   1      14.056  -7.944   1.011  0.00  0.00     0.055 C 
HETATM   14  C   UNK N   1      16.499 -10.346  -0.688  0.00  0.00     0.043 C 
HETATM   15  C   UNK N   1      16.911  -8.930  -1.113  0.00  0.00     0.005 C 
HETATM   16  C   UNK N   1      18.112  -8.534  -0.232  0.00  0.00     0.049 C 
HETATM   17  C   UNK N   1      17.744  -8.756   1.255  0.00  0.00     0.362 C 
HETATM   18  C   UNK N   1      15.748  -7.945  -0.780  0.00  0.00     0.053 C 
HETATM   19  C   UNK N   1      14.411  -8.511  -1.265  0.00  0.00     0.140 C 
HETATM   20  C   UNK N   1      13.962 -12.796   0.445  0.00  0.00     0.150 C 
ENDROOT
BRANCH  16  21
HETATM   21  C   UNK N   1      19.433  -9.223  -0.599  0.00  0.00     0.005 C 
HETATM   22  C   UNK N   1      19.468 -10.704  -0.238  0.00  0.00     0.005 C 
ENDBRANCH  16  21
BRANCH  17  23
HETATM   23  O   UNK N   1      18.170  -7.669   2.023  0.00  0.00    -0.367 OA
HETATM   24  H   UNK N   1      18.971  -7.548   2.556  0.00  0.00     0.212 HD
ENDBRANCH  17  23
BRANCH  19  25
HETATM   25  O   UNK N   1      13.656  -7.460  -1.797  0.00  0.00    -0.394 OA
HETATM   26  H   UNK N   1      14.026  -6.643  -2.166  0.00  0.00     0.210 HD
ENDBRANCH  19  25
TORSDOF 4
