REMARK  9 active torsions:
REMARK  status: ('A' for Active; 'I' for Inactive)
REMARK    1  A    between atoms: C_22  and  C_15 
REMARK    2  A    between atoms: C_30  and  C_19 
REMARK    3  A    between atoms: N_31  and  C_21 
REMARK    4  A    between atoms: C_22  and  S_36 
REMARK    5  A    between atoms: C_29  and  C_24 
REMARK    6  A    between atoms: O_35  and  C_25 
REMARK    7  A    between atoms: C_29  and  C_26 
REMARK    8  A    between atoms: C_30  and  C_26 
REMARK    9  A    between atoms: C_28  and  C_27 
ROOT
HETATM    1  C   UNK N   1       3.686   0.484   0.000  0.00  0.00     0.008 A 
HETATM    2  C   UNK N   1       0.876  -2.412   0.000  0.00  0.00     0.011 A 
HETATM    3  C   UNK N   1       1.874   0.310   0.000  0.00  0.00     0.013 A 
HETATM    4  C   UNK N   1       4.308  -1.368   0.000  0.00  0.00     0.022 A 
HETATM    5  C   UNK N   1       1.682  -2.128   0.000  0.00  0.00     0.019 A 
HETATM    6  C   UNK N   1       5.170  -6.482   0.000  0.00  0.00     0.144 A 
HETATM    7  C   UNK N   1       4.055  -0.254   0.000  0.00  0.00    -0.025 A 
HETATM    8  C   UNK N   1       5.627  -4.564   0.000  0.00  0.00     0.027 A 
HETATM    9  C   UNK N   1       6.353  -4.586   0.000  0.00  0.00     0.027 A 
HETATM   10  C   UNK N   1       0.114  -1.147   0.000  0.00  0.00     0.006 A 
HETATM   11  C   UNK N   1       0.326  -0.190   0.000  0.00  0.00     0.079 A 
HETATM   12  C   UNK N   1       0.579  -0.636   0.000  0.00  0.00     0.011 A 
HETATM   13  C   UNK N   1       0.629  -0.958   0.000  0.00  0.00     0.018 A 
HETATM   14  C   UNK N   1       4.185  -4.490   0.000  0.00  0.00     0.040 A 
HETATM   15  C   UNK N   1       4.714  -4.370   0.000  0.00  0.00     0.040 A 
HETATM   16  C   UNK N   1       3.354  -1.395   0.000  0.00  0.00     0.049 A 
HETATM   17  C   UNK N   1       3.868  -2.455   0.000  0.00  0.00     0.185 A 
HETATM   18  C   UNK N   1       0.926  -1.588   0.000  0.00  0.00    -0.007 A 
HETATM   19  C   UNK N   1       2.090  -0.487   0.000  0.00  0.00     0.021 A 
HETATM   20  C   UNK N   1       4.972  -4.983   0.000  0.00  0.00     0.080 A 
HETATM   21  C   UNK N   1       5.529  -4.900   0.000  0.00  0.00     0.080 A 
HETATM   22  C   UNK N   1       4.515  -3.729   0.000  0.00  0.00     0.051 A 
HETATM   23  C   UNK N   1       0.962   0.335   0.000  0.00  0.00     0.132 A 
HETATM   24  C   UNK N   1       2.486  -1.554   0.000  0.00  0.00     0.142 A 
HETATM   25  C   UNK N   1       3.132  -2.829   0.000  0.00  0.00     0.268 A 
HETATM   26  C   UNK N   1       1.658  -0.107   0.000  0.00  0.00     0.075 A 
HETATM   27  C   UNK N   1       3.038  -0.538   0.000  0.00  0.00     0.134 A 
HETATM   28  C   UNK N   1       3.601  -0.943   0.000  0.00  0.00     0.002 A 
HETATM   29  C   UNK N   1       1.646  -1.304   0.000  0.00  0.00    -0.003 A 
HETATM   30  C   UNK N   1       1.453  -0.906   0.000  0.00  0.00    -0.023 A 
HETATM   31  N   UNK N   1       5.202  -5.658   0.000  0.00  0.00    -0.408 N 
HETATM   32  O   UNK N   1       0.911   1.159   0.000  0.00  0.00    -0.298 OA
HETATM   33  O   UNK N   1       3.088  -3.652   0.000  0.00  0.00    -0.264 OA
HETATM   34  O   UNK N   1       3.312   0.240   0.000  0.00  0.00    -0.394 OA
HETATM   35  O   UNK N   1       2.441  -2.378   0.000  0.00  0.00    -0.315 OA
HETATM   36  S   UNK N   1       4.559  -2.906   0.000  0.00  0.00    -0.154 SA
HETATM   37  H   UNK N   1       4.266   0.419   0.000  0.00  0.00     0.210 HD
ENDROOT
TORSDOF 9
