REMARK  5 active torsions:
REMARK  status: ('A' for Active; 'I' for Inactive)
REMARK    1  A    between atoms: N_3  and  C_5 
REMARK    2  A    between atoms: N_4  and  C_9 
REMARK    3  A    between atoms: C_5  and  C_6 
REMARK    4  A    between atoms: C_6  and  C_9 
REMARK    5  A    between atoms: C_14  and  C_22 
ROOT
HETATM    1  S   UNK N   1       3.441  -3.867  -0.001  0.00  0.00    -0.086 SA
HETATM    2  N   UNK N   1       3.472  -0.666   0.172  0.00  0.00    -0.345 N 
HETATM    3  C   UNK N   1       4.728  -1.351   0.101  0.00  0.00     0.053 A 
HETATM    4  C   UNK N   1       2.200  -1.325   0.052  0.00  0.00     0.052 A 
HETATM    5  C   UNK N   1       4.836  -2.753  -0.001  0.00  0.00     0.032 A 
HETATM    6  C   UNK N   1       2.069  -2.726  -0.058  0.00  0.00     0.032 A 
HETATM    7  C   UNK N   1       5.914  -0.588   0.104  0.00  0.00     0.046 A 
HETATM    8  C   UNK N   1       1.024  -0.544   0.030  0.00  0.00     0.031 A 
HETATM    9  C   UNK N   1       7.173  -1.183   0.006  0.00  0.00     0.011 A 
HETATM   10  C   UNK N   1       6.101  -3.346  -0.092  0.00  0.00     0.022 A 
HETATM   11  C   UNK N   1       0.797  -3.298  -0.196  0.00  0.00     0.021 A 
HETATM   12  C   UNK N   1       7.260  -2.572  -0.093  0.00  0.00     0.016 A 
HETATM   13  C   UNK N   1      -0.235  -1.125  -0.110  0.00  0.00     0.002 A 
HETATM   14  C   UNK N   1      -0.348  -2.505  -0.228  0.00  0.00     0.002 A 
ENDROOT
BRANCH   2  15
HETATM   15  C   UNK N   1       3.502   0.779   0.315  0.00  0.00     0.131 C 
BRANCH  15  16
HETATM   16  C   UNK N   1       3.149   1.449  -1.005  0.00  0.00     0.050 C 
BRANCH  16  17
HETATM   17  C   UNK N   1       2.907   2.941  -0.808  0.00  0.00     0.273 C 
BRANCH  17  18
HETATM   18  N   UNK N   1       1.943   3.192   0.259  0.00  0.00     0.080 N 
HETATM   19  C   UNK N   1       1.870   4.630   0.434  0.00  0.00     0.309 C 
HETATM   20  C   UNK N   1       0.626   2.753  -0.174  0.00  0.00     0.309 C 
ENDBRANCH  17  18
ENDBRANCH  16  17
ENDBRANCH  15  16
ENDBRANCH   2  15
BRANCH   9  21
HETATM   21  C   UNK N   1       8.391  -0.343  -0.004  0.00  0.00     0.155 C 
HETATM   22  O   UNK N   1       8.299   0.872   0.071  0.00  0.00    -0.293 OA
HETATM   23  C   UNK N   1       9.747  -0.962  -0.113  0.00  0.00     0.096 C 
ENDBRANCH   9  21
TORSDOF 5
