REMARK  3 active torsions:
REMARK  status: ('A' for Active; 'I' for Inactive)
REMARK    1  A    between atoms: C_16  and  C_17 
REMARK    2  A    between atoms: C_17  and  C_18 
REMARK    3  A    between atoms: C_18  and  N_19 
ROOT
HETATM    1  C   UNK N   1       7.564 -10.644  -0.714  0.00  0.00     0.013 A 
HETATM    2  C   UNK N   1       6.501 -11.528  -0.878  0.00  0.00     0.001 A 
HETATM    3  C   UNK N   1       6.664 -12.868  -0.552  0.00  0.00     0.001 A 
HETATM    4  C   UNK N   1       7.886 -13.315  -0.056  0.00  0.00     0.020 A 
HETATM    5  C   UNK N   1       8.965 -12.436   0.108  0.00  0.00     0.016 A 
HETATM    6  C   UNK N   1       8.818 -11.072  -0.222  0.00  0.00    -0.008 A 
HETATM    7  C   UNK N   1       9.933 -10.071  -0.078  0.00  0.00    -0.017 C 
HETATM    8  S   UNK N   1      10.436 -13.132   0.840  0.00  0.00    -0.089 SA
HETATM    9  C   UNK N   1      11.659 -11.884   0.474  0.00  0.00     0.017 A 
HETATM   10  C   UNK N   1      11.352 -10.544   0.135  0.00  0.00    -0.007 A 
HETATM   11  C   UNK N   1      12.430  -9.659  -0.073  0.00  0.00     0.037 A 
HETATM   12  C   UNK N   1      12.995 -12.287   0.603  0.00  0.00     0.021 A 
HETATM   13  C   UNK N   1      14.038 -11.393   0.387  0.00  0.00     0.025 A 
HETATM   14  C   UNK N   1      13.756 -10.076   0.052  0.00  0.00     0.035 A 
HETATM   15 Cl   UNK N   1      15.064  -8.949  -0.234  0.00  0.00    -0.084 Cl
HETATM   16  C   UNK N   1       9.611  -8.744  -0.189  0.00  0.00    -0.012 C 
ENDROOT
BRANCH  16  17
HETATM   17  C   UNK N   1      10.554  -7.592  -0.027  0.00  0.00     0.058 C 
BRANCH  17  18
HETATM   18  C   UNK N   1      10.178  -6.730   1.193  0.00  0.00     0.275 C 
BRANCH  18  19
HETATM   19  N   UNK N   1       9.006  -5.856   1.021  0.00  0.00     0.080 N 
HETATM   20  C   UNK N   1       9.001  -5.191  -0.274  0.00  0.00     0.309 C 
HETATM   21  C   UNK N   1       7.767  -6.601   1.182  0.00  0.00     0.309 C 
ENDBRANCH  18  19
ENDBRANCH  17  18
ENDBRANCH  16  17
TORSDOF 3
