REMARK  8 active torsions:
REMARK  status: ('A' for Active; 'I' for Inactive)
REMARK    1  A    between atoms: O_3  and  Si_5 
REMARK    2  A    between atoms: Si_5  and  O_6 
REMARK    3  A    between atoms: Si_5  and  O_8 
REMARK    4  A    between atoms: Si_5  and  O_10 
REMARK    5  A    between atoms: O_10  and  Si_11 
REMARK    6  A    between atoms: Si_11  and  O_12 
REMARK    7  A    between atoms: Si_11  and  O_14 
REMARK    8  A    between atoms: Si_11  and  O_16 
ROOT
HETATM    1  O   UNK N   1      -0.618   2.876   0.018  0.00  0.00    -0.411 OA
HETATM    2  H   UNK N   1       0.352   2.876   0.018  0.00  0.00     0.205 HD
HETATM    3  H   UNK N   1      -1.103   3.716   0.018  0.00  0.00     0.205 HD
ENDROOT
TORSDOF 8
