REMARK  8 active torsions:
REMARK  status: ('A' for Active; 'I' for Inactive)
REMARK    1  A    between atoms: C_3  and  C_15 
REMARK    2  A    between atoms: C_4  and  C_14 
REMARK    3  A    between atoms: C_7  and  N_9 
REMARK       I    between atoms: N_9  and  C_10 
REMARK    4  A    between atoms: C_10  and  C_13 
REMARK    5  A    between atoms: C_13  and  N_18 
REMARK    6  A    between atoms: C_14  and  S_19 
REMARK    7  A    between atoms: C_15  and  O_17 
REMARK    8  A    between atoms: S_19  and  C_20 
ROOT
HETATM    1  C   UNK N   1      15.557 -10.869   0.148  0.00  0.00     0.187 A 
HETATM    2  N   UNK N   1      15.445 -12.300   0.122  0.00  0.00    -0.293 N 
HETATM    3  C   UNK N   1      16.458 -13.309   0.022  0.00  0.00     0.116 C 
HETATM    4  C   UNK N   1      17.758 -12.906  -0.003  0.00  0.00    -0.027 C 
HETATM    5  C   UNK N   1      18.104 -11.437  -0.061  0.00  0.00     0.113 C 
HETATM    6  S   UNK N   1      17.075 -10.420   1.056  0.00  0.00    -0.136 SA
HETATM    7  C   UNK N   1      14.241 -10.869   1.099  0.00  0.00     0.210 A 
HETATM    8  C   UNK N   1      14.373 -12.330   0.866  0.00  0.00     0.251 A 
HETATM    9  O   UNK N   1      13.895 -13.282   1.462  0.00  0.00    -0.271 OA
ENDROOT
BRANCH   7  10
HETATM   10  N   UNK N   1      13.021 -10.302   0.535  0.00  0.00    -0.344 N 
HETATM   11  C   UNK N   1      12.241 -10.807  -0.458  0.00  0.00     0.238 C 
HETATM   12  O   UNK N   1      12.576 -11.794  -1.095  0.00  0.00    -0.272 OA
HETATM   13  H   UNK N   1      12.726  -9.446   0.922  0.00  0.00     0.163 HD
BRANCH  11  14
HETATM   14  C   UNK N   1      10.908 -10.175  -0.716  0.00  0.00     0.254 C 
BRANCH  14  15
HETATM   15  N   UNK N   1       9.809 -11.061  -0.332  0.00  0.00    -0.262 N 
HETATM   16  C   UNK N   1       8.501 -10.762  -0.338  0.00  0.00     0.220 A 
HETATM   17  N   UNK N   1       7.811 -11.837   0.096  0.00  0.00    -0.279 N 
HETATM   18  N   UNK N   1       8.714 -12.774   0.361  0.00  0.00    -0.227 N 
ATOM     19  HN  UNK N   1       6.799 -11.914   0.200  1.00  0.00     0.189 HD
HETATM   20  N   UNK N   1       9.921 -12.306   0.105  0.00  0.00    -0.225 N 
ATOM     21  HN  UNK N   1       8.506 -13.711   0.707  1.00  0.00     0.210 HD
ATOM     22  HN  UNK N   1      10.795 -12.818   0.224  1.00  0.00     0.210 HD
ENDBRANCH  14  15
ENDBRANCH  11  14
ENDBRANCH   7  10
BRANCH   3  23
HETATM   23  C   UNK N   1      16.070 -14.763   0.022  0.00  0.00     0.194 C 
HETATM   24  O   UNK N   1      14.901 -15.079  -0.123  0.00  0.00    -0.645 OA
BRANCH  23  25
HETATM   25  O   UNK N   1      16.992 -15.741   0.111  0.00  0.00    -0.772 OA
HETATM   26  H   UNK N   1      16.724 -16.637   0.173  0.00  0.00     0.167 HD
ENDBRANCH  23  25
ENDBRANCH   3  23
BRANCH   4  27
HETATM   27  C   UNK N   1      18.881 -13.893   0.072  0.00  0.00     0.119 C 
BRANCH  27  28
HETATM   28  S   UNK N   1      19.648 -14.197  -1.540  0.00  0.00    -0.099 SA
BRANCH  28  29
HETATM   29  C   UNK N   1      21.253 -13.974  -0.804  0.00  0.00     0.128 A 
HETATM   30  N   UNK N   1      21.946 -14.936  -0.137  0.00  0.00    -0.287 N 
HETATM   31  N   UNK N   1      23.109 -14.492   0.384  0.00  0.00    -0.297 N 
ATOM     32  HN  UNK N   1      21.619 -15.897  -0.040  1.00  0.00     0.188 HD
HETATM   33  C   UNK N   1      23.344 -13.175   0.140  0.00  0.00     0.065 A 
ATOM     34  HN  UNK N   1      23.750 -15.087   0.909  1.00  0.00     0.187 HD
HETATM   35  S   UNK N   1      22.090 -12.561  -0.732  0.00  0.00    -0.050 SA
HETATM   36  C   UNK N   1      24.537 -12.425   0.609  0.00  0.00     0.078 C 
ENDBRANCH  28  29
ENDBRANCH  27  28
ENDBRANCH   4  27
TORSDOF 8
