REMARK  0 active torsions:
REMARK  status: ('A' for Active; 'I' for Inactive)
ROOT
HETATM    1  C   UNK N   1       2.040   0.518   1.221  0.00  0.00     0.016 C 
HETATM    2  C   UNK N   1      -0.413   0.234   1.352  0.00  0.00     0.016 C 
HETATM    3  C   UNK N   1       0.632   0.653  -1.646  0.00  0.00     0.024 C 
HETATM    4  C   UNK N   1      -0.151  -2.487   0.336  0.00  0.00     0.007 C 
HETATM    5  C   UNK N   1      -0.320  -1.603  -0.915  0.00  0.00     0.018 C 
HETATM    6  C   UNK N   1       2.312  -2.240   0.204  0.00  0.00     0.084 C 
HETATM    7  C   UNK N   1       1.065  -1.856   1.040  0.00  0.00     0.001 C 
HETATM    8  C   UNK N   1       2.084  -1.329  -0.950  0.00  0.00     0.136 C 
HETATM    9  C   UNK N   1       0.868  -0.354   0.749  0.00  0.00    -0.029 C 
HETATM   10  C   UNK N   1       0.809  -0.574  -0.764  0.00  0.00     0.024 C 
HETATM   11  O   UNK N   1       2.929  -1.079  -1.797  0.00  0.00    -0.297 OA
ENDROOT
TORSDOF 0
