REMARK  12 active torsions:
REMARK  status: ('A' for Active; 'I' for Inactive)
REMARK    1  A    between atoms: C_6  and  C_5 
REMARK    2  A    between atoms: C_10  and  C_6 
REMARK    3  A    between atoms: C_12  and  C_9 
REMARK    4  A    between atoms: C_9  and  O_22 
REMARK    5  A    between atoms: C_11  and  C_17 
REMARK    6  A    between atoms: C_16  and  C_12 
REMARK    7  A    between atoms: C_12  and  N_19 
REMARK    8  A    between atoms: C_13  and  O_23 
REMARK    9  A    between atoms: C_14  and  O_24 
REMARK   10  A    between atoms: C_15  and  O_25 
REMARK   11  A    between atoms: C_17  and  O_26 
REMARK   12  A    between atoms: C_18  and  S_28 
ROOT
HETATM    1  C   UNK N   1       4.919  -5.916  -0.281  0.00  0.00     0.143 C 
ENDROOT
BRANCH   1   2
HETATM    2  C   UNK N   1       4.718  -7.429  -0.067  0.00  0.00     0.139 C 
HETATM    3  C   UNK N   1       5.046  -7.863   1.354  0.00  0.00     0.041 C 
BRANCH   2   4
HETATM    4  O   UNK N   1       3.397  -7.776  -0.351  0.00  0.00    -0.394 OA
HETATM    5  H   UNK N   1       2.729  -7.100  -0.548  0.00  0.00     0.210 HD
ENDBRANCH   2   4
ENDBRANCH   1   2
BRANCH   1   6
HETATM    6  C   UNK N   1       6.384  -5.467  -0.055  0.00  0.00     0.179 C 
HETATM    7  C   UNK N   1       6.587  -3.923  -0.223  0.00  0.00     0.180 C 
HETATM    8  C   UNK N   1       8.069  -3.578  -0.489  0.00  0.00     0.181 C 
HETATM    9  C   UNK N   1       8.950  -4.630   0.177  0.00  0.00     0.188 C 
HETATM   10  C   UNK N   1       8.623  -6.022  -0.472  0.00  0.00     0.214 C 
HETATM   11  O   UNK N   1       7.265  -6.168  -0.903  0.00  0.00    -0.363 OA
BRANCH   7  12
HETATM   12  O   UNK N   1       5.821  -3.394  -1.265  0.00  0.00    -0.390 OA
HETATM   13  H   UNK N   1       5.873  -2.750  -1.989  0.00  0.00     0.210 HD
ENDBRANCH   7  12
BRANCH   8  14
HETATM   14  O   UNK N   1       8.352  -2.292  -0.018  0.00  0.00    -0.390 OA
HETATM   15  H   UNK N   1       9.223  -2.016   0.308  0.00  0.00     0.210 HD
ENDBRANCH   8  14
BRANCH   9  16
HETATM   16  O   UNK N   1      10.308  -4.317   0.059  0.00  0.00    -0.389 OA
HETATM   17  H   UNK N   1      10.967  -5.024  -0.022  0.00  0.00     0.210 HD
ENDBRANCH   9  16
BRANCH  10  18
HETATM   18  S   UNK N   1       9.672  -6.324  -1.943  0.00  0.00    -0.139 SA
HETATM   19  C   UNK N   1       9.955  -8.084  -1.564  0.00  0.00     0.092 C 
ENDBRANCH  10  18
ENDBRANCH   1   6
BRANCH   1  20
HETATM   20  N   UNK N   1       4.082  -5.143   0.623  0.00  0.00    -0.363 N 
HETATM   21  C   UNK N   1       3.208  -4.279   0.232  0.00  0.00     0.146 C 
ATOM     22  HN  UNK N   1       4.193  -5.293   1.626  1.00  0.00     0.162 HD
BRANCH  21  23
HETATM   23  C   UNK N   1       2.600  -3.341   1.259  0.00  0.00     0.296 C 
HETATM   24  C   UNK N   1       3.211  -1.973   1.045  0.00  0.00     0.050 C 
HETATM   25  C   UNK N   1       2.283  -1.339   0.048  0.00  0.00     0.016 C 
HETATM   26  C   UNK N   1       0.925  -1.846   0.507  0.00  0.00     0.277 C 
HETATM   27  N   UNK N   1       1.141  -3.130   1.182  0.00  0.00     0.097 N 
HETATM   28  C   UNK N   1       0.400  -4.186   0.502  0.00  0.00     0.310 C 
BRANCH  25  29
HETATM   29  C   UNK N   1       2.439   0.173   0.091  0.00  0.00     0.006 C 
BRANCH  29  30
HETATM   30  C   UNK N   1       1.502   0.872  -0.875  0.00  0.00    -0.004 C 
HETATM   31  C   UNK N   1       0.397   1.543  -0.089  0.00  0.00     0.005 C 
ENDBRANCH  29  30
ENDBRANCH  25  29
ENDBRANCH  21  23
BRANCH  21  32
HETATM   32  O   UNK N   1       2.947  -4.107  -1.084  0.00  0.00    -0.348 OA
HETATM   33  H   UNK N   1       2.959  -3.890  -1.995  0.00  0.00     0.219 HD
ENDBRANCH  21  32
ENDBRANCH   1  20
TORSDOF 12
