REMARK  2 active torsions:
REMARK  status: ('A' for Active; 'I' for Inactive)
REMARK    1  A    between atoms: C_6  and  O_1 
REMARK    2  A    between atoms: O_2  and  C_20 
ROOT
HETATM    1  C   UNK N   1       7.562   1.221   0.330  0.00  0.00     0.003 C 
HETATM    2  C   UNK N   1       7.560  -0.353   0.312  0.00  0.00     0.002 C 
HETATM    3  C   UNK N   1       6.336  -0.913  -0.431  0.00  0.00    -0.001 C 
HETATM    4  C   UNK N   1       8.872   1.586  -0.381  0.00  0.00     0.128 C 
HETATM    5  C   UNK N   1       6.391   1.826  -0.490  0.00  0.00     0.014 C 
HETATM    6  C   UNK N   1       8.809  -0.769  -0.440  0.00  0.00     0.010 C 
HETATM    7  C   UNK N   1       5.020   1.217  -0.212  0.00  0.00     0.010 C 
HETATM    8  C   UNK N   1       9.083   0.422  -1.340  0.00  0.00     0.052 C 
HETATM    9  C   UNK N   1       6.335  -2.459  -0.460  0.00  0.00     0.010 C 
HETATM   10  C   UNK N   1       7.441   1.781   1.755  0.00  0.00     0.020 C 
HETATM   11  C   UNK N   1       3.879  -1.001   0.074  0.00  0.00    -0.047 A 
HETATM   12  C   UNK N   1       5.229  -3.097   0.368  0.00  0.00     0.039 C 
HETATM   13  C   UNK N   1       3.922  -2.402   0.137  0.00  0.00    -0.049 A 
HETATM   14  C   UNK N   1      10.048   1.671   0.501  0.00  0.00    -0.078 C 
HETATM   15  C   UNK N   1       2.663  -0.333  -0.039  0.00  0.00     0.011 A 
HETATM   16  C   UNK N   1       2.737  -3.130   0.054  0.00  0.00     0.044 A 
HETATM   17  C   UNK N   1       1.486  -1.054  -0.086  0.00  0.00     0.037 A 
HETATM   18  C   UNK N   1       1.513  -2.456  -0.040  0.00  0.00     0.068 A 
HETATM   19  C   UNK N   1      11.029   1.738   1.194  0.00  0.00     0.015 C 
HETATM   20  C   UNK N   1       5.130  -0.239   0.254  0.00  0.00     0.023 C 
ENDROOT
BRANCH   4  21
HETATM   21  O   UNK N   1       8.782   2.799  -1.087  0.00  0.00    -0.377 OA
HETATM   22  H   UNK N   1       9.475   3.272  -1.574  0.00  0.00     0.211 HD
ENDBRANCH   4  21
BRANCH  18  23
HETATM   23  O   UNK N   1       0.367  -3.164  -0.023  0.00  0.00    -0.356 OA
HETATM   24  C   UNK N   1      -0.850  -2.571   0.228  0.00  0.00     0.210 C 
ENDBRANCH  18  23
TORSDOF 2
