REMARK WARNING: 32 MAX_TORS EXCEEDED!!!
REMARK  104 active torsions:
REMARK  status: ('A' for Active; 'I' for Inactive)
REMARK    1  A    between atoms: C_2  and  C_1 
REMARK       I    between atoms: C_1  and  N_7 
REMARK    2  A    between atoms: C_2  and  N_4 
REMARK    3  A    between atoms: C_5  and  C_2 
REMARK    4  A    between atoms: O_6  and  C_5 
REMARK    5  A    between atoms: C_10  and  N_7 
REMARK    6  A    between atoms: C_10  and  C_8 
REMARK       I    between atoms: C_8  and  N_19 
REMARK    7  A    between atoms: C_11  and  C_10 
REMARK    8  A    between atoms: C_12  and  C_11 
REMARK    9  A    between atoms: O_18  and  C_16 
REMARK   10  A    between atoms: C_21  and  N_19 
REMARK   11  A    between atoms: C_21  and  C_20 
REMARK       I    between atoms: C_20  and  N_25 
REMARK   12  A    between atoms: C_23  and  C_21 
REMARK   13  A    between atoms: O_24  and  C_23 
REMARK   14  A    between atoms: C_28  and  N_25 
REMARK   15  A    between atoms: C_28  and  C_26 
REMARK       I    between atoms: C_26  and  N_33 
REMARK   16  A    between atoms: C_30  and  C_28 
REMARK   17  A    between atoms: C_31  and  S_29 
REMARK   18  A    between atoms: C_31  and  C_30 
REMARK   19  A    between atoms: C_37  and  N_33 
REMARK   20  A    between atoms: C_37  and  C_34 
REMARK       I    between atoms: C_34  and  N_42 
REMARK   21  A    between atoms: C_40  and  C_35 
REMARK   22  A    between atoms: O_41  and  C_35 
REMARK   23  A    between atoms: C_39  and  C_37 
REMARK   24  A    between atoms: C_40  and  C_39 
REMARK   25  A    between atoms: C_45  and  N_42 
REMARK   26  A    between atoms: C_45  and  C_43 
REMARK       I    between atoms: C_43  and  N_53 
REMARK   27  A    between atoms: C_46  and  C_45 
REMARK   28  A    between atoms: C_47  and  C_46 
REMARK   29  A    between atoms: C_55  and  N_53 
REMARK   30  A    between atoms: C_55  and  C_54 
REMARK       I    between atoms: C_54  and  N_64 
REMARK   31  A    between atoms: C_57  and  C_55 
REMARK   32  A    between atoms: C_58  and  C_57 
REMARK   33  A    between atoms: C_71  and  N_64 
REMARK       I    between atoms: N_70  and  C_65 
REMARK       I    between atoms: N_72  and  C_65 
REMARK   34  A    between atoms: C_71  and  C_66 
REMARK       I    between atoms: C_66  and  N_76 
REMARK   35  A    between atoms: C_73  and  N_70 
REMARK   36  A    between atoms: C_74  and  C_71 
REMARK   37  A    between atoms: C_75  and  C_73 
REMARK   38  A    between atoms: C_75  and  C_74 
REMARK   39  A    between atoms: C_79  and  N_76 
REMARK   40  A    between atoms: C_79  and  C_77 
REMARK       I    between atoms: C_77  and  N_90 
REMARK   41  A    between atoms: C_80  and  C_79 
REMARK   42  A    between atoms: C_81  and  C_80 
REMARK   43  A    between atoms: N_90  and  C_93 
REMARK   44  A    between atoms: C_93  and  C_91 
REMARK       I    between atoms: C_91  and  N_94 
REMARK   45  A    between atoms: C_97  and  N_94 
REMARK       I    between atoms: N_96  and  C_95 
REMARK   46  A    between atoms: C_97  and  C_95 
REMARK   47  A    between atoms: C_100  and  C_97 
REMARK   48  A    between atoms: C_99  and  N_98 
REMARK   49  A    between atoms: C_101  and  C_99 
REMARK   50  A    between atoms: C_102  and  C_100 
REMARK   51  A    between atoms: C_102  and  C_101 
REMARK   52  A    between atoms: C_104  and  C_108 
REMARK       I    between atoms: C_108  and  N_110 
REMARK   53  A    between atoms: C_112  and  N_110 
REMARK   54  A    between atoms: C_112  and  C_111 
REMARK       I    between atoms: C_111  and  N_117 
REMARK   55  A    between atoms: C_114  and  C_112 
REMARK   56  A    between atoms: N_117  and  C_120 
REMARK   57  A    between atoms: C_120  and  C_118 
REMARK       I    between atoms: C_118  and  N_121 
REMARK   58  A    between atoms: C_124  and  N_121 
REMARK   59  A    between atoms: C_124  and  C_122 
REMARK       I    between atoms: C_122  and  N_130 
REMARK   60  A    between atoms: C_127  and  C_124 
REMARK   61  A    between atoms: C_126  and  N_125 
REMARK   62  A    between atoms: C_128  and  C_126 
REMARK   63  A    between atoms: C_129  and  C_127 
REMARK   64  A    between atoms: C_129  and  C_128 
REMARK   65  A    between atoms: C_133  and  N_130 
REMARK   66  A    between atoms: C_133  and  C_131 
REMARK       I    between atoms: C_131  and  N_139 
REMARK   67  A    between atoms: C_136  and  C_133 
REMARK   68  A    between atoms: C_135  and  N_134 
REMARK   69  A    between atoms: C_137  and  C_135 
REMARK   70  A    between atoms: C_138  and  C_136 
REMARK   71  A    between atoms: C_138  and  C_137 
REMARK   72  A    between atoms: C_146  and  N_139 
REMARK       I    between atoms: N_145  and  C_140 
REMARK       I    between atoms: N_147  and  C_140 
REMARK   73  A    between atoms: C_146  and  C_141 
REMARK       I    between atoms: C_141  and  N_151 
REMARK   74  A    between atoms: C_148  and  N_145 
REMARK   75  A    between atoms: C_149  and  C_146 
REMARK   76  A    between atoms: C_150  and  C_148 
REMARK   77  A    between atoms: C_150  and  C_149 
REMARK   78  A    between atoms: C_158  and  N_151 
REMARK       I    between atoms: N_157  and  C_152 
REMARK       I    between atoms: N_159  and  C_152 
REMARK   79  A    between atoms: C_158  and  C_153 
REMARK       I    between atoms: N_156  and  C_153 
REMARK   80  A    between atoms: C_160  and  N_157 
REMARK   81  A    between atoms: C_161  and  C_158 
REMARK   82  A    between atoms: C_162  and  C_160 
REMARK   83  A    between atoms: C_162  and  C_161 
REMARK   84  A    between atoms: C_164  and  C_168 
REMARK       I    between atoms: C_168  and  N_170 
REMARK   85  A    between atoms: C_172  and  N_170 
REMARK   86  A    between atoms: C_172  and  C_171 
REMARK       I    between atoms: C_171  and  N_177 
REMARK   87  A    between atoms: C_174  and  C_172 
REMARK   88  A    between atoms: C_180  and  N_177 
REMARK   89  A    between atoms: C_180  and  C_178 
REMARK       I    between atoms: C_178  and  N_186 
REMARK   90  A    between atoms: C_183  and  C_180 
REMARK   91  A    between atoms: C_182  and  N_181 
REMARK   92  A    between atoms: C_184  and  C_182 
REMARK   93  A    between atoms: C_185  and  C_183 
REMARK   94  A    between atoms: C_185  and  C_184 
REMARK   95  A    between atoms: C_188  and  N_186 
REMARK   96  A    between atoms: C_188  and  C_187 
REMARK       I    between atoms: C_187  and  N_193 
REMARK   97  A    between atoms: C_190  and  C_188 
REMARK   98  A    between atoms: C_196  and  N_193 
REMARK       I    between atoms: N_195  and  C_194 
REMARK   99  A    between atoms: C_196  and  C_194 
REMARK  100  A    between atoms: C_197  and  C_196 
REMARK  101  A    between atoms: C_198  and  C_197 
REMARK  102  A    between atoms: O_204  and  C_202 
REMARK  103  A    between atoms: C_206  and  C_210 
REMARK  104  A    between atoms: C_210  and  O_212 
ROOT
HETATM    1  C   UNK N   1      -9.948   3.406   1.040  0.00  0.00     0.243 C 
HETATM    2  N   UNK N   1      -8.708   2.949   1.413  0.00  0.00    -0.337 N 
HETATM    3  O   UNK N   1     -10.879   3.357   1.833  0.00  0.00    -0.271 OA
HETATM    4  C   UNK N   1      -7.536   3.124   0.597  0.00  0.00     0.179 C 
HETATM    5  C   UNK N   1      -8.476   2.277   2.657  0.00  0.00     0.127 C 
HETATM    6  C   UNK N   1      -7.047   1.760   2.565  0.00  0.00     0.022 C 
HETATM    7  C   UNK N   1      -6.479   2.226   1.223  0.00  0.00     0.037 C 
ENDROOT
BRANCH   4   8
HETATM    8  C   UNK N   1      -7.192   4.573   0.761  0.00  0.00     0.241 C 
HETATM    9  O   UNK N   1      -6.800   4.975   1.846  0.00  0.00    -0.271 OA
HETATM   10  N   UNK N   1      -7.668   5.435  -0.164  0.00  0.00    -0.346 N 
HETATM   11  H   UNK N   1      -7.768   5.107  -1.087  0.00  0.00     0.163 HD
BRANCH  10  12
HETATM   12  C   UNK N   1      -8.040   6.809   0.107  0.00  0.00     0.180 C 
BRANCH  12  13
HETATM   13  C   UNK N   1      -7.132   7.735   0.897  0.00  0.00     0.241 C 
HETATM   14  O   UNK N   1      -7.099   7.622   2.111  0.00  0.00    -0.271 OA
HETATM   15  N   UNK N   1      -6.416   8.732   0.316  0.00  0.00    -0.351 N 
HETATM   16  H   UNK N   1      -5.937   9.359   0.905  0.00  0.00     0.163 HD
BRANCH  15  17
HETATM   17  C   UNK N   1      -6.311   8.931  -1.111  0.00  0.00     0.225 C 
BRANCH  17  18
HETATM   18  C   UNK N   1      -5.249   8.020  -1.598  0.00  0.00     0.236 C 
HETATM   19  O   UNK N   1      -4.149   8.471  -1.884  0.00  0.00    -0.272 OA
HETATM   20  N   UNK N   1      -5.460   6.684  -1.537  0.00  0.00    -0.346 N 
HETATM   21  H   UNK N   1      -6.384   6.346  -1.503  0.00  0.00     0.163 HD
BRANCH  20  22
HETATM   22  C   UNK N   1      -4.373   5.748  -1.520  0.00  0.00     0.176 C 
BRANCH  22  23
HETATM   23  C   UNK N   1      -3.675   5.955  -0.207  0.00  0.00     0.241 C 
HETATM   24  O   UNK N   1      -4.250   5.709   0.844  0.00  0.00    -0.271 OA
HETATM   25  N   UNK N   1      -2.459   6.529  -0.197  0.00  0.00    -0.346 N 
HETATM   26  H   UNK N   1      -2.015   6.722  -1.054  0.00  0.00     0.163 HD
BRANCH  25  27
HETATM   27  C   UNK N   1      -1.786   6.868   1.031  0.00  0.00     0.176 C 
BRANCH  27  28
HETATM   28  C   UNK N   1      -0.948   5.723   1.514  0.00  0.00     0.241 C 
HETATM   29  O   UNK N   1      -1.041   5.384   2.681  0.00  0.00    -0.271 OA
HETATM   30  N   UNK N   1      -0.119   5.033   0.694  0.00  0.00    -0.346 N 
HETATM   31  H   UNK N   1       0.440   4.326   1.091  0.00  0.00     0.163 HD
BRANCH  30  32
HETATM   32  C   UNK N   1      -0.001   5.270  -0.731  0.00  0.00     0.176 C 
BRANCH  32  33
HETATM   33  C   UNK N   1       0.543   6.612  -1.196  0.00  0.00     0.241 C 
HETATM   34  O   UNK N   1      -0.121   7.304  -1.948  0.00  0.00    -0.271 OA
HETATM   35  N   UNK N   1       1.752   7.061  -0.761  0.00  0.00    -0.346 N 
HETATM   36  H   UNK N   1       2.053   7.968  -0.996  0.00  0.00     0.163 HD
BRANCH  35  37
HETATM   37  C   UNK N   1       2.593   6.205   0.044  0.00  0.00     0.176 C 
BRANCH  37  38
HETATM   38  C   UNK N   1       2.882   4.943  -0.760  0.00  0.00     0.243 C 
HETATM   39  N   UNK N   1       3.046   3.736  -0.154  0.00  0.00    -0.337 N 
HETATM   40  C   UNK N   1       3.481   3.616   1.205  0.00  0.00     0.179 C 
HETATM   41  C   UNK N   1       3.060   2.506  -0.895  0.00  0.00     0.127 C 
HETATM   42  C   UNK N   1       3.299   2.137   1.507  0.00  0.00     0.037 C 
HETATM   43  C   UNK N   1       3.280   1.429   0.150  0.00  0.00     0.022 C 
HETATM   44  O   UNK N   1       2.807   4.992  -1.981  0.00  0.00    -0.271 OA
BRANCH  40  45
HETATM   45  C   UNK N   1       4.962   3.921   1.163  0.00  0.00     0.241 C 
HETATM   46  O   UNK N   1       5.632   3.945   2.184  0.00  0.00    -0.271 OA
HETATM   47  N   UNK N   1       5.522   4.144  -0.055  0.00  0.00    -0.346 N 
HETATM   48  H   UNK N   1       4.926   4.085  -0.837  0.00  0.00     0.163 HD
BRANCH  47  49
HETATM   49  C   UNK N   1       6.886   4.454  -0.310  0.00  0.00     0.180 C 
BRANCH  49  50
HETATM   50  C   UNK N   1       7.539   3.270  -0.966  0.00  0.00     0.241 C 
HETATM   51  O   UNK N   1       7.440   3.091  -2.171  0.00  0.00    -0.271 OA
HETATM   52  N   UNK N   1       8.189   2.356  -0.200  0.00  0.00    -0.346 N 
HETATM   53  H   UNK N   1       8.583   1.565  -0.634  0.00  0.00     0.163 HD
BRANCH  52  54
HETATM   54  C   UNK N   1       8.321   2.507   1.244  0.00  0.00     0.176 C 
BRANCH  54  55
HETATM   55  C   UNK N   1       9.067   3.778   1.487  0.00  0.00     0.241 C 
HETATM   56  O   UNK N   1       8.529   4.731   2.027  0.00  0.00    -0.271 OA
HETATM   57  N   UNK N   1      10.268   3.875   0.898  0.00  0.00    -0.346 N 
HETATM   58  H   UNK N   1      10.666   3.006   0.663  0.00  0.00     0.163 HD
BRANCH  57  59
HETATM   59  C   UNK N   1      11.086   5.000   0.545  0.00  0.00     0.180 C 
BRANCH  59  60
HETATM   60  C   UNK N   1      11.282   4.831  -0.933  0.00  0.00     0.241 C 
HETATM   61  O   UNK N   1      10.367   5.085  -1.705  0.00  0.00    -0.271 OA
HETATM   62  N   UNK N   1      12.416   4.285  -1.419  0.00  0.00    -0.346 N 
HETATM   63  H   UNK N   1      12.506   4.187  -2.394  0.00  0.00     0.163 HD
BRANCH  62  64
HETATM   64  C   UNK N   1      13.508   3.834  -0.579  0.00  0.00     0.181 C 
BRANCH  64  65
HETATM   65  C   UNK N   1      14.142   4.906   0.286  0.00  0.00     0.243 C 
HETATM   66  N   UNK N   1      14.164   6.232  -0.042  0.00  0.00    -0.336 N 
HETATM   67  C   UNK N   1      14.881   7.206   0.720  0.00  0.00     0.185 C 
HETATM   68  C   UNK N   1      13.486   6.780  -1.195  0.00  0.00     0.127 C 
HETATM   69  C   UNK N   1      14.347   8.545   0.236  0.00  0.00     0.038 C 
HETATM   70  C   UNK N   1      13.705   8.278  -1.120  0.00  0.00     0.022 C 
HETATM   71  O   UNK N   1      14.693   4.551   1.336  0.00  0.00    -0.271 OA
BRANCH  67  72
HETATM   72  C   UNK N   1      16.357   7.055   0.412  0.00  0.00     0.163 C 
HETATM   73  O   UNK N   1      16.944   6.033   0.724  0.00  0.00    -0.648 OA
BRANCH  72  74
HETATM   74  O   UNK N   1      17.024   8.024  -0.247  0.00  0.00    -0.775 OA
HETATM   75  H   UNK N   1      17.839   7.960  -0.705  0.00  0.00     0.167 HD
ENDBRANCH  72  74
ENDBRANCH  67  72
ENDBRANCH  64  65
BRANCH  64  76
HETATM   76  C   UNK N   1      13.167   2.535   0.157  0.00  0.00     0.073 C 
BRANCH  76  77
HETATM   77  C   UNK N   1      14.291   1.566   0.009  0.00  0.00    -0.056 A 
HETATM   78  C   UNK N   1      14.089   0.382  -0.706  0.00  0.00     0.010 A 
HETATM   79  C   UNK N   1      15.154  -0.501  -0.911  0.00  0.00     0.037 A 
HETATM   80  C   UNK N   1      16.421  -0.199  -0.401  0.00  0.00     0.065 A 
HETATM   81  C   UNK N   1      16.620   0.975   0.329  0.00  0.00     0.037 A 
HETATM   82  C   UNK N   1      15.557   1.856   0.534  0.00  0.00     0.010 A 
BRANCH  80  83
HETATM   83  O   UNK N   1      17.448  -1.035  -0.617  0.00  0.00    -0.361 OA
HETATM   84  H   UNK N   1      17.301  -1.948  -0.768  0.00  0.00     0.217 HD
ENDBRANCH  80  83
ENDBRANCH  76  77
ENDBRANCH  64  76
ENDBRANCH  62  64
ENDBRANCH  59  60
BRANCH  59  85
HETATM   85  C   UNK N   1      10.690   6.442   0.948  0.00  0.00     0.009 C 
HETATM   86  C   UNK N   1      10.523   6.666   2.438  0.00  0.00     0.012 C 
HETATM   87  C   UNK N   1       9.569   7.083   0.160  0.00  0.00     0.012 C 
ENDBRANCH  59  85
ENDBRANCH  57  59
ENDBRANCH  54  55
BRANCH  54  88
HETATM   88  C   UNK N   1       9.133   1.335   1.788  0.00  0.00     0.035 C 
BRANCH  88  89
HETATM   89  C   UNK N   1       8.320   0.057   1.968  0.00  0.00     0.004 C 
BRANCH  89  90
HETATM   90  C   UNK N   1       7.652  -0.424   0.691  0.00  0.00     0.019 C 
BRANCH  90  91
HETATM   91  C   UNK N   1       6.180  -0.070   0.755  0.00  0.00     0.111 C 
BRANCH  91  92
HETATM   92  N   UNK N   1       5.475  -0.718  -0.334  0.00  0.00    -0.430 N 
HETATM   93  H   UNK N   1       4.833  -0.517  -1.100  0.00  0.00     0.149 HD
HETATM   94  H   UNK N   1       5.697  -1.714  -0.334  0.00  0.00     0.149 HD
ENDBRANCH  91  92
ENDBRANCH  90  91
ENDBRANCH  89  90
ENDBRANCH  88  89
ENDBRANCH  54  88
ENDBRANCH  52  54
ENDBRANCH  49  50
BRANCH  49  95
HETATM   95  C   UNK N   1       7.021   5.783  -1.058  0.00  0.00     0.009 C 
HETATM   96  C   UNK N   1       6.633   6.921  -0.138  0.00  0.00     0.012 C 
HETATM   97  C   UNK N   1       6.150   5.845  -2.305  0.00  0.00     0.012 C 
ENDBRANCH  49  95
ENDBRANCH  47  49
ENDBRANCH  40  45
ENDBRANCH  37  38
BRANCH  37  98
HETATM   98  C   UNK N   1       3.797   6.899   0.692  0.00  0.00     0.036 C 
BRANCH  98  99
HETATM   99  C   UNK N   1       3.778   8.433   0.727  0.00  0.00     0.023 C 
BRANCH  99 100
HETATM  100  C   UNK N   1       2.759   9.038   1.686  0.00  0.00     0.138 C 
BRANCH 100 101
HETATM  101  N   UNK N   1       1.614   9.526   0.956  0.00  0.00    -0.227 N 
HETATM  102  C   UNK N   1       1.695  10.554  -0.022  0.00  0.00     0.665 C 
HETATM  103  N   UNK N   1       0.655  10.868  -0.699  0.00  0.00    -0.235 N 
HETATM  104  N   UNK N   1       2.925  11.195  -0.295  0.00  0.00    -0.235 N 
HETATM  105  H   UNK N   1       0.464  11.682  -1.219  0.00  0.00     0.174 HD
ATOM    106  HN  UNK N   1      -0.089  10.170  -0.699  1.00  0.00     0.174 HD
HETATM  107  H   UNK N   1       3.740  10.677  -0.486  0.00  0.00     0.174 HD
HETATM  108  H   UNK N   1       2.967  12.178  -0.295  0.00  0.00     0.174 HD
HETATM  109  H   UNK N   1       0.733   9.127   1.144  0.00  0.00     0.177 HD
ENDBRANCH 100 101
ENDBRANCH  99 100
ENDBRANCH  98  99
ENDBRANCH  37  98
ENDBRANCH  35  37
ENDBRANCH  32  33
BRANCH  32 110
HETATM  110  C   UNK N   1      -0.402   4.118  -1.651  0.00  0.00     0.036 C 
BRANCH 110 111
HETATM  111  C   UNK N   1       0.062   2.793  -1.054  0.00  0.00     0.023 C 
BRANCH 111 112
HETATM  112  C   UNK N   1      -0.807   1.622  -1.479  0.00  0.00     0.138 C 
BRANCH 112 113
HETATM  113  N   UNK N   1      -1.715   1.258  -0.416  0.00  0.00    -0.227 N 
HETATM  114  C   UNK N   1      -1.277   0.670   0.800  0.00  0.00     0.665 C 
HETATM  115  N   UNK N   1      -2.130   0.394   1.714  0.00  0.00    -0.235 N 
HETATM  116  N   UNK N   1       0.091   0.379   1.010  0.00  0.00    -0.235 N 
HETATM  117  H   UNK N   1      -2.642   0.856   2.417  0.00  0.00     0.174 HD
ATOM    118  HN  UNK N   1      -2.344  -0.603   1.714  1.00  0.00     0.174 HD
HETATM  119  H   UNK N   1       0.391  -0.547   1.155  0.00  0.00     0.174 HD
HETATM  120  H   UNK N   1       0.750   1.110   1.010  0.00  0.00     0.174 HD
HETATM  121  H   UNK N   1      -2.677   1.425  -0.539  0.00  0.00     0.177 HD
ENDBRANCH 112 113
ENDBRANCH 111 112
ENDBRANCH 110 111
ENDBRANCH  32 110
ENDBRANCH  30  32
ENDBRANCH  27  28
BRANCH  27 122
HETATM  122  C   UNK N   1      -0.958   8.123   0.848  0.00  0.00     0.035 C 
BRANCH 122 123
HETATM  123  C   UNK N   1      -1.685   9.336   1.388  0.00  0.00     0.004 C 
BRANCH 123 124
HETATM  124  C   UNK N   1      -2.514   9.997   0.311  0.00  0.00     0.019 C 
BRANCH 124 125
HETATM  125  C   UNK N   1      -3.284  11.139   0.939  0.00  0.00     0.111 C 
BRANCH 125 126
HETATM  126  N   UNK N   1      -4.154  11.745  -0.050  0.00  0.00    -0.430 N 
HETATM  127  H   UNK N   1      -4.091  12.488  -0.745  0.00  0.00     0.149 HD
HETATM  128  H   UNK N   1      -5.077  11.311  -0.050  0.00  0.00     0.149 HD
ENDBRANCH 125 126
ENDBRANCH 124 125
ENDBRANCH 123 124
ENDBRANCH 122 123
ENDBRANCH  27 122
ENDBRANCH  25  27
ENDBRANCH  22  23
BRANCH  22 129
HETATM  129  C   UNK N   1      -4.926   4.331  -1.634  0.00  0.00     0.035 C 
BRANCH 129 130
HETATM  130  C   UNK N   1      -3.823   3.299  -1.496  0.00  0.00     0.004 C 
BRANCH 130 131
HETATM  131  C   UNK N   1      -3.835   2.358  -2.685  0.00  0.00     0.019 C 
BRANCH 131 132
HETATM  132  C   UNK N   1      -4.885   1.280  -2.509  0.00  0.00     0.111 C 
BRANCH 132 133
HETATM  133  N   UNK N   1      -4.471   0.374  -1.458  0.00  0.00    -0.430 N 
HETATM  134  H   UNK N   1      -4.878  -0.198  -0.718  0.00  0.00     0.149 HD
HETATM  135  H   UNK N   1      -3.456   0.277  -1.458  0.00  0.00     0.149 HD
ENDBRANCH 132 133
ENDBRANCH 131 132
ENDBRANCH 130 131
ENDBRANCH 129 130
ENDBRANCH  22 129
ENDBRANCH  20  22
ENDBRANCH  17  18
ENDBRANCH  15  17
ENDBRANCH  12  13
BRANCH  12 136
HETATM  136  C   UNK N   1      -9.146   7.325  -0.808  0.00  0.00     0.009 C 
HETATM  137  C   UNK N   1      -8.688   7.483  -2.245  0.00  0.00     0.012 C 
HETATM  138  C   UNK N   1      -9.787   8.595  -0.288  0.00  0.00     0.012 C 
ENDBRANCH  12 136
ENDBRANCH  10  12
ENDBRANCH   4   8
BRANCH   1 139
HETATM  139  C   UNK N   1     -10.210   3.785  -0.418  0.00  0.00     0.176 C 
BRANCH 139 140
HETATM  140  N   UNK N   1      -9.830   2.579  -1.137  0.00  0.00    -0.346 N 
HETATM  141  C   UNK N   1     -10.529   1.435  -0.938  0.00  0.00     0.236 C 
HETATM  142  O   UNK N   1     -11.661   1.487  -0.500  0.00  0.00    -0.272 OA
HETATM  143  H   UNK N   1      -9.070   2.593  -1.763  0.00  0.00     0.163 HD
BRANCH 141 144
HETATM  144  C   UNK N   1      -9.829   0.137  -0.875  0.00  0.00     0.225 C 
BRANCH 144 145
HETATM  145  N   UNK N   1      -9.877  -0.255   0.522  0.00  0.00    -0.351 N 
HETATM  146  C   UNK N   1     -10.953  -0.791   1.180  0.00  0.00     0.241 C 
HETATM  147  O   UNK N   1     -10.866  -0.967   2.385  0.00  0.00    -0.271 OA
HETATM  148  H   UNK N   1      -9.056  -0.122   1.049  0.00  0.00     0.163 HD
BRANCH 146 149
HETATM  149  C   UNK N   1     -12.243  -1.224   0.495  0.00  0.00     0.181 C 
BRANCH 149 150
HETATM  150  C   UNK N   1     -13.487  -0.482   1.038  0.00  0.00     0.075 C 
BRANCH 150 151
HETATM  151  C   UNK N   1     -14.285   0.425   0.120  0.00  0.00    -0.028 A 
HETATM  152  C   UNK N   1     -14.114   0.659  -1.247  0.00  0.00     0.096 A 
HETATM  153  N   UNK N   1     -15.019   1.569  -1.679  0.00  0.00    -0.365 N 
HETATM  154  C   UNK N   1     -15.759   1.891  -0.606  0.00  0.00     0.042 A 
HETATM  155  H   UNK N   1     -15.115   1.922  -2.593  0.00  0.00     0.165 HD
HETATM  156  C   UNK N   1     -15.345   1.208   0.503  0.00  0.00    -0.002 A 
HETATM  157  C   UNK N   1     -16.820   2.789  -0.568  0.00  0.00     0.030 A 
HETATM  158  C   UNK N   1     -15.969   1.371   1.738  0.00  0.00     0.014 A 
HETATM  159  C   UNK N   1     -17.052   2.266   1.811  0.00  0.00     0.001 A 
HETATM  160  C   UNK N   1     -17.474   2.975   0.662  0.00  0.00     0.002 A 
ENDBRANCH 150 151
ENDBRANCH 149 150
BRANCH 149 161
HETATM  161  N   UNK N   1     -12.155  -1.233  -0.941  0.00  0.00    -0.346 N 
HETATM  162  C   UNK N   1     -12.148  -2.341  -1.716  0.00  0.00     0.241 C 
HETATM  163  O   UNK N   1     -12.031  -2.203  -2.922  0.00  0.00    -0.271 OA
HETATM  164  H   UNK N   1     -12.096  -0.362  -1.397  0.00  0.00     0.163 HD
BRANCH 162 165
HETATM  165  C   UNK N   1     -12.271  -3.737  -1.160  0.00  0.00     0.176 C 
BRANCH 165 166
HETATM  166  C   UNK N   1     -12.336  -4.072   0.324  0.00  0.00     0.036 C 
BRANCH 166 167
HETATM  167  C   UNK N   1     -13.666  -4.713   0.660  0.00  0.00     0.023 C 
BRANCH 167 168
HETATM  168  C   UNK N   1     -14.624  -3.702   1.273  0.00  0.00     0.138 C 
BRANCH 168 169
HETATM  169  N   UNK N   1     -15.246  -2.880   0.262  0.00  0.00    -0.227 N 
HETATM  170  C   UNK N   1     -16.170  -3.402  -0.679  0.00  0.00     0.665 C 
HETATM  171  N   UNK N   1     -16.749  -2.612  -1.504  0.00  0.00    -0.235 N 
HETATM  172  N   UNK N   1     -16.479  -4.781  -0.697  0.00  0.00    -0.235 N 
HETATM  173  H   UNK N   1     -16.445  -1.922  -2.138  0.00  0.00     0.174 HD
ATOM    174  HN  UNK N   1     -17.763  -2.722  -1.504  1.00  0.00     0.174 HD
HETATM  175  H   UNK N   1     -17.419  -5.075  -0.709  0.00  0.00     0.174 HD
HETATM  176  H   UNK N   1     -15.755  -5.448  -0.697  0.00  0.00     0.174 HD
HETATM  177  H   UNK N   1     -15.021  -1.922   0.224  0.00  0.00     0.177 HD
ENDBRANCH 168 169
ENDBRANCH 167 168
ENDBRANCH 166 167
ENDBRANCH 165 166
BRANCH 165 178
HETATM  178  N   UNK N   1     -11.883  -4.789  -2.073  0.00  0.00    -0.346 N 
HETATM  179  C   UNK N   1     -10.626  -5.293  -2.204  0.00  0.00     0.241 C 
HETATM  180  O   UNK N   1     -10.420  -6.125  -3.072  0.00  0.00    -0.271 OA
HETATM  181  H   UNK N   1     -12.586  -5.172  -2.647  0.00  0.00     0.163 HD
BRANCH 179 182
HETATM  182  C   UNK N   1      -9.463  -4.875  -1.321  0.00  0.00     0.180 C 
BRANCH 182 183
HETATM  183  C   UNK N   1      -9.167  -3.387  -1.532  0.00  0.00     0.073 C 
BRANCH 183 184
HETATM  184  C   UNK N   1      -8.267  -2.732  -0.523  0.00  0.00    -0.056 A 
HETATM  185  C   UNK N   1      -7.182  -1.968  -0.961  0.00  0.00     0.007 A 
HETATM  186  C   UNK N   1      -6.421  -1.244  -0.037  0.00  0.00     0.001 A 
HETATM  187  C   UNK N   1      -6.741  -1.270   1.323  0.00  0.00     0.000 A 
HETATM  188  C   UNK N   1      -7.819  -2.036   1.768  0.00  0.00     0.001 A 
HETATM  189  C   UNK N   1      -8.582  -2.758   0.846  0.00  0.00     0.007 A 
ENDBRANCH 183 184
ENDBRANCH 182 183
BRANCH 182 190
HETATM  190  N   UNK N   1      -9.694  -5.146   0.086  0.00  0.00    -0.346 N 
HETATM  191  C   UNK N   1     -10.117  -6.310   0.634  0.00  0.00     0.241 C 
HETATM  192  O   UNK N   1     -10.193  -6.390   1.851  0.00  0.00    -0.271 OA
HETATM  193  H   UNK N   1      -9.524  -4.403   0.710  0.00  0.00     0.163 HD
BRANCH 191 194
HETATM  194  C   UNK N   1     -10.534  -7.484  -0.221  0.00  0.00     0.182 C 
BRANCH 194 195
HETATM  195  C   UNK N   1     -11.131  -8.644   0.552  0.00  0.00     0.093 C 
BRANCH 195 196
HETATM  196  C   UNK N   1     -12.575  -8.324   0.701  0.00  0.00     0.028 A 
HETATM  197  N   UNK N   1     -13.427  -8.235  -0.332  0.00  0.00    -0.354 N 
HETATM  198  C   UNK N   1     -14.597  -7.858   0.216  0.00  0.00     0.180 A 
HETATM  199  H   UNK N   1     -13.238  -8.407  -1.282  0.00  0.00     0.166 HD
HETATM  200  N   UNK N   1     -14.496  -7.702   1.554  0.00  0.00    -0.360 N 
HETATM  201  C   UNK N   1     -13.218  -7.992   1.865  0.00  0.00     0.114 A 
ATOM    202  HN  UNK N   1     -15.236  -7.422   2.197  1.00  0.00     0.166 HD
ENDBRANCH 195 196
ENDBRANCH 194 195
BRANCH 194 203
HETATM  203  N   UNK N   1      -9.532  -7.901  -1.169  0.00  0.00    -0.346 N 
HETATM  204  C   UNK N   1      -8.252  -8.185  -0.866  0.00  0.00     0.241 C 
HETATM  205  O   UNK N   1      -7.494  -8.488  -1.773  0.00  0.00    -0.271 OA
HETATM  206  H   UNK N   1      -9.805  -7.983  -2.112  0.00  0.00     0.163 HD
BRANCH 204 207
HETATM  207  C   UNK N   1      -7.762  -8.131   0.573  0.00  0.00     0.177 C 
BRANCH 207 208
HETATM  208  C   UNK N   1      -7.214  -9.462   1.121  0.00  0.00     0.045 C 
BRANCH 208 209
HETATM  209  C   UNK N   1      -7.623 -10.677   0.297  0.00  0.00     0.112 C 
BRANCH 209 210
HETATM  210  C   UNK N   1      -6.419 -11.457  -0.126  0.00  0.00     0.139 C 
HETATM  211  O   UNK N   1      -5.488 -10.905  -0.692  0.00  0.00    -0.650 OA
BRANCH 210 212
HETATM  212  O   UNK N   1      -6.380 -12.784   0.083  0.00  0.00    -0.776 OA
HETATM  213  H   UNK N   1      -7.168 -13.270   0.229  0.00  0.00     0.167 HD
ENDBRANCH 210 212
ENDBRANCH 209 210
ENDBRANCH 208 209
ENDBRANCH 207 208
BRANCH 207 214
HETATM  214  N   UNK N   1      -6.776  -7.083   0.753  0.00  0.00    -0.346 N 
HETATM  215  C   UNK N   1      -5.572  -7.148   0.141  0.00  0.00     0.241 C 
HETATM  216  O   UNK N   1      -5.316  -8.095  -0.592  0.00  0.00    -0.271 OA
HETATM  217  H   UNK N   1      -6.986  -6.313   1.330  0.00  0.00     0.163 HD
BRANCH 215 218
HETATM  218  C   UNK N   1      -4.496  -6.130   0.409  0.00  0.00     0.177 C 
BRANCH 218 219
HETATM  219  N   UNK N   1      -3.319  -6.619  -0.241  0.00  0.00    -0.346 N 
HETATM  220  C   UNK N   1      -2.739  -7.715   0.291  0.00  0.00     0.243 C 
HETATM  221  O   UNK N   1      -2.937  -8.007   1.466  0.00  0.00    -0.271 OA
HETATM  222  H   UNK N   1      -2.950  -6.176  -1.040  0.00  0.00     0.163 HD
BRANCH 220 223
HETATM  223  C   UNK N   1      -1.933  -8.610  -0.588  0.00  0.00     0.200 C 
BRANCH 223 224
HETATM  224  N   UNK N   1      -0.684  -7.920  -0.740  0.00  0.00    -0.344 N 
HETATM  225  C   UNK N   1       0.077  -7.691   0.355  0.00  0.00     0.241 C 
HETATM  226  O   UNK N   1       0.044  -8.465   1.303  0.00  0.00    -0.271 OA
HETATM  227  H   UNK N   1      -0.385  -7.619  -1.628  0.00  0.00     0.163 HD
BRANCH 225 228
HETATM  228  C   UNK N   1       0.813  -6.404   0.514  0.00  0.00     0.180 C 
BRANCH 228 229
HETATM  229  C   UNK N   1       0.729  -5.485  -0.719  0.00  0.00     0.073 C 
BRANCH 229 230
HETATM  230  C   UNK N   1      -0.392  -4.509  -0.543  0.00  0.00    -0.056 A 
HETATM  231  C   UNK N   1      -0.480  -3.781   0.650  0.00  0.00     0.010 A 
HETATM  232  C   UNK N   1      -1.509  -2.864   0.843  0.00  0.00     0.037 A 
HETATM  233  C   UNK N   1      -2.448  -2.652  -0.163  0.00  0.00     0.065 A 
HETATM  234  C   UNK N   1      -2.361  -3.360  -1.368  0.00  0.00     0.037 A 
HETATM  235  C   UNK N   1      -1.335  -4.296  -1.558  0.00  0.00     0.010 A 
BRANCH 233 236
HETATM  236  O   UNK N   1      -3.440  -1.773   0.034  0.00  0.00    -0.361 OA
HETATM  237  H   UNK N   1      -3.254  -0.865   0.171  0.00  0.00     0.217 HD
ENDBRANCH 233 236
ENDBRANCH 229 230
ENDBRANCH 228 229
BRANCH 228 238
HETATM  238  N   UNK N   1       2.116  -6.801   0.934  0.00  0.00    -0.346 N 
HETATM  239  C   UNK N   1       3.270  -6.590   0.292  0.00  0.00     0.242 C 
HETATM  240  O   UNK N   1       3.433  -5.629  -0.446  0.00  0.00    -0.271 OA
HETATM  241  H   UNK N   1       2.172  -7.284   1.790  0.00  0.00     0.163 HD
BRANCH 239 242
HETATM  242  C   UNK N   1       4.200  -7.746   0.298  0.00  0.00     0.191 C 
BRANCH 242 243
HETATM  243  N   UNK N   1       5.380  -7.480  -0.500  0.00  0.00    -0.417 N 
HETATM  244  H   UNK N   1       5.957  -8.106  -1.062  0.00  0.00     0.150 HD
HETATM  245  H   UNK N   1       5.683  -6.506  -0.500  0.00  0.00     0.150 HD
ENDBRANCH 242 243
BRANCH 242 246
HETATM  246  C   UNK N   1       3.383  -8.872  -0.353  0.00  0.00     0.198 C 
BRANCH 246 247
HETATM  247  O   UNK N   1       3.974 -10.116  -0.175  0.00  0.00    -0.398 OA
HETATM  248  H   UNK N   1       3.428 -10.908  -0.051  0.00  0.00     0.209 HD
ENDBRANCH 246 247
ENDBRANCH 242 246
ENDBRANCH 239 242
ENDBRANCH 228 238
ENDBRANCH 225 228
ENDBRANCH 223 224
BRANCH 223 249
HETATM  249  C   UNK N   1      -1.827 -10.012   0.028  0.00  0.00     0.199 C 
BRANCH 249 250
HETATM  250  O   UNK N   1      -1.896 -10.988  -0.959  0.00  0.00    -0.398 OA
HETATM  251  H   UNK N   1      -2.509 -11.288  -1.648  0.00  0.00     0.209 HD
ENDBRANCH 249 250
ENDBRANCH 223 249
ENDBRANCH 220 223
ENDBRANCH 218 219
BRANCH 218 252
HETATM  252  C   UNK N   1      -4.870  -4.756  -0.066  0.00  0.00     0.045 C 
BRANCH 252 253
HETATM  253  C   UNK N   1      -5.819  -4.157   0.942  0.00  0.00     0.076 C 
BRANCH 253 254
HETATM  254  S   UNK N   1      -5.081  -4.011   2.600  0.00  0.00    -0.173 SA
HETATM  255  C   UNK N   1      -6.438  -4.964   3.338  0.00  0.00     0.089 C 
ENDBRANCH 253 254
ENDBRANCH 252 253
ENDBRANCH 218 252
ENDBRANCH 215 218
ENDBRANCH 207 214
ENDBRANCH 204 207
ENDBRANCH 194 203
ENDBRANCH 191 194
ENDBRANCH 182 190
ENDBRANCH 179 182
ENDBRANCH 165 178
ENDBRANCH 162 165
ENDBRANCH 149 161
ENDBRANCH 146 149
ENDBRANCH 144 145
ENDBRANCH 141 144
ENDBRANCH 139 140
BRANCH 139 256
HETATM  256  C   UNK N   1     -11.699   4.110  -0.670  0.00  0.00     0.035 C 
BRANCH 256 257
HETATM  257  C   UNK N   1     -11.952   5.464  -1.283  0.00  0.00     0.004 C 
BRANCH 257 258
HETATM  258  C   UNK N   1     -12.459   6.400  -0.203  0.00  0.00     0.019 C 
BRANCH 258 259
HETATM  259  C   UNK N   1     -13.903   6.795  -0.457  0.00  0.00     0.111 C 
BRANCH 259 260
HETATM  260  N   UNK N   1     -14.798   5.929   0.290  0.00  0.00    -0.430 N 
HETATM  261  H   UNK N   1     -15.640   6.169   0.815  0.00  0.00     0.149 HD
HETATM  262  H   UNK N   1     -14.550   4.939   0.290  0.00  0.00     0.149 HD
ENDBRANCH 259 260
ENDBRANCH 258 259
ENDBRANCH 257 258
ENDBRANCH 256 257
ENDBRANCH 139 256
ENDBRANCH   1 139
TORSDOF 104
