REMARK  7 active torsions:
REMARK  status: ('A' for Active; 'I' for Inactive)
REMARK    1  A    between atoms: C_2  and  C_3 
REMARK    2  A    between atoms: C_3  and  C_12 
REMARK    3  A    between atoms: O_19  and  C_20 
REMARK    4  A    between atoms: C_23  and  C_31 
REMARK    5  A    between atoms: C_31  and  C_32 
REMARK    6  A    between atoms: C_31  and  O_42 
REMARK    7  A    between atoms: C_39  and  C_40 
ROOT
HETATM    1  C   UNK N   1      -1.003  -0.099  -0.308  0.00  0.00     0.149 C 
HETATM    2  C   UNK N   1       0.188  -1.036  -0.270  0.00  0.00     0.248 C 
HETATM    3  O   UNK N   1       1.316  -0.609  -0.440  0.00  0.00    -0.271 OA
HETATM    4  N   UNK N   1      -0.003  -2.372  -0.132  0.00  0.00    -0.278 N 
HETATM    5  C   UNK N   1      -1.198  -2.874   0.272  0.00  0.00     0.329 C 
HETATM    6  O   UNK N   1      -1.358  -4.081   0.325  0.00  0.00    -0.247 OA
HETATM    7  N   UNK N   1      -2.174  -2.043   0.727  0.00  0.00    -0.278 N 
HETATM    8  C   UNK N   1      -2.061  -0.693   0.623  0.00  0.00     0.248 C 
HETATM    9  O   UNK N   1      -2.905   0.018   1.146  0.00  0.00    -0.271 OA
HETATM   10  H   UNK N   1       0.738  -2.989  -0.329  0.00  0.00     0.173 HD
HETATM   11  H   UNK N   1      -2.980  -2.428   1.141  0.00  0.00     0.173 HD
ENDROOT
BRANCH   1  12
HETATM   12  C   UNK N   1      -1.562  -0.226  -1.737  0.00  0.00     0.030 C 
HETATM   13  C   UNK N   1      -2.807   0.615  -1.982  0.00  0.00     0.007 C 
ENDBRANCH   1  12
BRANCH   1  14
HETATM   14  C   UNK N   1      -0.582   1.357  -0.055  0.00  0.00    -0.031 A 
HETATM   15  C   UNK N   1      -1.082   2.098   1.029  0.00  0.00     0.009 A 
HETATM   16  C   UNK N   1      -0.676   3.421   1.233  0.00  0.00     0.001 A 
HETATM   17  C   UNK N   1       0.236   4.019   0.359  0.00  0.00     0.000 A 
HETATM   18  C   UNK N   1       0.741   3.296  -0.722  0.00  0.00     0.001 A 
HETATM   19  C   UNK N   1       0.334   1.977  -0.929  0.00  0.00     0.009 A 
ENDBRANCH   1  14
TORSDOF 7
