REMARK  12 active torsions:
REMARK  status: ('A' for Active; 'I' for Inactive)
REMARK    1  A    between atoms: C_13  and  O_18 
REMARK    2  A    between atoms: C_15  and  C_19 
REMARK    3  A    between atoms: C_19  and  C_24 
REMARK    4  A    between atoms: C_24  and  C_29 
REMARK    5  A    between atoms: C_32  and  O_38 
REMARK    6  A    between atoms: C_39  and  O_46 
REMARK    7  A    between atoms: C_45  and  O_50 
REMARK    8  A    between atoms: C_47  and  O_52 
REMARK    9  A    between atoms: O_50  and  C_65 
REMARK   10  A    between atoms: C_51  and  O_55 
REMARK   11  A    between atoms: C_65  and  C_66 
REMARK   12  A    between atoms: C_66  and  O_67 
ROOT
HETATM    1  N   UNK N   1      -5.301   4.308  -0.193  0.00  0.00    -0.331 N 
HETATM    2  C   UNK N   1      -4.193   5.255  -0.269  0.00  0.00     0.187 C 
HETATM    3  C   UNK N   1      -5.286   3.177  -0.963  0.00  0.00     0.296 C 
HETATM    4  C   UNK N   1      -6.397   4.567   0.723  0.00  0.00     0.127 C 
HETATM    5  C   UNK N   1      -2.918   4.600   0.209  0.00  0.00     0.282 C 
HETATM    6  C   UNK N   1      -4.465   6.510   0.568  0.00  0.00     0.035 C 
HETATM    7  C   UNK N   1      -6.268   2.098  -0.776  0.00  0.00     0.278 C 
HETATM    8  O   UNK N   1      -4.368   2.985  -1.751  0.00  0.00    -0.264 OA
HETATM    9  C   UNK N   1      -6.961   5.969   0.477  0.00  0.00     0.020 C 
HETATM   10  O   UNK N   1      -2.013   4.188  -0.715  0.00  0.00    -0.314 OA
HETATM   11  O   UNK N   1      -2.758   4.359   1.397  0.00  0.00    -0.263 OA
HETATM   12  C   UNK N   1      -5.869   7.036   0.275  0.00  0.00     0.004 C 
HETATM   13  C   UNK N   1      -5.830   0.908   0.054  0.00  0.00     0.238 C 
HETATM   14  O   UNK N   1      -7.365   2.157  -1.312  0.00  0.00    -0.281 OA
HETATM   15  C   UNK N   1      -0.657   3.961  -0.553  0.00  0.00     0.142 C 
HETATM   16  O   UNK N   1      -4.558   0.518  -0.469  0.00  0.00    -0.343 OA
HETATM   17  C   UNK N   1      -6.865  -0.245   0.123  0.00  0.00     0.053 C 
HETATM   18  C   UNK N   1      -0.262   3.203   0.733  0.00  0.00     0.112 C 
HETATM   19  C   UNK N   1      -4.400  -0.845  -0.801  0.00  0.00     0.128 C 
HETATM   20  C   UNK N   1      -6.941  -0.998  -1.189  0.00  0.00     0.013 C 
HETATM   21  C   UNK N   1      -8.246   0.179   0.603  0.00  0.00     0.016 C 
HETATM   22  C   UNK N   1      -0.861   1.841   0.907  0.00  0.00     0.136 C 
HETATM   23  C   UNK N   1      -4.160  -1.659   0.468  0.00  0.00     0.068 C 
HETATM   24  C   UNK N   1      -5.546  -1.385  -1.675  0.00  0.00     0.033 C 
HETATM   25  C   UNK N   1      -0.640   0.728  -0.072  0.00  0.00     0.074 C 
HETATM   26  O   UNK N   1      -1.535   1.618   1.899  0.00  0.00    -0.297 OA
HETATM   27  C   UNK N   1      -3.773  -3.114   0.191  0.00  0.00     0.151 C 
HETATM   28  C   UNK N   1       0.772   0.242  -0.279  0.00  0.00    -0.010 C 
HETATM   29  C   UNK N   1      -1.297   0.994  -1.413  0.00  0.00     0.022 C 
HETATM   30  C   UNK N   1      -2.320  -3.301  -0.226  0.00  0.00    -0.055 C 
HETATM   31  C   UNK N   1       1.581  -0.239   0.678  0.00  0.00    -0.056 C 
HETATM   32  C   UNK N   1      -1.770  -4.506  -0.410  0.00  0.00     0.005 C 
HETATM   33  C   UNK N   1      -1.429  -2.133  -0.435  0.00  0.00     0.046 C 
HETATM   34  C   UNK N   1       2.838  -0.941   0.235  0.00  0.00     0.183 C 
HETATM   35  C   UNK N   1       1.167  -0.276   2.118  0.00  0.00     0.046 C 
HETATM   36  C   UNK N   1      -2.480  -5.780  -0.237  0.00  0.00     0.000 C 
HETATM   37  C   UNK N   1       2.746  -2.476   0.424  0.00  0.00     0.223 C 
HETATM   38  C   UNK N   1      -1.850  -6.963  -0.133  0.00  0.00    -0.000 C 
HETATM   39  C   UNK N   1       3.767  -3.236  -0.413  0.00  0.00     0.162 C 
HETATM   40  C   UNK N   1      -0.380  -7.196  -0.162  0.00  0.00    -0.004 C 
HETATM   41  C   UNK N   1       3.803  -4.754  -0.467  0.00  0.00     0.055 C 
HETATM   42  O   UNK N   1       4.558  -2.615  -1.108  0.00  0.00    -0.295 OA
HETATM   43  C   UNK N   1       0.527  -6.262  -0.486  0.00  0.00    -0.022 C 
HETATM   44  C   UNK N   1       2.722  -5.456   0.348  0.00  0.00     0.020 C 
HETATM   45  C   UNK N   1       5.164  -5.284  -0.057  0.00  0.00     0.018 C 
HETATM   46  C   UNK N   1       2.016  -6.508  -0.492  0.00  0.00     0.005 C 
HETATM   47  C   UNK N   1       2.410  -7.896  -0.009  0.00  0.00     0.014 C 
ENDROOT
BRANCH  15  48
HETATM   48  C   UNK N   1       0.084   5.296  -0.684  0.00  0.00     0.012 C 
HETATM   49  C   UNK N   1      -0.021   6.193   0.541  0.00  0.00     0.012 C 
BRANCH  48  50
HETATM   50  C   UNK N   1       1.500   5.189  -1.266  0.00  0.00     0.011 C 
BRANCH  50  51
HETATM   51  C   UNK N   1       2.474   4.287  -0.514  0.00  0.00    -0.012 C 
HETATM   52  C   UNK N   1       3.710   4.083  -1.408  0.00  0.00     0.039 C 
HETATM   53  C   UNK N   1       4.956   3.796  -0.572  0.00  0.00     0.150 C 
HETATM   54  C   UNK N   1       5.274   5.014   0.317  0.00  0.00     0.150 C 
HETATM   55  C   UNK N   1       4.029   5.808   0.754  0.00  0.00     0.035 C 
HETATM   56  C   UNK N   1       2.824   4.884   0.861  0.00  0.00     0.007 C 
BRANCH  53  57
HETATM   57  O   UNK N   1       4.752   2.660   0.216  0.00  0.00    -0.388 OA
HETATM   58  C   UNK N   1       5.798   1.801  -0.122  0.00  0.00     0.202 C 
ENDBRANCH  53  57
BRANCH  54  59
HETATM   59  O   UNK N   1       6.164   5.865  -0.344  0.00  0.00    -0.381 OA
BRANCH  59  60
HETATM   60  C   UNK N   1       7.164   6.145   0.594  0.00  0.00     0.194 C 
BRANCH  60  61
HETATM   61  C   UNK N   1       8.397   5.294   0.337  0.00  0.00     0.190 C 
BRANCH  61  62
HETATM   62  O   UNK N   1       8.130   3.960   0.646  0.00  0.00    -0.399 OA
HETATM   63  H   UNK N   1       7.234   3.657   0.861  0.00  0.00     0.209 HD
ENDBRANCH  61  62
ENDBRANCH  60  61
ENDBRANCH  59  60
ENDBRANCH  54  59
ENDBRANCH  50  51
ENDBRANCH  48  50
ENDBRANCH  15  48
BRANCH  34  64
HETATM   64  O   UNK N   1       3.957  -0.430   0.896  0.00  0.00    -0.388 OA
HETATM   65  H   UNK N   1       4.653  -0.926   1.354  0.00  0.00     0.210 HD
ENDBRANCH  34  64
BRANCH  13  66
HETATM   66  O   UNK N   1      -5.630   1.363   1.360  0.00  0.00    -0.359 OA
HETATM   67  H   UNK N   1      -5.287   1.400   2.266  0.00  0.00     0.213 HD
ENDBRANCH  13  66
BRANCH  37  68
HETATM   68  O   UNK N   1       1.461  -2.919   0.091  0.00  0.00    -0.380 OA
HETATM   69  C   UNK N   1       0.890  -3.300   1.312  0.00  0.00     0.202 C 
ENDBRANCH  37  68
BRANCH  27  70
HETATM   70  O   UNK N   1      -4.066  -3.866   1.329  0.00  0.00    -0.386 OA
HETATM   71  C   UNK N   1      -5.255  -4.526   1.005  0.00  0.00     0.202 C 
ENDBRANCH  27  70
TORSDOF 12
