REMARK  6 active torsions:
REMARK  status: ('A' for Active; 'I' for Inactive)
REMARK    1  A    between atoms: C_7  and  O_19 
REMARK    2  A    between atoms: C_8  and  C_11 
REMARK    3  A    between atoms: C_11  and  C_12 
REMARK    4  A    between atoms: C_11  and  C_20 
REMARK    5  A    between atoms: C_17  and  N_24 
REMARK    6  A    between atoms: C_20  and  C_21 
ROOT
HETATM    1  C   UNK N   1      13.083 -10.780   0.221  0.00  0.00     0.067 C 
ENDROOT
BRANCH   1   2
HETATM    2  C   UNK N   1      11.740 -10.019   0.150  0.00  0.00     0.060 A 
HETATM    3  C   UNK N   1      10.537 -10.761   0.106  0.00  0.00     0.091 A 
HETATM    4  C   UNK N   1       9.310 -10.095   0.021  0.00  0.00     0.032 A 
HETATM    5  C   UNK N   1       8.099 -10.798  -0.046  0.00  0.00     0.017 A 
HETATM    6  C   UNK N   1       9.299  -8.689  -0.004  0.00  0.00     0.092 A 
HETATM    7  C   UNK N   1       6.889 -10.104  -0.141  0.00  0.00     0.001 A 
HETATM    8  C   UNK N   1       6.883  -8.706  -0.168  0.00  0.00     0.003 A 
HETATM    9  C   UNK N   1       8.086  -8.000  -0.097  0.00  0.00     0.038 A 
HETATM   10  O   UNK N   1      10.433  -8.010   0.069  0.00  0.00    -0.274 OA
HETATM   11  C   UNK N   1      11.624  -8.594   0.150  0.00  0.00     0.298 A 
HETATM   12  O   UNK N   1      12.603  -7.881   0.241  0.00  0.00    -0.259 OA
BRANCH   3  13
HETATM   13  O   UNK N   1      10.561 -12.109   0.140  0.00  0.00    -0.359 OA
HETATM   14  H   UNK N   1       9.758 -12.591   0.164  0.00  0.00     0.217 HD
ENDBRANCH   3  13
ENDBRANCH   1   2
BRANCH   1  15
HETATM   15  C   UNK N   1      14.334  -9.940   0.172  0.00  0.00    -0.049 A 
HETATM   16  C   UNK N   1      14.646  -9.188  -0.974  0.00  0.00     0.010 A 
HETATM   17  C   UNK N   1      15.778  -8.374  -0.993  0.00  0.00     0.036 A 
HETATM   18  C   UNK N   1      16.634  -8.326   0.117  0.00  0.00     0.102 A 
HETATM   19  C   UNK N   1      16.345  -9.114   1.242  0.00  0.00     0.036 A 
HETATM   20  C   UNK N   1      15.196  -9.910   1.273  0.00  0.00     0.010 A 
BRANCH  18  21
HETATM   21  N   UNK N   1      17.776  -7.479   0.106  0.00  0.00    -0.116 N 
HETATM   22  O   UNK N   1      18.631  -7.508   1.108  0.00  0.00    -0.532 OA
HETATM   23  O   UNK N   1      17.956  -6.719  -0.797  0.00  0.00    -0.532 OA
ENDBRANCH  18  21
ENDBRANCH   1  15
BRANCH   1  24
HETATM   24  C   UNK N   1      13.175 -11.865  -0.861  0.00  0.00     0.092 C 
BRANCH  24  25
HETATM   25  C   UNK N   1      14.029 -13.021  -0.426  0.00  0.00     0.124 C 
HETATM   26  C   UNK N   1      15.497 -12.855  -0.214  0.00  0.00     0.091 C 
HETATM   27  O   UNK N   1      13.521 -14.118  -0.268  0.00  0.00    -0.298 OA
ENDBRANCH  24  25
ENDBRANCH   1  24
TORSDOF 6
