REMARK  8 active torsions:
REMARK  status: ('A' for Active; 'I' for Inactive)
REMARK    1  A    between atoms: C_1  and  N_10 
REMARK    2  A    between atoms: N_13  and  C_12 
REMARK    3  A    between atoms: O_22  and  C_20 
REMARK    4  A    between atoms: C_21  and  C_20 
REMARK    5  A    between atoms: C_23  and  O_22 
REMARK    6  A    between atoms: C_23  and  O_29 
REMARK    7  A    between atoms: C_27  and  C_28 
REMARK    8  A    between atoms: O_29  and  C_28 
ROOT
HETATM    1  C   UNK N   1      -1.646   1.336  -0.068  0.00  0.00     0.197 A 
HETATM    2  N   UNK N   1       0.016   0.051   0.086  0.00  0.00    -0.220 NA
HETATM    3  C   UNK N   1      -0.069   1.398  -0.376  0.00  0.00     0.160 A 
HETATM    4  C   UNK N   1      -1.239  -0.006   0.415  0.00  0.00     0.226 A 
HETATM    5  C   UNK N   1       2.044   0.846   0.933  0.00  0.00     0.028 C 
HETATM    6  S   UNK N   1       0.967   2.323   0.832  0.00  0.00    -0.135 SA
HETATM    7  C   UNK N   1       2.922   0.853   2.168  0.00  0.00     0.029 C 
HETATM    8  C   UNK N   1       2.908   0.906  -0.313  0.00  0.00     0.029 C 
HETATM    9  O   UNK N   1      -1.697  -0.669   1.339  0.00  0.00    -0.277 OA
HETATM   10  C   UNK N   1       1.056  -0.330   0.975  0.00  0.00     0.184 C 
ENDROOT
BRANCH  10  11
HETATM   11  C   UNK N   1       1.523  -1.749   0.774  0.00  0.00     0.280 C 
HETATM   12  O   UNK N   1       1.445  -2.539   1.701  0.00  0.00    -0.263 OA
BRANCH  11  13
HETATM   13  O   UNK N   1       1.960  -2.166  -0.434  0.00  0.00    -0.294 OA
BRANCH  13  14
HETATM   14  C   UNK N   1       3.249  -2.608  -0.601  0.00  0.00     0.358 C 
BRANCH  14  15
HETATM   15  O   UNK N   1       4.031  -1.488  -0.739  0.00  0.00    -0.294 OA
BRANCH  15  16
HETATM   16  C   UNK N   1       5.290  -1.304  -0.277  0.00  0.00     0.268 C 
HETATM   17  O   UNK N   1       5.709  -0.159  -0.186  0.00  0.00    -0.264 OA
BRANCH  16  18
HETATM   18  C   UNK N   1       6.201  -2.462   0.060  0.00  0.00     0.037 C 
HETATM   19  C   UNK N   1       7.573  -1.973   0.498  0.00  0.00     0.025 C 
HETATM   20  C   UNK N   1       5.621  -3.301   1.181  0.00  0.00     0.025 C 
HETATM   21  C   UNK N   1       6.379  -3.319  -1.178  0.00  0.00     0.025 C 
ENDBRANCH  16  18
ENDBRANCH  15  16
ENDBRANCH  14  15
ENDBRANCH  13  14
ENDBRANCH  11  13
ENDBRANCH  10  11
BRANCH   1  22
HETATM   22  N   UNK N   1      -2.390   1.056  -1.271  0.00  0.00    -0.371 N 
HETATM   23  C   UNK N   1      -3.679   1.064  -1.315  0.00  0.00     0.174 C 
ATOM     24  HN  UNK N   1      -1.875   0.842  -2.125  1.00  0.00     0.161 HD
BRANCH  23  25
HETATM   25  N   UNK N   1      -4.480   1.511  -0.223  0.00  0.00    -0.377 N 
HETATM   26  C   UNK N   1      -5.732   0.828   0.024  0.00  0.00     0.123 C 
HETATM   27  C   UNK N   1      -6.918   1.608  -0.511  0.00  0.00     0.020 C 
HETATM   28  C   UNK N   1      -7.372   2.665   0.479  0.00  0.00     0.002 C 
HETATM   29  C   UNK N   1      -6.348   3.780   0.598  0.00  0.00     0.002 C 
HETATM   30  C   UNK N   1      -5.160   3.299   1.415  0.00  0.00     0.020 C 
HETATM   31  C   UNK N   1      -4.079   2.702   0.520  0.00  0.00     0.123 C 
ENDBRANCH  23  25
ENDBRANCH   1  22
TORSDOF 8
