REMARK  11 active torsions:
REMARK  status: ('A' for Active; 'I' for Inactive)
REMARK    1  A    between atoms: C_6  and  C_33 
REMARK    2  A    between atoms: C_9  and  N_16 
REMARK       I    between atoms: C_14  and  N_16 
REMARK    3  A    between atoms: C_18  and  C_14 
REMARK    4  A    between atoms: C_21  and  C_47 
REMARK    5  A    between atoms: C_35  and  C_23 
REMARK    6  A    between atoms: C_25  and  C_61 
REMARK    7  A    between atoms: C_30  and  S_31 
REMARK    8  A    between atoms: S_31  and  C_35 
REMARK    9  A    between atoms: C_56  and  C_33 
REMARK   10  A    between atoms: O_60  and  C_41 
REMARK   11  A    between atoms: N_45  and  C_43 
ROOT
HETATM    1  N   UNK N   1       2.034  -1.108   0.078  0.00  0.00    -0.336 N 
HETATM    2  C   UNK N   1       1.462  -0.248  -0.839  0.00  0.00     0.243 C 
HETATM    3  N   UNK N   1       0.046   1.807  -0.802  0.00  0.00    -0.341 N 
HETATM    4  C   UNK N   1      -0.901   1.678   0.206  0.00  0.00     0.243 C 
HETATM    5  N   UNK N   1      -3.119   2.608  -0.761  0.00  0.00    -0.337 N 
HETATM    6  C   UNK N   1       1.400   1.263  -0.682  0.00  0.00     0.183 C 
HETATM    7  C   UNK N   1       1.807  -2.539  -0.024  0.00  0.00     0.186 C 
HETATM    8  N   UNK N   1      -0.528  -2.722   0.836  0.00  0.00    -0.342 N 
HETATM    9  C   UNK N   1      -5.187  -0.812  -0.042  0.00  0.00     0.206 C 
HETATM   10  C   UNK N   1      -4.455   2.307  -0.674  0.00  0.00     0.243 C 
HETATM   11  C   UNK N   1       0.801  -2.886   1.059  0.00  0.00     0.242 C 
HETATM   12  C   UNK N   1      -6.431  -0.006   0.270  0.00  0.00     0.243 C 
HETATM   13  C   UNK N   1      -2.315  -1.745  -0.512  0.00  0.00     0.286 C 
HETATM   14  N   UNK N   1      -6.364   1.318   0.559  0.00  0.00    -0.346 N 
HETATM   15  C   UNK N   1      -2.187   2.558   0.356  0.00  0.00     0.179 C 
HETATM   16  O   UNK N   1      -2.905  -1.432   0.668  0.00  0.00    -0.312 OA
HETATM   17  C   UNK N   1       2.679  -0.645   1.294  0.00  0.00     0.139 C 
HETATM   18  C   UNK N   1      -1.053  -2.554  -0.501  0.00  0.00     0.217 C 
HETATM   19  C   UNK N   1       3.100  -3.339   0.065  0.00  0.00     0.113 C 
HETATM   20  C   UNK N   1       3.984  -1.404   1.621  0.00  0.00     0.083 C 
HETATM   21  C   UNK N   1       4.104  -2.790   1.027  0.00  0.00     0.135 C 
HETATM   22  C   UNK N   1      -5.122   2.058   0.657  0.00  0.00     0.176 C 
HETATM   23  C   UNK N   1      -3.943  -0.542   0.848  0.00  0.00     0.159 C 
HETATM   24  O   UNK N   1       0.928  -0.706  -1.841  0.00  0.00    -0.271 OA
HETATM   25  O   UNK N   1      -0.668   0.894   1.121  0.00  0.00    -0.271 OA
HETATM   26  O   UNK N   1      -5.173   2.470  -1.658  0.00  0.00    -0.271 OA
HETATM   27  O   UNK N   1      -7.521  -0.556   0.270  0.00  0.00    -0.271 OA
HETATM   28  O   UNK N   1       1.185  -3.140   2.190  0.00  0.00    -0.271 OA
HETATM   29  O   UNK N   1      -2.778  -1.352  -1.574  0.00  0.00    -0.263 OA
HETATM   30  O   UNK N   1       5.076  -3.476   1.306  0.00  0.00    -0.297 OA
HETATM   31  C   UNK N   1      -2.731   3.565  -1.743  0.00  0.00     0.127 C 
HETATM   32  C   UNK N   1      -0.164   2.625  -1.962  0.00  0.00     0.153 C 
HETATM   33  C   UNK N   1      -1.793   4.016   0.485  0.00  0.00     0.037 C 
HETATM   34  C   UNK N   1      -2.029   4.638  -0.903  0.00  0.00     0.022 C 
HETATM   35  C   UNK N   1      -4.262  -0.445   2.333  0.00  0.00     0.042 C 
HETATM   36  H   UNK N   1      -1.147  -2.718   1.601  0.00  0.00     0.163 HD
HETATM   37  H   UNK N   1      -7.207   1.803   0.712  0.00  0.00     0.163 HD
ENDROOT
BRANCH   9  38
HETATM   38  N   UNK N   1      -5.457  -2.212  -0.334  0.00  0.00    -0.340 N 
HETATM   39  C   UNK N   1      -5.388  -3.217   0.576  0.00  0.00     0.271 C 
HETATM   40  O   UNK N   1      -5.168  -2.976   1.751  0.00  0.00    -0.266 OA
HETATM   41  H   UNK N   1      -5.707  -2.446  -1.257  0.00  0.00     0.163 HD
BRANCH  39  42
HETATM   42  C   UNK N   1      -5.498  -4.616   0.119  0.00  0.00     0.134 A 
HETATM   43  N   UNK N   1      -6.005  -4.877  -1.119  0.00  0.00    -0.359 N 
HETATM   44  C   UNK N   1      -6.110  -6.146  -1.597  0.00  0.00     0.088 A 
ATOM     45  HN  UNK N   1      -6.315  -4.099  -1.703  1.00  0.00     0.165 HD
HETATM   46  C   UNK N   1      -5.675  -7.224  -0.827  0.00  0.00     0.020 A 
HETATM   47  C   UNK N   1      -5.134  -6.988   0.435  0.00  0.00     0.040 A 
HETATM   48  C   UNK N   1      -5.044  -5.685   0.920  0.00  0.00     0.098 A 
BRANCH  48  49
HETATM   49  O   UNK N   1      -4.488  -5.468   2.126  0.00  0.00    -0.358 OA
HETATM   50  H   UNK N   1      -4.164  -5.728   2.965  0.00  0.00     0.217 HD
ENDBRANCH  48  49
ENDBRANCH  39  42
ENDBRANCH   9  38
BRANCH  22  51
HETATM   51  C   UNK N   1      -5.374   3.395   1.360  0.00  0.00     0.030 C 
HETATM   52  C   UNK N   1      -6.296   4.310   0.561  0.00  0.00     0.007 C 
ENDBRANCH  22  51
BRANCH  18  53
HETATM   53  C   UNK N   1      -1.198  -3.936  -1.048  0.00  0.00    -0.026 A 
HETATM   54  C   UNK N   1      -0.380  -4.358  -2.101  0.00  0.00     0.010 A 
HETATM   55  C   UNK N   1      -0.343  -5.708  -2.458  0.00  0.00     0.001 A 
HETATM   56  C   UNK N   1      -1.111  -6.639  -1.753  0.00  0.00     0.000 A 
HETATM   57  C   UNK N   1      -1.937  -6.219  -0.708  0.00  0.00     0.001 A 
HETATM   58  C   UNK N   1      -1.974  -4.872  -0.351  0.00  0.00     0.010 A 
ENDBRANCH  18  53
BRANCH   6  59
HETATM   59  C   UNK N   1       2.146   1.941   0.479  0.00  0.00     0.073 C 
BRANCH  59  60
HETATM   60  C   UNK N   1       1.975   3.422   0.401  0.00  0.00    -0.056 A 
HETATM   61  C   UNK N   1       1.249   4.079   1.394  0.00  0.00     0.009 A 
HETATM   62  C   UNK N   1       0.957   5.438   1.262  0.00  0.00     0.030 A 
HETATM   63  C   UNK N   1       1.393   6.154   0.135  0.00  0.00     0.029 A 
HETATM   64  C   UNK N   1       2.150   5.490  -0.844  0.00  0.00     0.030 A 
HETATM   65  C   UNK N   1       2.430   4.130  -0.716  0.00  0.00     0.009 A 
BRANCH  63  66
HETATM   66  N   UNK N   1       1.048   7.529  -0.026  0.00  0.00    -0.390 N 
HETATM   67  C   UNK N   1       0.151   8.177   0.897  0.00  0.00     0.149 C 
HETATM   68  C   UNK N   1       1.539   8.287  -1.150  0.00  0.00     0.149 C 
ENDBRANCH  63  66
ENDBRANCH  59  60
ENDBRANCH   6  59
BRANCH  20  69
HETATM   69  C   UNK N   1       5.225  -0.584   1.287  0.00  0.00     0.088 C 
BRANCH  69  70
HETATM   70  S   UNK N   1       5.414  -0.138  -0.471  0.00  0.00    -0.161 SA
BRANCH  70  71
HETATM   71  C   UNK N   1       5.114   1.620  -0.103  0.00  0.00     0.079 C 
HETATM   72  C   UNK N   1       5.101   2.464  -1.395  0.00  0.00     0.287 C 
HETATM   73  N   UNK N   1       5.942   3.670  -1.252  0.00  0.00     0.089 N 
HETATM   74  C   UNK N   1       5.515   4.446  -0.071  0.00  0.00     0.273 C 
HETATM   75  C   UNK N   1       7.340   3.245  -1.060  0.00  0.00     0.273 C 
HETATM   76  C   UNK N   1       5.642   3.619   1.228  0.00  0.00     0.036 C 
HETATM   77  C   UNK N   1       6.132   2.211   0.886  0.00  0.00     0.004 C 
HETATM   78  C   UNK N   1       7.490   2.345   0.187  0.00  0.00     0.036 C 
ENDBRANCH  70  71
ENDBRANCH  69  70
ENDBRANCH  20  69
TORSDOF 11
