REMARK  6 active torsions:
REMARK  status: ('A' for Active; 'I' for Inactive)
REMARK    1  A    between atoms: C_3  and  O_9 
REMARK    2  A    between atoms: C_8  and  N_13 
REMARK    3  A    between atoms: O_9  and  C_14 
REMARK    4  A    between atoms: C_28  and  N_31 
REMARK    5  A    between atoms: C_30  and  O_32 
REMARK    6  A    between atoms: O_32  and  C_35 
ROOT
HETATM    1  C   UNK N   1      16.386  -9.966   0.532  0.00  0.00    -0.011 C 
HETATM    2  C   UNK N   1      16.581 -11.286  -0.229  0.00  0.00     0.003 C 
HETATM    3  C   UNK N   1      17.608  -9.130   0.178  0.00  0.00     0.171 C 
HETATM    4  C   UNK N   1      15.013  -9.402   0.173  0.00  0.00     0.012 C 
HETATM    5  C   UNK N   1      16.483 -10.134   2.055  0.00  0.00     0.018 C 
HETATM    6  C   UNK N   1      15.583 -12.344   0.301  0.00  0.00    -0.005 C 
HETATM    7  C   UNK N   1      18.072 -11.534  -0.064  0.00  0.00     0.042 C 
HETATM    8  C   UNK N   1      18.647 -10.129  -0.374  0.00  0.00     0.220 C 
HETATM    9  C   UNK N   1      13.942 -10.376   0.664  0.00  0.00     0.007 C 
HETATM   10  C   UNK N   1      14.130 -11.811   0.116  0.00  0.00    -0.002 C 
HETATM   11  C   UNK N   1      15.685 -13.709  -0.390  0.00  0.00     0.006 C 
HETATM   12  C   UNK N   1      13.127 -12.770   0.818  0.00  0.00    -0.034 C 
HETATM   13  C   UNK N   1      14.699 -14.703   0.255  0.00  0.00     0.006 C 
HETATM   14  C   UNK N   1      13.236 -14.211   0.238  0.00  0.00    -0.004 C 
HETATM   15  C   UNK N   1      11.702 -12.241   0.666  0.00  0.00     0.048 C 
HETATM   16  C   UNK N   1      13.402 -12.814   2.323  0.00  0.00     0.016 C 
HETATM   17  C   UNK N   1      12.654 -14.304  -1.186  0.00  0.00     0.040 C 
HETATM   18  C   UNK N   1      11.247 -12.305  -0.799  0.00  0.00     0.253 C 
HETATM   19  C   UNK N   1      11.209 -13.762  -1.265  0.00  0.00     0.165 C 
ENDROOT
BRANCH   8  20
HETATM   20  N   UNK N   1      20.015  -9.885   0.136  0.00  0.00    -0.064 N 
HETATM   21  C   UNK N   1      20.927 -10.881  -0.461  0.00  0.00     0.237 C 
HETATM   22  C   UNK N   1      22.386 -10.414  -0.622  0.00  0.00     0.028 C 
HETATM   23  C   UNK N   1      22.743  -9.331   0.383  0.00  0.00     0.003 C 
HETATM   24  C   UNK N   1      21.825  -8.123   0.216  0.00  0.00     0.028 C 
HETATM   25  C   UNK N   1      20.409  -8.513  -0.243  0.00  0.00     0.237 C 
HETATM   26  C   UNK N   1      20.035 -10.030   1.594  0.00  0.00     0.273 C 
ENDBRANCH   8  20
BRANCH   3  27
HETATM   27  O   UNK N   1      17.379  -8.065  -0.669  0.00  0.00    -0.313 OA
BRANCH  27  28
HETATM   28  C   UNK N   1      16.838  -6.897  -0.226  0.00  0.00     0.255 C 
HETATM   29  C   UNK N   1      16.402  -6.718   1.199  0.00  0.00     0.126 C 
HETATM   30  O   UNK N   1      16.710  -5.964  -1.001  0.00  0.00    -0.266 OA
ENDBRANCH  27  28
ENDBRANCH   3  27
BRANCH  18  31
HETATM   31  N   UNK N   1      10.015 -11.545  -1.059  0.00  0.00     0.095 N 
HETATM   32  C   UNK N   1      10.391 -10.127  -0.979  0.00  0.00     0.273 C 
HETATM   33  C   UNK N   1       9.191  -9.217  -1.206  0.00  0.00     0.030 C 
HETATM   34  C   UNK N   1       8.134  -9.519  -0.156  0.00  0.00     0.003 C 
HETATM   35  C   UNK N   1       7.743 -10.987  -0.248  0.00  0.00     0.030 C 
HETATM   36  C   UNK N   1       8.981 -11.858  -0.057  0.00  0.00     0.273 C 
ENDBRANCH  18  31
BRANCH  19  37
HETATM   37  O   UNK N   1      10.339 -14.478  -0.457  0.00  0.00    -0.314 OA
BRANCH  37  38
HETATM   38  C   UNK N   1      10.052 -15.795  -0.596  0.00  0.00     0.255 C 
HETATM   39  C   UNK N   1       9.072 -16.429   0.329  0.00  0.00     0.126 C 
HETATM   40  O   UNK N   1      10.589 -16.469  -1.462  0.00  0.00    -0.266 OA
ENDBRANCH  37  38
ENDBRANCH  19  37
TORSDOF 6
