REMARK  1 active torsions:
REMARK  status: ('A' for Active; 'I' for Inactive)
REMARK    1  A    between atoms: Bi_10  and  O_12 
ROOT
HETATM    1  C   UNK N   1      -0.868  -0.054  -0.000  0.00  0.00     0.078 A 
HETATM    2  C   UNK N   1       0.380  -0.796   0.000  0.00  0.00     0.123 A 
HETATM    3  C   UNK N   1      -1.076   1.459   0.000  0.00  0.00     0.325 A 
HETATM    4  C   UNK N   1      -2.060  -0.807  -0.000  0.00  0.00     0.021 A 
HETATM    5  O   UNK N   1       1.613  -0.241   0.000  0.00  0.00    -0.191 OA
HETATM    6  C   UNK N   1       0.344  -2.196   0.000  0.00  0.00     0.041 A 
HETATM    7  O   UNK N   1      -0.080   2.380   0.000  0.00  0.00    -0.144 OA
HETATM    8  O   UNK N   1      -2.223   1.880   0.000  0.00  0.00    -0.257 OA
HETATM    9  C   UNK N   1      -2.060  -2.200  -0.000  0.00  0.00     0.001 A 
HETATM   10 Bi   UNK N   1       1.856   1.772  -0.001  0.00  0.00     0.000 Bi
HETATM   11  C   UNK N   1      -0.859  -2.893  -0.000  0.00  0.00     0.003 A 
ENDROOT
BRANCH  10  12
HETATM   12  O   UNK N   1       3.691   2.841   0.000  0.00  0.00    -0.253 OA
HETATM   13  H   UNK N   1       4.533   2.360   0.001  0.00  0.00     0.253 HD
ENDBRANCH  10  12
TORSDOF 1
