REMARK  2 active torsions:
REMARK  status: ('A' for Active; 'I' for Inactive)
REMARK    1  A    between atoms: C_2  and  C_3 
REMARK    2  A    between atoms: C_2  and  C_9 
ROOT
HETATM    1  O   UNK N   1       0.587   0.557  -0.001  0.00  0.00    -0.287 OA
HETATM    2  C   UNK N   1       1.635  -0.072  -0.001  0.00  0.00     0.192 C 
ENDROOT
BRANCH   2   3
HETATM    3  C   UNK N   1       1.569  -1.568  -0.001  0.00  0.00     0.015 A 
HETATM    4  C   UNK N   1       2.729  -2.359  -0.004  0.00  0.00     0.015 A 
HETATM    5  C   UNK N   1       2.650  -3.751  -0.004  0.00  0.00     0.001 A 
HETATM    6  C   UNK N   1       1.403  -4.376  -0.001  0.00  0.00     0.000 A 
HETATM    7  C   UNK N   1       0.238  -3.606   0.002  0.00  0.00     0.001 A 
HETATM    8  C   UNK N   1       0.319  -2.209   0.002  0.00  0.00     0.015 A 
ENDBRANCH   2   3
BRANCH   2   9
HETATM    9  C   UNK N   1       2.924   0.691  -0.000  0.00  0.00     0.015 A 
HETATM   10  C   UNK N   1       2.900   2.096  -0.002  0.00  0.00     0.015 A 
HETATM   11  C   UNK N   1       4.094   2.826  -0.000  0.00  0.00     0.001 A 
HETATM   12  C   UNK N   1       5.323   2.160   0.003  0.00  0.00     0.000 A 
HETATM   13  C   UNK N   1       5.359   0.766   0.005  0.00  0.00     0.001 A 
HETATM   14  C   UNK N   1       4.168   0.041   0.003  0.00  0.00     0.015 A 
ENDBRANCH   2   9
TORSDOF 2
