REMARK  12 active torsions:
REMARK  status: ('A' for Active; 'I' for Inactive)
REMARK    1  A    between atoms: O_13  and  C_1 
REMARK    2  A    between atoms: C_2  and  O_23 
REMARK    3  A    between atoms: C_4  and  O_32 
REMARK    4  A    between atoms: C_6  and  O_33 
REMARK    5  A    between atoms: C_7  and  O_13 
REMARK    6  A    between atoms: C_11  and  O_34 
REMARK    7  A    between atoms: C_14  and  O_35 
REMARK    8  A    between atoms: C_15  and  N_28 
REMARK    9  A    between atoms: C_16  and  O_36 
REMARK   10  A    between atoms: C_17  and  O_23 
REMARK   11  A    between atoms: C_21  and  C_44 
REMARK   12  A    between atoms: C_22  and  O_37 
ROOT
HETATM    1  C   UNK N   1       4.078 -12.421   0.323  0.00  0.00     0.144 C 
HETATM    2  C   UNK N   1       1.971 -11.533  -0.650  0.00  0.00     0.265 C 
HETATM    3  C   UNK N   1       0.655  -8.596  -0.113  0.00  0.00     0.107 C 
HETATM    4  C   UNK N   1       3.385 -11.959  -0.965  0.00  0.00     0.111 C 
HETATM    5  C   UNK N   1       6.095 -10.684   0.516  0.00  0.00     0.165 C 
HETATM    6  C   UNK N   1       4.759 -11.250   1.063  0.00  0.00     0.043 C 
HETATM    7  C   UNK N   1       2.294  -6.681  -0.717  0.00  0.00     0.083 C 
HETATM    8  O   UNK N   1       1.759 -10.704   0.405  0.00  0.00    -0.312 OA
HETATM    9  C   UNK N   1       2.025  -7.937   0.123  0.00  0.00     0.165 C 
HETATM   10  C   UNK N   1       3.751  -6.381  -1.006  0.00  0.00     0.137 C 
HETATM   11  C   UNK N   1       6.179  -9.126   0.458  0.00  0.00     0.084 C 
HETATM   12  C   UNK N   1       0.636  -9.930   0.657  0.00  0.00     0.168 C 
HETATM   13  C   UNK N   1       4.891  -6.935  -0.190  0.00  0.00     0.054 C 
HETATM   14  C   UNK N   1       4.912  -8.480  -0.170  0.00  0.00     0.052 C 
HETATM   15  O   UNK N   1       1.036 -11.942  -1.322  0.00  0.00    -0.265 OA
HETATM   16  O   UNK N   1       4.016  -5.634  -1.933  0.00  0.00    -0.297 OA
HETATM   17  C   UNK N   1       0.458  -8.833  -1.606  0.00  0.00     0.051 C 
HETATM   18  C   UNK N   1       3.422 -12.991  -2.090  0.00  0.00     0.023 C 
HETATM   19  C   UNK N   1       4.858 -11.503   2.554  0.00  0.00     0.015 C 
HETATM   20  C   UNK N   1       1.559  -5.452  -0.201  0.00  0.00     0.020 C 
HETATM   21  C   UNK N   1       6.268  -8.698   1.915  0.00  0.00     0.049 C 
HETATM   22  C   UNK N   1       4.842  -6.310   1.196  0.00  0.00     0.018 C 
ENDROOT
BRANCH   1  23
HETATM   23  O   UNK N   1       4.903 -13.549   0.145  0.00  0.00    -0.355 OA
BRANCH  23  24
HETATM   24  C   UNK N   1       4.604 -14.505   1.151  0.00  0.00     0.263 C 
HETATM   25  C   UNK N   1       5.284 -15.852   0.845  0.00  0.00     0.101 C 
HETATM   26  C   UNK N   1       4.594 -16.622  -0.306  0.00  0.00     0.089 C 
HETATM   27  C   UNK N   1       4.892 -15.885  -1.605  0.00  0.00     0.049 C 
HETATM   28  C   UNK N   1       3.062 -16.623  -0.091  0.00  0.00     0.181 C 
HETATM   29  C   UNK N   1       2.609 -15.185   0.184  0.00  0.00     0.152 C 
HETATM   30  O   UNK N   1       3.209 -14.695   1.364  0.00  0.00    -0.354 OA
HETATM   31  C   UNK N   1       1.099 -15.095   0.303  0.00  0.00     0.042 C 
BRANCH  26  32
HETATM   32  O   UNK N   1       5.104 -17.934  -0.489  0.00  0.00    -0.383 OA
HETATM   33  C   UNK N   1       5.204 -18.623   0.733  0.00  0.00     0.202 C 
ENDBRANCH  26  32
BRANCH  28  34
HETATM   34  O   UNK N   1       2.697 -17.434   0.989  0.00  0.00    -0.390 OA
HETATM   35  H   UNK N   1       2.084 -17.496   1.738  0.00  0.00     0.210 HD
ENDBRANCH  28  34
ENDBRANCH  23  24
ENDBRANCH   1  23
BRANCH   5  36
HETATM   36  O   UNK N   1       6.634 -11.363  -0.592  0.00  0.00    -0.350 OA
BRANCH  36  37
HETATM   37  C   UNK N   1       7.811 -12.073  -0.205  0.00  0.00     0.291 C 
HETATM   38  C   UNK N   1       8.983 -11.173   0.298  0.00  0.00     0.206 C 
HETATM   39  C   UNK N   1      10.234 -12.024   0.594  0.00  0.00     0.257 C 
HETATM   40  C   UNK N   1       9.983 -13.517   0.440  0.00  0.00     0.070 C 
HETATM   41  C   UNK N   1       8.654 -13.866   1.127  0.00  0.00     0.122 C 
HETATM   42  O   UNK N   1       7.514 -13.092   0.741  0.00  0.00    -0.354 OA
HETATM   43  C   UNK N   1       8.375 -15.340   0.935  0.00  0.00     0.040 C 
BRANCH  38  44
HETATM   44  O   UNK N   1       8.652 -10.527   1.490  0.00  0.00    -0.388 OA
HETATM   45  H   UNK N   1       8.926 -10.104   2.319  0.00  0.00     0.210 HD
ENDBRANCH  38  44
BRANCH  39  46
HETATM   46  N   UNK N   1      11.448 -11.593  -0.109  0.00  0.00     0.087 N 
HETATM   47  C   UNK N   1      11.210 -11.438  -1.538  0.00  0.00     0.310 C 
HETATM   48  C   UNK N   1      11.875 -10.309   0.423  0.00  0.00     0.310 C 
ENDBRANCH  39  46
ENDBRANCH  36  37
ENDBRANCH   5  36
BRANCH  11  49
HETATM   49  O   UNK N   1       7.373  -8.673  -0.167  0.00  0.00    -0.383 OA
HETATM   50  C   UNK N   1       7.301  -8.833  -1.565  0.00  0.00     0.202 C 
ENDBRANCH  11  49
BRANCH  12  51
HETATM   51  C   UNK N   1      -0.694 -10.694   0.804  0.00  0.00     0.031 C 
HETATM   52  C   UNK N   1      -1.454 -10.904  -0.495  0.00  0.00     0.007 C 
ENDBRANCH  12  51
BRANCH   3  53
HETATM   53  O   UNK N   1      -0.364  -7.765   0.357  0.00  0.00    -0.385 OA
HETATM   54  H   UNK N   1      -0.218  -6.863   0.684  0.00  0.00     0.210 HD
ENDBRANCH   3  53
BRANCH   9  55
HETATM   55  O   UNK N   1       2.255  -7.708   1.485  0.00  0.00    -0.392 OA
HETATM   56  H   UNK N   1       2.471  -7.767   2.428  0.00  0.00     0.210 HD
ENDBRANCH   9  55
TORSDOF 12
