REMARK  11 active torsions:
REMARK  status: ('A' for Active; 'I' for Inactive)
REMARK    1  A    between atoms: C_1  and  O_3 
REMARK    2  A    between atoms: C_2  and  C_1 
REMARK    3  A    between atoms: C_6  and  C_1 
REMARK    4  A    between atoms: C_2  and  O_4 
REMARK    5  A    between atoms: C_5  and  C_2 
REMARK    6  A    between atoms: N_15  and  O_3 
REMARK    7  A    between atoms: N_12  and  O_4 
REMARK    8  A    between atoms: O_8  and  C_5 
REMARK    9  A    between atoms: O_7  and  C_6 
REMARK   10  A    between atoms: N_18  and  O_7 
REMARK   11  A    between atoms: N_9  and  O_8 
ROOT
HETATM    1  C   UNK N   1       9.226 -16.680  -0.083  0.00  0.00     0.219 C 
ENDROOT
BRANCH   1   2
HETATM    2  O   UNK N   1       9.084 -15.374   0.353  0.00  0.00    -0.211 OA
BRANCH   2   3
HETATM    3  N   UNK N   1       9.941 -14.411   0.054  0.00  0.00     0.005 N 
HETATM    4  O   UNK N   1      10.948 -14.632  -0.765  0.00  0.00    -0.511 OA
HETATM    5  O   UNK N   1       9.750 -13.308   0.465  0.00  0.00    -0.511 OA
ENDBRANCH   2   3
ENDBRANCH   1   2
BRANCH   1   6
HETATM    6  C   UNK N   1       7.891 -17.412   0.088  0.00  0.00     0.219 C 
BRANCH   6   7
HETATM    7  O   UNK N   1       8.034 -18.715  -0.354  0.00  0.00    -0.211 OA
BRANCH   7   8
HETATM    8  N   UNK N   1       7.183 -19.682  -0.052  0.00  0.00     0.005 N 
HETATM    9  O   UNK N   1       6.181 -19.468   0.776  0.00  0.00    -0.511 OA
HETATM   10  O   UNK N   1       7.374 -20.783  -0.470  0.00  0.00    -0.511 OA
ENDBRANCH   7   8
ENDBRANCH   6   7
BRANCH   6  11
HETATM   11  C   UNK N   1       6.812 -16.694  -0.727  0.00  0.00     0.245 C 
BRANCH  11  12
HETATM   12  O   UNK N   1       5.550 -17.106  -0.354  0.00  0.00    -0.219 OA
BRANCH  12  13
HETATM   13  N   UNK N   1       4.587 -16.251  -0.050  0.00  0.00     0.005 N 
HETATM   14  O   UNK N   1       3.409 -16.706   0.319  0.00  0.00    -0.511 OA
HETATM   15  O   UNK N   1       4.760 -15.073  -0.147  0.00  0.00    -0.511 OA
ENDBRANCH  12  13
ENDBRANCH  11  12
ENDBRANCH   6  11
ENDBRANCH   1   6
BRANCH   1  16
HETATM   16  C   UNK N   1      10.301 -17.396   0.739  0.00  0.00     0.245 C 
BRANCH  16  17
HETATM   17  O   UNK N   1      11.566 -17.002   0.356  0.00  0.00    -0.219 OA
BRANCH  17  18
HETATM   18  N   UNK N   1      12.514 -17.871   0.044  0.00  0.00     0.005 N 
HETATM   19  O   UNK N   1      13.696 -17.434  -0.331  0.00  0.00    -0.511 OA
HETATM   20  O   UNK N   1      12.322 -19.047   0.138  0.00  0.00    -0.511 OA
ENDBRANCH  17  18
ENDBRANCH  16  17
ENDBRANCH   1  16
TORSDOF 11
