REMARK  0 active torsions:
REMARK  status: ('A' for Active; 'I' for Inactive)
REMARK       I    between atoms: N_1  and  C_2 
REMARK       I    between atoms: C_2  and  N_3 
ROOT
HETATM    1  N   UNK N   1       1.316   1.166   0.000  0.00  0.00    -0.352 N 
HETATM    2  C   UNK N   1       0.643   0.000   0.000  0.00  0.00     0.311 C 
HETATM    3  N   UNK N   1       1.316  -1.166   0.000  0.00  0.00    -0.352 N 
HETATM    4  O   UNK N   1      -0.576   0.000   0.000  0.00  0.00    -0.248 OA
HETATM    5  H   UNK N   1       2.301   1.166   0.000  0.00  0.00     0.160 HD
HETATM    6  H   UNK N   1       0.824   2.018   0.000  0.00  0.00     0.160 HD
HETATM    7  H   UNK N   1       0.824  -2.018   0.000  0.00  0.00     0.160 HD
HETATM    8  H   UNK N   1       2.301  -1.166   0.000  0.00  0.00     0.160 HD
ENDROOT
TORSDOF 0
