REMARK  2 active torsions:
REMARK  status: ('A' for Active; 'I' for Inactive)
REMARK    1  A    between atoms: O_1  and  C_2 
REMARK    2  A    between atoms: C_2  and  C_4 
ROOT
HETATM    1  C   UNK N   1       1.625  -0.212  -0.000  0.00  0.00     0.188 A 
HETATM    2  N   UNK N   1       0.455  -0.901  -0.000  0.00  0.00    -0.289 N 
ATOM      3  HN  UNK N   1       0.467  -1.921  -0.000  1.00  0.00     0.172 HD
HETATM    4  C   UNK N   1      -0.739  -0.236   0.000  0.00  0.00     0.330 A 
HETATM    5  O   UNK N   1      -1.783  -0.861   0.000  0.00  0.00    -0.246 OA
HETATM    6  N   UNK N   1      -0.758   1.131  -0.000  0.00  0.00    -0.260 N 
HETATM    7  C   UNK N   1       0.421   1.824  -0.000  0.00  0.00     0.330 A 
HETATM    8  O   UNK N   1       0.411   3.041  -0.000  0.00  0.00    -0.246 OA
HETATM    9  N   UNK N   1       1.611   1.148  -0.000  0.00  0.00    -0.289 N 
HETATM   10  H   UNK N   1      -1.616   1.613  -0.000  0.00  0.00     0.175 HD
HETATM   11  H   UNK N   1       2.459   1.647  -0.000  0.00  0.00     0.172 HD
ENDROOT
BRANCH   1  12
HETATM   12  C   UNK N   1       2.905  -0.938  -0.000  0.00  0.00     0.212 C 
HETATM   13  O   UNK N   1       2.916  -2.159  -0.000  0.00  0.00    -0.644 OA
BRANCH  12  14
HETATM   14  O   UNK N   1       4.069  -0.262   0.000  0.00  0.00    -0.771 OA
HETATM   15  H   UNK N   1       4.882  -0.728   0.000  0.00  0.00     0.168 HD
ENDBRANCH  12  14
ENDBRANCH   1  12
TORSDOF 2
