REMARK  4 active torsions:
REMARK  status: ('A' for Active; 'I' for Inactive)
REMARK    1  A    between atoms: C_2  and  O_4 
REMARK    2  A    between atoms: O_4  and  C_5 
REMARK    3  A    between atoms: C_5  and  C_6 
REMARK    4  A    between atoms: C_6  and  N_7 
ROOT
HETATM    1  C   UNK N   1       3.689  -1.326   0.350  0.00  0.00     0.206 C 
ENDROOT
BRANCH   1   2
HETATM    2  O   UNK N   1       2.620  -2.180   0.203  0.00  0.00    -0.320 OA
BRANCH   2   3
HETATM    3  C   UNK N   1       1.341  -1.746   0.104  0.00  0.00     0.254 C 
HETATM    4  C   UNK N   1       0.244  -2.741  -0.060  0.00  0.00     0.126 C 
HETATM    5  O   UNK N   1       1.076  -0.554   0.129  0.00  0.00    -0.266 OA
ENDBRANCH   2   3
ENDBRANCH   1   2
BRANCH   1   6
HETATM    6  C   UNK N   1       4.968  -2.088   0.004  0.00  0.00     0.262 C 
BRANCH   6   7
HETATM    7  N   UNK N   1       6.148  -1.233  -0.139  0.00  0.00    -0.077 N 
HETATM    8  C   UNK N   1       6.594  -0.743   1.155  0.00  0.00     0.271 C 
HETATM    9  C   UNK N   1       7.210  -2.037  -0.714  0.00  0.00     0.271 C 
HETATM   10  C   UNK N   1       5.903  -0.108  -1.032  0.00  0.00     0.271 C 
ENDBRANCH   6   7
ENDBRANCH   1   6
TORSDOF 4
