REMARK  16 active torsions:
REMARK  status: ('A' for Active; 'I' for Inactive)
REMARK    1  A    between atoms: C_6  and  C_2 
REMARK    2  A    between atoms: N_18  and  C_2 
REMARK    3  A    between atoms: C_7  and  C_3 
REMARK    4  A    between atoms: O_22  and  C_3 
REMARK    5  A    between atoms: C_4  and  N_19 
REMARK    6  A    between atoms: C_5  and  N_20 
REMARK    7  A    between atoms: C_8  and  N_21 
REMARK    8  A    between atoms: C_9  and  O_23 
REMARK    9  A    between atoms: C_10  and  O_24 
REMARK   10  A    between atoms: C_11  and  O_25 
REMARK   11  A    between atoms: C_12  and  O_26 
REMARK   12  A    between atoms: C_13  and  O_27 
REMARK   13  A    between atoms: C_14  and  O_30 
REMARK   14  A    between atoms: C_15  and  O_31 
REMARK   15  A    between atoms: C_16  and  O_30 
REMARK   16  A    between atoms: C_17  and  O_31 
ROOT
HETATM    1  C   UNK N   1      -0.746   0.511  -0.607  0.00  0.00     0.054 C 
HETATM    2  C   UNK N   1      -1.586   1.709  -0.144  0.00  0.00     0.107 C 
HETATM    3  C   UNK N   1       0.729   0.623  -0.200  0.00  0.00     0.107 C 
HETATM    4  C   UNK N   1      -0.960   3.028  -0.630  0.00  0.00     0.172 C 
HETATM    5  C   UNK N   1       1.312   1.967  -0.730  0.00  0.00     0.178 C 
HETATM    6  C   UNK N   1       0.518   3.176  -0.173  0.00  0.00     0.186 C 
ENDROOT
BRANCH   5   7
HETATM    7  O   UNK N   1       2.729   2.122  -0.666  0.00  0.00    -0.349 OA
BRANCH   7   8
HETATM    8  C   UNK N   1       3.352   1.887   0.587  0.00  0.00     0.285 C 
HETATM    9  C   UNK N   1       4.782   2.473   0.567  0.00  0.00     0.161 C 
HETATM   10  C   UNK N   1       5.631   1.719  -0.474  0.00  0.00     0.176 C 
HETATM   11  C   UNK N   1       5.590   0.212  -0.178  0.00  0.00     0.179 C 
HETATM   12  C   UNK N   1       4.114  -0.230  -0.117  0.00  0.00     0.173 C 
HETATM   13  O   UNK N   1       3.427   0.497   0.891  0.00  0.00    -0.350 OA
BRANCH   9  14
HETATM   14  N   UNK N   1       4.746   3.894   0.253  0.00  0.00    -0.420 N 
HETATM   15  H   UNK N   1       5.595   4.414   0.034  0.00  0.00     0.150 HD
HETATM   16  H   UNK N   1       3.850   4.382   0.253  0.00  0.00     0.150 HD
ENDBRANCH   9  14
BRANCH  10  17
HETATM   17  O   UNK N   1       6.951   2.177  -0.460  0.00  0.00    -0.391 OA
HETATM   18  H   UNK N   1       7.685   1.542  -0.450  0.00  0.00     0.210 HD
ENDBRANCH  10  17
BRANCH  11  19
HETATM   19  O   UNK N   1       6.218  -0.055   1.044  0.00  0.00    -0.390 OA
HETATM   20  H   UNK N   1       6.275  -0.525   1.891  0.00  0.00     0.210 HD
ENDBRANCH  11  19
BRANCH  12  21
HETATM   21  C   UNK N   1       3.986  -1.716   0.207  0.00  0.00     0.145 C 
BRANCH  21  22
HETATM   22  N   UNK N   1       4.512  -2.532  -0.875  0.00  0.00    -0.428 N 
HETATM   23  H   UNK N   1       4.201  -3.138  -1.634  0.00  0.00     0.150 HD
HETATM   24  H   UNK N   1       5.531  -2.483  -0.875  0.00  0.00     0.150 HD
ENDBRANCH  21  22
ENDBRANCH  12  21
ENDBRANCH   7   8
ENDBRANCH   5   7
BRANCH   3  25
HETATM   25  N   UNK N   1       0.824   0.513   1.250  0.00  0.00    -0.423 N 
HETATM   26  H   UNK N   1       0.790   0.417   2.265  0.00  0.00     0.150 HD
HETATM   27  H   UNK N   1       1.826   0.704   1.250  0.00  0.00     0.150 HD
ENDBRANCH   3  25
BRANCH   6  28
HETATM   28  O   UNK N   1       1.050   4.390  -0.693  0.00  0.00    -0.348 OA
BRANCH  28  29
HETATM   29  C   UNK N   1       1.317   5.326   0.346  0.00  0.00     0.292 C 
HETATM   30  C   UNK N   1       1.793   6.647  -0.248  0.00  0.00     0.204 C 
HETATM   31  C   UNK N   1       0.463   7.191  -0.678  0.00  0.00     0.182 C 
HETATM   32  C   UNK N   1      -0.400   6.832   0.536  0.00  0.00     0.179 C 
HETATM   33  O   UNK N   1       0.120   5.619   1.058  0.00  0.00    -0.348 OA
BRANCH  30  34
HETATM   34  O   UNK N   1       2.344   7.446   0.762  0.00  0.00    -0.388 OA
HETATM   35  H   UNK N   1       3.014   7.393   1.461  0.00  0.00     0.210 HD
ENDBRANCH  30  34
BRANCH  31  36
HETATM   36  O   UNK N   1       0.483   8.552  -0.995  0.00  0.00    -0.390 OA
HETATM   37  H   UNK N   1       1.309   9.012  -1.215  0.00  0.00     0.210 HD
ENDBRANCH  31  36
BRANCH  32  38
HETATM   38  C   UNK N   1      -0.369   7.874   1.656  0.00  0.00     0.198 C 
BRANCH  38  39
HETATM   39  O   UNK N   1      -1.068   9.022   1.278  0.00  0.00    -0.398 OA
HETATM   40  H   UNK N   1      -0.620   9.842   1.015  0.00  0.00     0.209 HD
ENDBRANCH  38  39
ENDBRANCH  32  38
ENDBRANCH  28  29
ENDBRANCH   6  28
BRANCH   4  41
HETATM   41  O   UNK N   1      -1.737   4.097  -0.182  0.00  0.00    -0.391 OA
HETATM   42  H   UNK N   1      -1.363   4.936   0.130  0.00  0.00     0.210 HD
ENDBRANCH   4  41
BRANCH   2  43
HETATM   43  N   UNK N   1      -1.720   1.706   1.306  0.00  0.00    -0.423 N 
HETATM   44  H   UNK N   1      -1.770   1.786   2.322  0.00  0.00     0.150 HD
HETATM   45  H   UNK N   1      -2.209   0.810   1.306  0.00  0.00     0.150 HD
ENDBRANCH   2  43
TORSDOF 16
