REMARK  12 active torsions:
REMARK  status: ('A' for Active; 'I' for Inactive)
REMARK    1  A    between atoms: C_9  and  O_1 
REMARK    2  A    between atoms: C_12  and  O_2 
REMARK    3  A    between atoms: C_13  and  O_3 
REMARK    4  A    between atoms: C_14  and  O_4 
REMARK    5  A    between atoms: O_5  and  C_15 
REMARK    6  A    between atoms: O_6  and  C_17 
REMARK    7  A    between atoms: O_7  and  C_18 
REMARK    8  A    between atoms: C_10  and  N_8 
REMARK    9  A    between atoms: N_8  and  C_16 
REMARK   10  A    between atoms: C_9  and  C_15 
REMARK   11  A    between atoms: C_16  and  C_17 
REMARK   12  A    between atoms: C_16  and  C_18 
ROOT
HETATM    1  C   UNK N   1       2.867   1.452  -0.392  0.00  0.00     0.109 C 
HETATM    2  C   UNK N   1       4.432  -0.481  -0.068  0.00  0.00     0.111 C 
HETATM    3  C   UNK N   1       4.089   0.719  -0.950  0.00  0.00     0.070 C 
HETATM    4  C   UNK N   1       1.683   0.468  -0.304  0.00  0.00     0.185 C 
HETATM    5  C   UNK N   1       3.274  -1.476  -0.080  0.00  0.00     0.171 C 
HETATM    6  C   UNK N   1       2.031  -0.795   0.500  0.00  0.00     0.180 C 
ENDROOT
BRANCH   2   7
HETATM    7  N   UNK N   1       5.677  -1.089  -0.508  0.00  0.00    -0.406 N 
HETATM    8  H   UNK N   1       5.844  -1.555  -1.400  0.00  0.00     0.154 HD
BRANCH   7   9
HETATM    9  C   UNK N   1       6.642  -0.904   0.573  0.00  0.00     0.124 C 
BRANCH   9  10
HETATM   10  C   UNK N   1       7.793  -1.897   0.459  0.00  0.00     0.191 C 
BRANCH  10  11
HETATM   11  O   UNK N   1       8.501  -1.714  -0.730  0.00  0.00    -0.399 OA
HETATM   12  H   UNK N   1       8.858  -2.077  -1.556  0.00  0.00     0.209 HD
ENDBRANCH  10  11
ENDBRANCH   9  10
BRANCH   9  13
HETATM   13  C   UNK N   1       7.131   0.545   0.665  0.00  0.00     0.191 C 
BRANCH  13  14
HETATM   14  O   UNK N   1       7.672   0.972  -0.549  0.00  0.00    -0.399 OA
HETATM   15  H   UNK N   1       8.117   0.795  -1.393  0.00  0.00     0.209 HD
ENDBRANCH  13  14
ENDBRANCH   9  13
ENDBRANCH   7   9
ENDBRANCH   2   7
BRANCH   5  16
HETATM   16  O   UNK N   1       3.598  -2.592   0.697  0.00  0.00    -0.391 OA
HETATM   17  H   UNK N   1       3.040  -3.174   1.236  0.00  0.00     0.210 HD
ENDBRANCH   5  16
BRANCH   1  18
HETATM   18  O   UNK N   1       2.526   2.487  -1.268  0.00  0.00    -0.385 OA
HETATM   19  H   UNK N   1       3.029   3.051  -1.876  0.00  0.00     0.210 HD
ENDBRANCH   1  18
BRANCH   1  20
HETATM   20  C   UNK N   1       3.193   2.053   0.980  0.00  0.00     0.204 C 
BRANCH  20  21
HETATM   21  O   UNK N   1       4.263   2.947   0.887  0.00  0.00    -0.398 OA
HETATM   22  H   UNK N   1       5.172   2.615   0.823  0.00  0.00     0.209 HD
ENDBRANCH  20  21
ENDBRANCH   1  20
BRANCH   6  23
HETATM   23  O   UNK N   1       0.952  -1.680   0.475  0.00  0.00    -0.390 OA
HETATM   24  H   UNK N   1       0.044  -1.338   0.457  0.00  0.00     0.210 HD
ENDBRANCH   6  23
BRANCH   4  25
HETATM   25  O   UNK N   1       0.562   1.094   0.245  0.00  0.00    -0.390 OA
HETATM   26  H   UNK N   1       0.549   1.986   0.627  0.00  0.00     0.210 HD
ENDBRANCH   4  25
TORSDOF 12
