REMARK  32 active torsions:
REMARK  status: ('A' for Active; 'I' for Inactive)
REMARK    1  A    between atoms: C_11  and  C_10 
REMARK    2  A    between atoms: C_18  and  C_10 
REMARK    3  A    between atoms: C_23  and  C_11 
REMARK    4  A    between atoms: C_43  and  C_18 
REMARK    5  A    between atoms: N_58  and  C_23 
REMARK    6  A    between atoms: C_33  and  C_24 
REMARK    7  A    between atoms: C_40  and  C_24 
REMARK    8  A    between atoms: C_34  and  C_25 
REMARK    9  A    between atoms: C_45  and  C_25 
REMARK   10  A    between atoms: C_35  and  C_26 
REMARK   11  A    between atoms: C_44  and  C_26 
REMARK   12  A    between atoms: C_36  and  C_27 
REMARK   13  A    between atoms: C_46  and  C_27 
REMARK   14  A    between atoms: C_49  and  C_32 
REMARK   15  A    between atoms: O_78  and  C_37 
REMARK   16  A    between atoms: C_51  and  C_40 
REMARK   17  A    between atoms: C_40  and  N_59 
REMARK   18  A    between atoms: C_50  and  C_44 
REMARK   19  A    between atoms: C_44  and  N_66 
REMARK   20  A    between atoms: C_47  and  N_72 
REMARK   21  A    between atoms: C_48  and  C_55 
REMARK   22  A    between atoms: N_60  and  C_50 
REMARK   23  A    between atoms: O_79  and  C_50 
REMARK   24  A    between atoms: N_72  and  C_51 
REMARK   25  A    between atoms: C_51  and  O_80 
REMARK   26  A    between atoms: C_52  and  O_81 
REMARK   27  A    between atoms: C_53  and  O_82 
REMARK   28  A    between atoms: C_54  and  O_83 
REMARK   29  A    between atoms: N_66  and  C_55 
REMARK   30  A    between atoms: C_55  and  O_84 
REMARK   31  A    between atoms: C_56  and  O_85 
REMARK   32  A    between atoms: C_57  and  O_86 
ROOT
HETATM    1  C   UNK N   1       0.157  -3.173  -2.005  0.00  0.00     0.119 C 
HETATM    2  C   UNK N   1      -1.471  -1.842   0.318  0.00  0.00     0.119 C 
HETATM    3  C   UNK N   1      -1.316   4.682  -0.376  0.00  0.00     0.158 C 
HETATM    4  C   UNK N   1       2.287  -0.808   1.166  0.00  0.00     0.162 C 
HETATM    5  C   UNK N   1       1.981   2.779  -0.105  0.00  0.00     0.162 C 
HETATM    6  C   UNK N   1       1.491  -3.561  -1.351  0.00  0.00     0.168 C 
HETATM    7  C   UNK N   1      -2.410  -1.295   1.391  0.00  0.00     0.168 C 
HETATM    8  C   UNK N   1      -2.903   2.303   0.346  0.00  0.00     0.161 C 
HETATM    9  C   UNK N   1      -2.194   3.911  -1.354  0.00  0.00     0.135 C 
HETATM   10  C   UNK N   1       2.581   0.636   0.799  0.00  0.00     0.135 C 
HETATM   11  C   UNK N   1       0.798   3.508  -0.696  0.00  0.00     0.135 C 
HETATM   12  C   UNK N   1       1.756  -2.858  -0.031  0.00  0.00     0.136 C 
HETATM   13  C   UNK N   1      -2.736   0.816   0.256  0.00  0.00     0.135 C 
HETATM   14  N   UNK N   1      -0.177   3.887   0.068  0.00  0.00    -0.361 N 
ATOM     15  HN  UNK N   1      -0.145   3.611   1.049  1.00  0.00     0.162 HD
HETATM   16  N   UNK N   1       1.911  -1.568  -0.021  0.00  0.00    -0.360 N 
ATOM     17  HN  UNK N   1       1.761  -1.058  -0.892  1.00  0.00     0.162 HD
HETATM   18  N   UNK N   1       1.663   1.415   0.307  0.00  0.00    -0.360 N 
ATOM     19  HN  UNK N   1       0.708   1.068   0.208  1.00  0.00     0.162 HD
HETATM   20  N   UNK N   1      -2.484   0.146   1.332  0.00  0.00    -0.360 N 
ATOM     21  HN  UNK N   1      -2.327   0.668   2.195  1.00  0.00     0.162 HD
HETATM   22  N   UNK N   1      -2.892   2.882  -0.989  0.00  0.00    -0.360 N 
ATOM     23  HN  UNK N   1      -3.481   2.442  -1.696  1.00  0.00     0.162 HD
HETATM   24  S   UNK N   1      -1.348  -4.094  -1.521  0.00  0.00    -0.095 SA
HETATM   25  S   UNK N   1      -1.262  -3.621   0.555  0.00  0.00    -0.095 SA
ENDROOT
BRANCH   7  26
HETATM   26  C   UNK N   1      -3.809  -1.845   1.329  0.00  0.00     0.136 C 
BRANCH  26  27
HETATM   27  N   UNK N   1      -4.193  -2.558   0.321  0.00  0.00    -0.360 N 
ATOM     28  HN  UNK N   1      -3.525  -2.718  -0.433  1.00  0.00     0.162 HD
BRANCH  27  29
HETATM   29  C   UNK N   1      -5.514  -3.146   0.197  0.00  0.00     0.161 C 
BRANCH  29  30
HETATM   30  C   UNK N   1      -5.727  -4.208   1.291  0.00  0.00     0.074 C 
BRANCH  30  31
HETATM   31  C   UNK N   1      -4.610  -5.208   1.337  0.00  0.00    -0.028 A 
HETATM   32  C   UNK N   1      -3.739  -5.396   2.405  0.00  0.00     0.096 A 
HETATM   33  N   UNK N   1      -2.843  -6.368   2.097  0.00  0.00    -0.365 N 
HETATM   34  C   UNK N   1      -3.153  -6.781   0.854  0.00  0.00     0.042 A 
HETATM   35  H   UNK N   1      -2.115  -6.704   2.667  0.00  0.00     0.165 HD
HETATM   36  C   UNK N   1      -2.506  -7.766   0.115  0.00  0.00     0.030 A 
HETATM   37  C   UNK N   1      -4.227  -6.095   0.361  0.00  0.00    -0.002 A 
HETATM   38  C   UNK N   1      -2.995  -8.044  -1.175  0.00  0.00     0.002 A 
HETATM   39  C   UNK N   1      -4.107  -7.336  -1.686  0.00  0.00     0.001 A 
HETATM   40  C   UNK N   1      -4.736  -6.344  -0.911  0.00  0.00     0.014 A 
ENDBRANCH  30  31
ENDBRANCH  29  30
BRANCH  29  41
HETATM   41  C   UNK N   1      -6.575  -2.067   0.208  0.00  0.00     0.132 C 
BRANCH  41  42
HETATM   42  N   UNK N   1      -7.508  -2.064   1.090  0.00  0.00    -0.382 N 
HETATM   43  H   UNK N   1      -7.864  -1.443   1.766  0.00  0.00     0.158 HD
ATOM     44  HN  UNK N   1      -8.021  -2.945   1.090  1.00  0.00     0.158 HD
ENDBRANCH  41  42
BRANCH  41  45
HETATM   45  O   UNK N   1      -6.530  -1.083  -0.711  0.00  0.00    -0.348 OA
HETATM   46  H   UNK N   1      -5.922  -0.768  -1.350  0.00  0.00     0.219 HD
ENDBRANCH  41  45
ENDBRANCH  29  41
ENDBRANCH  27  29
ENDBRANCH  26  27
BRANCH  26  47
HETATM   47  O   UNK N   1      -4.659  -1.565   2.339  0.00  0.00    -0.348 OA
HETATM   48  H   UNK N   1      -4.786  -0.957   3.041  0.00  0.00     0.219 HD
ENDBRANCH  26  47
ENDBRANCH   7  26
BRANCH  13  49
HETATM   49  O   UNK N   1      -2.860   0.195  -0.939  0.00  0.00    -0.348 OA
HETATM   50  H   UNK N   1      -3.276   0.054  -1.767  0.00  0.00     0.219 HD
ENDBRANCH  13  49
BRANCH   8  51
HETATM   51  C   UNK N   1      -4.219   2.682   1.051  0.00  0.00     0.008 C 
HETATM   52  C   UNK N   1      -5.444   2.150   0.319  0.00  0.00     0.012 C 
HETATM   53  C   UNK N   1      -4.259   2.239   2.505  0.00  0.00     0.012 C 
ENDBRANCH   8  51
BRANCH   6  54
HETATM   54  N   UNK N   1       1.785  -4.994  -1.397  0.00  0.00    -0.360 N 
ATOM     55  HN  UNK N   1       2.364  -5.299  -2.180  1.00  0.00     0.162 HD
BRANCH  54  56
HETATM   56  C   UNK N   1       1.413  -5.930  -0.580  0.00  0.00     0.135 C 
BRANCH  56  57
HETATM   57  C   UNK N   1       1.835  -7.345  -0.831  0.00  0.00     0.153 C 
BRANCH  57  58
HETATM   58  C   UNK N   1       2.732  -7.856   0.296  0.00  0.00     0.071 C 
BRANCH  58  59
HETATM   59  C   UNK N   1       4.146  -7.389   0.147  0.00  0.00    -0.056 A 
HETATM   60  C   UNK N   1       4.541  -6.119   0.586  0.00  0.00     0.007 A 
HETATM   61  C   UNK N   1       5.871  -5.709   0.428  0.00  0.00     0.001 A 
HETATM   62  C   UNK N   1       6.802  -6.564  -0.171  0.00  0.00     0.000 A 
HETATM   63  C   UNK N   1       6.407  -7.831  -0.607  0.00  0.00     0.001 A 
HETATM   64  C   UNK N   1       5.082  -8.243  -0.444  0.00  0.00     0.007 A 
ENDBRANCH  58  59
ENDBRANCH  57  58
BRANCH  57  65
HETATM   65  N   UNK N   1       0.650  -8.182  -0.902  0.00  0.00    -0.419 N 
HETATM   66  H   UNK N   1      -0.275  -7.755  -0.951  0.00  0.00     0.150 HD
HETATM   67  H   UNK N   1       0.743  -9.197  -0.902  0.00  0.00     0.150 HD
ENDBRANCH  57  65
ENDBRANCH  56  57
BRANCH  56  68
HETATM   68  O   UNK N   1       0.667  -5.670   0.507  0.00  0.00    -0.348 OA
HETATM   69  H   UNK N   1       0.564  -5.130   1.265  0.00  0.00     0.219 HD
ENDBRANCH  56  68
ENDBRANCH  54  56
ENDBRANCH   6  54
BRANCH   9  70
HETATM   70  O   UNK N   1      -2.302   4.342  -2.627  0.00  0.00    -0.348 OA
HETATM   71  H   UNK N   1      -2.080   4.556  -3.512  0.00  0.00     0.219 HD
ENDBRANCH   9  70
BRANCH  12  72
HETATM   72  O   UNK N   1       1.947  -3.570   1.100  0.00  0.00    -0.348 OA
HETATM   73  H   UNK N   1       1.585  -3.931   1.885  0.00  0.00     0.219 HD
ENDBRANCH  12  72
BRANCH   3  74
HETATM   74  C   UNK N   1      -0.840   6.037  -0.916  0.00  0.00     0.033 C 
BRANCH  74  75
HETATM   75  C   UNK N   1      -2.019   6.967  -1.181  0.00  0.00     0.004 C 
BRANCH  75  76
HETATM   76  C   UNK N   1      -1.597   8.419  -1.056  0.00  0.00     0.019 C 
BRANCH  76  77
HETATM   77  C   UNK N   1      -1.887   8.944   0.342  0.00  0.00     0.111 C 
BRANCH  77  78
HETATM   78  N   UNK N   1      -0.907   8.435   1.286  0.00  0.00    -0.430 N 
HETATM   79  H   UNK N   1      -0.873   7.660   1.948  0.00  0.00     0.149 HD
HETATM   80  H   UNK N   1      -0.047   8.984   1.286  0.00  0.00     0.149 HD
ENDBRANCH  77  78
ENDBRANCH  76  77
ENDBRANCH  75  76
ENDBRANCH  74  75
ENDBRANCH   3  74
BRANCH   4  81
HETATM   81  C   UNK N   1       3.526  -1.450   1.855  0.00  0.00     0.072 C 
BRANCH  81  82
HETATM   82  C   UNK N   1       4.745  -1.645   0.986  0.00  0.00    -0.056 A 
HETATM   83  C   UNK N   1       4.692  -2.447  -0.163  0.00  0.00     0.010 A 
HETATM   84  C   UNK N   1       5.828  -2.644  -0.947  0.00  0.00     0.037 A 
HETATM   85  C   UNK N   1       7.036  -2.052  -0.578  0.00  0.00     0.065 A 
HETATM   86  C   UNK N   1       7.104  -1.261   0.573  0.00  0.00     0.037 A 
HETATM   87  C   UNK N   1       5.961  -1.059   1.355  0.00  0.00     0.010 A 
BRANCH  85  88
HETATM   88  O   UNK N   1       8.132  -2.247  -1.328  0.00  0.00    -0.361 OA
HETATM   89  H   UNK N   1       8.397  -2.977  -1.852  0.00  0.00     0.217 HD
ENDBRANCH  85  88
ENDBRANCH  81  82
ENDBRANCH   4  81
BRANCH  11  90
HETATM   90  O   UNK N   1       0.815   3.842  -2.004  0.00  0.00    -0.348 OA
HETATM   91  H   UNK N   1       1.022   3.947  -2.912  0.00  0.00     0.219 HD
ENDBRANCH  11  90
BRANCH  10  92
HETATM   92  O   UNK N   1       3.831   1.114   0.988  0.00  0.00    -0.348 OA
HETATM   93  H   UNK N   1       4.551   0.529   1.120  0.00  0.00     0.219 HD
ENDBRANCH  10  92
BRANCH   5  94
HETATM   94  C   UNK N   1       2.519   3.599   1.081  0.00  0.00     0.074 C 
BRANCH  94  95
HETATM   95  C   UNK N   1       3.421   4.702   0.630  0.00  0.00    -0.028 A 
HETATM   96  C   UNK N   1       3.157   6.066   0.669  0.00  0.00     0.096 A 
HETATM   97  N   UNK N   1       4.225   6.745   0.175  0.00  0.00    -0.365 N 
HETATM   98  C   UNK N   1       5.139   5.815  -0.159  0.00  0.00     0.042 A 
HETATM   99  H   UNK N   1       4.313   7.721   0.080  0.00  0.00     0.165 HD
HETATM  100  C   UNK N   1       6.402   6.033  -0.703  0.00  0.00     0.030 A 
HETATM  101  C   UNK N   1       4.680   4.559   0.108  0.00  0.00    -0.002 A 
HETATM  102  C   UNK N   1       7.204   4.906  -0.971  0.00  0.00     0.002 A 
HETATM  103  C   UNK N   1       6.728   3.605  -0.690  0.00  0.00     0.001 A 
HETATM  104  C   UNK N   1       5.446   3.423  -0.143  0.00  0.00     0.014 A 
ENDBRANCH  94  95
ENDBRANCH   5  94
TORSDOF 32
