REMARK  8 active torsions:
REMARK  status: ('A' for Active; 'I' for Inactive)
REMARK    1  A    between atoms: C_16  and  C_13 
REMARK    2  A    between atoms: C_26  and  C_13 
REMARK    3  A    between atoms: N_38  and  C_16 
REMARK    4  A    between atoms: C_27  and  C_19 
REMARK    5  A    between atoms: C_26  and  C_21 
REMARK    6  A    between atoms: C_28  and  C_22 
REMARK    7  A    between atoms: C_25  and  N_39 
REMARK    8  A    between atoms: C_26  and  N_32 
ROOT
HETATM    1  C   UNK N   1      -3.149   2.148  -0.609  0.00  0.00     0.116 C 
HETATM    2  N   UNK N   1      -1.978   2.135  -1.153  0.00  0.00    -0.365 N 
ATOM      3  HN  UNK N   1      -1.955   2.245  -2.167  1.00  0.00     0.162 HD
HETATM    4  O   UNK N   1      -3.307   2.105   0.732  0.00  0.00    -0.349 OA
HETATM    5  H   UNK N   1      -3.388   2.186   1.662  0.00  0.00     0.219 HD
ENDROOT
BRANCH   1   6
HETATM    6  C   UNK N   1      -4.347   2.183  -1.510  0.00  0.00     0.060 C 
HETATM    7  C   UNK N   1      -5.193   3.448  -1.343  0.00  0.00     0.019 C 
HETATM    8  C   UNK N   1      -6.005   3.418  -0.049  0.00  0.00     0.080 C 
HETATM    9  C   UNK N   1      -6.875   2.163   0.027  0.00  0.00     0.243 C 
HETATM   10  C   UNK N   1      -6.000   0.915  -0.069  0.00  0.00     0.080 C 
HETATM   11  F   UNK N   1      -7.803   2.165  -1.001  0.00  0.00    -0.206 F 
HETATM   12  F   UNK N   1      -7.545   2.154   1.234  0.00  0.00    -0.206 F 
HETATM   13  C   UNK N   1      -5.202   0.917  -1.374  0.00  0.00     0.019 C 
ENDBRANCH   1   6
BRANCH   2  14
HETATM   14  C   UNK N   1      -0.685   1.985  -0.496  0.00  0.00     0.118 C 
BRANCH  14  15
HETATM   15  C   UNK N   1      -0.765   1.237   0.855  0.00  0.00     0.060 C 
BRANCH  15  16
HETATM   16  C   UNK N   1       0.424   0.307   1.093  0.00  0.00     0.276 C 
BRANCH  16  17
HETATM   17  N   UNK N   1       0.424  -0.714   0.043  0.00  0.00     0.098 N 
HETATM   18  C   UNK N   1       1.632  -0.765  -0.773  0.00  0.00     0.225 C 
HETATM   19  C   UNK N   1       1.400  -1.988  -1.653  0.00  0.00     0.038 C 
HETATM   20  C   UNK N   1       2.868  -0.953   0.126  0.00  0.00     0.061 C 
HETATM   21  C   UNK N   1       0.429  -2.848  -0.835  0.00  0.00     0.038 C 
HETATM   22  C   UNK N   1       0.280  -2.095   0.480  0.00  0.00     0.225 C 
HETATM   23  C   UNK N   1       1.403  -2.487   1.486  0.00  0.00     0.061 C 
HETATM   24  C   UNK N   1       2.840  -2.246   0.959  0.00  0.00     0.097 C 
BRANCH  24  25
HETATM   25  N   UNK N   1       3.439  -3.388   0.217  0.00  0.00    -0.319 N 
HETATM   26  C   UNK N   1       2.947  -4.635  -0.022  0.00  0.00     0.095 A 
HETATM   27  C   UNK N   1       1.644  -5.188   0.445  0.00  0.00     0.091 C 
HETATM   28  N   UNK N   1       3.834  -5.384  -0.699  0.00  0.00    -0.288 N 
HETATM   29  N   UNK N   1       4.912  -4.644  -0.894  0.00  0.00    -0.287 N 
ATOM     30  HN  UNK N   1       3.700  -6.348  -1.005  1.00  0.00     0.188 HD
HETATM   31  C   UNK N   1       4.684  -3.441  -0.338  0.00  0.00     0.103 A 
ATOM     32  HN  UNK N   1       5.762  -4.933  -1.378  1.00  0.00     0.188 HD
BRANCH  31  33
HETATM   33  C   UNK N   1       5.742  -2.371  -0.331  0.00  0.00     0.047 C 
HETATM   34  C   UNK N   1       6.107  -1.928   1.072  0.00  0.00     0.017 C 
HETATM   35  C   UNK N   1       5.429  -1.190  -1.228  0.00  0.00     0.017 C 
ENDBRANCH  31  33
ENDBRANCH  24  25
ENDBRANCH  16  17
ENDBRANCH  15  16
ENDBRANCH  14  15
BRANCH  14  36
HETATM   36  C   UNK N   1       0.073   3.285  -0.394  0.00  0.00    -0.035 A 
HETATM   37  C   UNK N   1      -0.512   4.503  -0.776  0.00  0.00     0.009 A 
HETATM   38  C   UNK N   1       0.223   5.691  -0.711  0.00  0.00     0.001 A 
HETATM   39  C   UNK N   1       1.549   5.670  -0.270  0.00  0.00     0.000 A 
HETATM   40  C   UNK N   1       2.140   4.464   0.111  0.00  0.00     0.001 A 
HETATM   41  C   UNK N   1       1.406   3.276   0.048  0.00  0.00     0.009 A 
ENDBRANCH  14  36
ENDBRANCH   2  14
TORSDOF 8
