REMARK  5 active torsions:
REMARK  status: ('A' for Active; 'I' for Inactive)
REMARK    1  A    between atoms: O_4  and  C_21 
REMARK    2  A    between atoms: N_6  and  C_9 
REMARK    3  A    between atoms: N_6  and  C_12 
REMARK    4  A    between atoms: C_10  and  C_17 
REMARK    5  A    between atoms: C_15  and  C_21 
ROOT
HETATM    1  N   UNK N   1       3.823   0.554  -0.432  0.00  0.00    -0.342 N 
HETATM    2  H   UNK N   1       2.951   0.961  -0.638  0.00  0.00     0.167 HD
ENDROOT
BRANCH   1   3
HETATM    3  C   UNK N   1       3.862  -0.865  -0.333  0.00  0.00     0.034 A 
HETATM    4  C   UNK N   1       2.653  -1.566  -0.328  0.00  0.00     0.045 A 
HETATM    5  C   UNK N   1       2.628  -2.949  -0.099  0.00  0.00     0.050 A 
HETATM    6  C   UNK N   1       3.831  -3.634   0.112  0.00  0.00     0.016 A 
HETATM    7  C   UNK N   1       5.046  -2.947   0.078  0.00  0.00     0.003 A 
HETATM    8  C   UNK N   1       5.061  -1.566  -0.128  0.00  0.00     0.029 A 
BRANCH   5   9
HETATM    9  C   UNK N   1       1.323  -3.687  -0.020  0.00  0.00     0.417 C 
HETATM   10  F   UNK N   1       1.135  -4.131   1.277  0.00  0.00    -0.166 F 
HETATM   11  F   UNK N   1       1.343  -4.774  -0.873  0.00  0.00    -0.166 F 
HETATM   12  F   UNK N   1       0.263  -2.865  -0.366  0.00  0.00    -0.166 F 
ENDBRANCH   5   9
ENDBRANCH   1   3
BRANCH   1  13
HETATM   13  C   UNK N   1       4.923   1.441  -0.262  0.00  0.00     0.122 A 
HETATM   14  N   UNK N   1       6.203   0.964  -0.253  0.00  0.00    -0.351 N 
HETATM   15  C   UNK N   1       7.276   1.775  -0.062  0.00  0.00     0.090 A 
ATOM     16  HN  UNK N   1       6.358  -0.034  -0.394  1.00  0.00     0.166 HD
HETATM   17  C   UNK N   1       7.093   3.140   0.141  0.00  0.00     0.018 A 
HETATM   18  C   UNK N   1       5.801   3.661   0.142  0.00  0.00     0.023 A 
HETATM   19  C   UNK N   1       4.698   2.825  -0.062  0.00  0.00     0.081 A 
BRANCH  19  20
HETATM   20  C   UNK N   1       3.336   3.425  -0.031  0.00  0.00     0.179 C 
HETATM   21  O   UNK N   1       2.343   2.742  -0.217  0.00  0.00    -0.646 OA
BRANCH  20  22
HETATM   22  O   UNK N   1       3.191   4.743   0.214  0.00  0.00    -0.773 OA
HETATM   23  H   UNK N   1       3.933   5.288   0.384  0.00  0.00     0.167 HD
ENDBRANCH  20  22
ENDBRANCH  19  20
ENDBRANCH   1  13
TORSDOF 5
