REMARK  5 active torsions:
REMARK  status: ('A' for Active; 'I' for Inactive)
REMARK    1  A    between atoms: N_5  and  C_8 
REMARK    2  A    between atoms: N_15  and  C_23 
REMARK    3  A    between atoms: C_17  and  C_20 
REMARK    4  A    between atoms: C_20  and  O_22 
REMARK    5  A    between atoms: C_23  and  C_24 
ROOT
HETATM    1  C   UNK N   1      -1.450  -0.573   0.065  0.00  0.00     0.111 A 
HETATM    2  C   UNK N   1      -1.414  -1.987   0.151  0.00  0.00     0.147 A 
HETATM    3  C   UNK N   1      -0.206  -2.668   0.079  0.00  0.00     0.062 A 
HETATM    4  C   UNK N   1       1.002  -1.992  -0.083  0.00  0.00     0.048 A 
HETATM    5  C   UNK N   1       1.015  -0.582  -0.218  0.00  0.00     0.090 A 
HETATM    6  C   UNK N   1      -0.225   0.119  -0.156  0.00  0.00     0.173 A 
HETATM    7  F   UNK N   1      -0.245   1.466  -0.294  0.00  0.00    -0.201 F 
HETATM    8  N   UNK N   1       2.227   0.063  -0.394  0.00  0.00    -0.350 N 
HETATM    9  C   UNK N   1       3.394  -0.637  -0.408  0.00  0.00     0.114 A 
HETATM   10  C   UNK N   1       3.425  -2.025  -0.249  0.00  0.00     0.104 A 
HETATM   11  C   UNK N   1       2.208  -2.710  -0.100  0.00  0.00     0.202 A 
HETATM   12  O   UNK N   1       2.195  -3.925   0.029  0.00  0.00    -0.286 OA
HETATM   13  F   UNK N   1      -2.536  -2.723   0.338  0.00  0.00    -0.204 F 
ENDROOT
BRANCH   1  14
HETATM   14  N   UNK N   1      -2.693   0.150   0.242  0.00  0.00    -0.372 N 
HETATM   15  C   UNK N   1      -2.703   1.588   0.440  0.00  0.00     0.153 C 
HETATM   16  C   UNK N   1      -3.879   2.207  -0.308  0.00  0.00     0.291 C 
HETATM   17  N   UNK N   1      -5.116   1.567   0.132  0.00  0.00     0.087 N 
HETATM   18  C   UNK N   1      -6.211   2.197  -0.580  0.00  0.00     0.310 C 
HETATM   19  C   UNK N   1      -5.076   0.160  -0.266  0.00  0.00     0.291 C 
HETATM   20  C   UNK N   1      -3.945  -0.543   0.482  0.00  0.00     0.153 C 
ENDBRANCH   1  14
BRANCH   8  21
HETATM   21  C   UNK N   1       2.350   1.506  -0.592  0.00  0.00     0.160 C 
BRANCH  21  22
HETATM   22  C   UNK N   1       2.161   2.265   0.711  0.00  0.00     0.242 C 
HETATM   23  F   UNK N   1       1.849   3.580   0.421  0.00  0.00    -0.254 F 
ENDBRANCH  21  22
ENDBRANCH   8  21
BRANCH  10  24
HETATM   24  C   UNK N   1       4.740  -2.721  -0.230  0.00  0.00     0.181 C 
HETATM   25  O   UNK N   1       5.774  -2.078  -0.328  0.00  0.00    -0.646 OA
BRANCH  24  26
HETATM   26  O   UNK N   1       4.813  -4.059  -0.084  0.00  0.00    -0.772 OA
HETATM   27  H   UNK N   1       4.032  -4.568   0.017  0.00  0.00     0.167 HD
ENDBRANCH  24  26
ENDBRANCH  10  24
TORSDOF 5
