REMARK  0 active torsions:
REMARK  status: ('A' for Active; 'I' for Inactive)
ROOT
HETATM    1  C   UNK N   1       1.911   1.573   0.533  0.00  0.00     0.058 C 
HETATM    2  C   UNK N   1       0.503   1.130   0.278  0.00  0.00    -0.050 A 
HETATM    3  C   UNK N   1       0.139  -0.240   0.228  0.00  0.00    -0.045 A 
HETATM    4  C   UNK N   1       1.170  -1.340   0.424  0.00  0.00     0.032 C 
HETATM    5  C   UNK N   1       2.299  -1.250  -0.597  0.00  0.00     0.122 C 
HETATM    6  N   UNK N   1       3.306  -0.293  -0.159  0.00  0.00    -0.420 N 
HETATM    7  C   UNK N   1       2.864   1.044  -0.525  0.00  0.00     0.118 C 
HETATM    8  C   UNK N   1      -0.472   2.118   0.102  0.00  0.00     0.009 A 
HETATM    9  C   UNK N   1      -1.807   1.769  -0.111  0.00  0.00     0.024 A 
HETATM   10  C   UNK N   1      -2.177   0.426  -0.151  0.00  0.00     0.034 A 
HETATM   11  C   UNK N   1      -1.214  -0.570   0.012  0.00  0.00     0.032 A 
HETATM   12  C   UNK N   1       0.577  -2.741   0.352  0.00  0.00     0.017 C 
HETATM   13 Cl   UNK N   1      -3.855  -0.012  -0.387  0.00  0.00    -0.084 Cl
HETATM   14  H   UNK N   1       4.175  -0.522   0.323  0.00  0.00     0.153 HD
ENDROOT
TORSDOF 0
