REMARK  9 active torsions:
REMARK  status: ('A' for Active; 'I' for Inactive)
REMARK    1  A    between atoms: O_2  and  C_8 
REMARK    2  A    between atoms: O_2  and  C_15 
REMARK    3  A    between atoms: O_3  and  C_21 
REMARK    4  A    between atoms: N_5  and  C_13 
REMARK    5  A    between atoms: C_13  and  C_14 
REMARK    6  A    between atoms: C_14  and  C_16 
REMARK    7  A    between atoms: C_15  and  C_17 
REMARK    8  A    between atoms: C_15  and  C_18 
REMARK    9  A    between atoms: C_16  and  C_21 
ROOT
HETATM    1  C   UNK N   1       4.626  -1.688  -0.060  0.00  0.00     0.204 C 
ENDROOT
BRANCH   1   2
HETATM    2  O   UNK N   1       4.040  -1.235  -1.259  0.00  0.00    -0.370 OA
BRANCH   2   3
HETATM    3  C   UNK N   1       2.959  -0.332  -1.059  0.00  0.00     0.126 C 
HETATM    4  C   UNK N   1       2.433  -0.102   0.382  0.00  0.00     0.062 C 
HETATM    5  C   UNK N   1       2.523   1.371   0.797  0.00  0.00     0.275 C 
HETATM    6  N   UNK N   1       3.842   1.900   0.448  0.00  0.00     0.088 N 
HETATM    7  C   UNK N   1       4.117   1.907  -1.004  0.00  0.00     0.275 C 
HETATM    8  C   UNK N   1       3.207   0.973  -1.807  0.00  0.00     0.062 C 
BRANCH   6   9
HETATM    9  C   UNK N   1       4.038   3.229   1.039  0.00  0.00     0.273 C 
BRANCH   9  10
HETATM   10  C   UNK N   1       3.447   4.371   0.207  0.00  0.00     0.040 C 
BRANCH  10  11
HETATM   11  C   UNK N   1       2.091   4.800   0.733  0.00  0.00     0.111 C 
BRANCH  11  12
HETATM   12  C   UNK N   1       1.041   4.595  -0.310  0.00  0.00     0.139 C 
HETATM   13  O   UNK N   1       0.742   3.467  -0.666  0.00  0.00    -0.650 OA
BRANCH  12  14
HETATM   14  O   UNK N   1       0.411   5.656  -0.846  0.00  0.00    -0.776 OA
HETATM   15  H   UNK N   1       0.831   6.405  -1.220  0.00  0.00     0.167 HD
ENDBRANCH  12  14
ENDBRANCH  11  12
ENDBRANCH  10  11
ENDBRANCH   9  10
ENDBRANCH   6   9
ENDBRANCH   2   3
ENDBRANCH   1   2
BRANCH   1  16
HETATM   16  C   UNK N   1       4.296  -3.167   0.087  0.00  0.00    -0.024 A 
HETATM   17  C   UNK N   1       5.278  -4.170   0.150  0.00  0.00     0.012 A 
HETATM   18  C   UNK N   1       4.920  -5.518   0.222  0.00  0.00     0.024 A 
HETATM   19  C   UNK N   1       3.574  -5.882   0.232  0.00  0.00     0.034 A 
HETATM   20 Cl   UNK N   1       3.126  -7.572   0.286  0.00  0.00    -0.084 Cl
HETATM   21  C   UNK N   1       2.585  -4.896   0.183  0.00  0.00     0.024 A 
HETATM   22  C   UNK N   1       2.946  -3.547   0.112  0.00  0.00     0.012 A 
ENDBRANCH   1  16
BRANCH   1  23
HETATM   23  C   UNK N   1       6.075  -1.222  -0.029  0.00  0.00     0.043 A 
HETATM   24  N   UNK N   1       6.325   0.117  -0.082  0.00  0.00    -0.367 N 
HETATM   25  C   UNK N   1       7.589   0.620  -0.088  0.00  0.00     0.088 A 
ATOM     26  HN  UNK N   1       5.538   0.764  -0.118  1.00  0.00     0.165 HD
HETATM   27  C   UNK N   1       8.685  -0.241  -0.041  0.00  0.00     0.017 A 
HETATM   28  C   UNK N   1       8.466  -1.616   0.019  0.00  0.00     0.003 A 
HETATM   29  C   UNK N   1       7.161  -2.108   0.024  0.00  0.00     0.028 A 
ENDBRANCH   1  23
TORSDOF 9
