REMARK  13 active torsions:
REMARK  status: ('A' for Active; 'I' for Inactive)
REMARK    1  A    between atoms: C_4  and  N_5 
REMARK    2  A    between atoms: N_12  and  C_13 
REMARK    3  A    between atoms: C_13  and  C_14 
REMARK    4  A    between atoms: C_14  and  C_15 
REMARK    5  A    between atoms: C_15  and  C_16 
REMARK    6  A    between atoms: C_16  and  C_17 
REMARK    7  A    between atoms: C_17  and  C_18 
REMARK    8  A    between atoms: C_18  and  C_19 
REMARK    9  A    between atoms: C_19  and  C_20 
REMARK   10  A    between atoms: C_20  and  C_21 
REMARK   11  A    between atoms: C_21  and  C_22 
REMARK   12  A    between atoms: C_22  and  N_23 
REMARK   13  A    between atoms: C_27  and  N_28 
ROOT
HETATM    1  C   UNK N   1      -1.804   5.651   0.774  0.00  0.00     0.000 C 
ENDROOT
BRANCH   1   2
HETATM    2  C   UNK N   1      -1.978   5.829  -0.724  0.00  0.00     0.000 C 
BRANCH   2   3
HETATM    3  C   UNK N   1      -3.044   6.877  -1.004  0.00  0.00     0.002 C 
BRANCH   3   4
HETATM    4  C   UNK N   1      -4.432   6.255  -1.074  0.00  0.00     0.020 C 
BRANCH   4   5
HETATM    5  C   UNK N   1      -4.865   5.728   0.287  0.00  0.00     0.129 C 
BRANCH   5   6
HETATM    6  N   UNK N   1      -6.140   5.015   0.181  0.00  0.00    -0.350 N 
HETATM    7  C   UNK N   1      -7.321   5.713   0.096  0.00  0.00     0.047 A 
HETATM    8  C   UNK N   1      -7.335   7.121   0.110  0.00  0.00     0.030 A 
HETATM    9  C   UNK N   1      -8.551   5.017  -0.002  0.00  0.00     0.017 A 
HETATM   10  C   UNK N   1      -8.539   7.821   0.027  0.00  0.00     0.002 A 
HETATM   11  C   UNK N   1      -9.747   7.128  -0.072  0.00  0.00     0.001 A 
HETATM   12  C   UNK N   1      -9.754   5.732  -0.086  0.00  0.00     0.016 A 
HETATM   13  C   UNK N   1      -8.545   3.617  -0.011  0.00  0.00     0.040 A 
HETATM   14  C   UNK N   1      -7.338   2.935   0.082  0.00  0.00     0.054 A 
HETATM   15  C   UNK N   1      -6.140   3.642   0.180  0.00  0.00     0.010 A 
HETATM   16  C   UNK N   1      -4.868   2.863   0.275  0.00  0.00     0.068 C 
BRANCH  13  17
HETATM   17  N   UNK N   1      -9.750   2.887  -0.108  0.00  0.00    -0.398 N 
HETATM   18  H   UNK N   1     -10.610   3.359  -0.176  0.00  0.00     0.156 HD
HETATM   19  H   UNK N   1      -9.728   1.903  -0.108  0.00  0.00     0.156 HD
ENDBRANCH  13  17
ENDBRANCH   5   6
ENDBRANCH   4   5
ENDBRANCH   3   4
ENDBRANCH   2   3
ENDBRANCH   1   2
BRANCH   1  20
HETATM   20  C   UNK N   1      -1.929   4.185   1.149  0.00  0.00     0.000 C 
BRANCH  20  21
HETATM   21  C   UNK N   1      -0.595   3.472   1.039  0.00  0.00     0.000 C 
BRANCH  21  22
HETATM   22  C   UNK N   1      -0.262   3.078  -0.401  0.00  0.00     0.002 C 
BRANCH  22  23
HETATM   23  C   UNK N   1       1.020   3.750  -0.889  0.00  0.00     0.020 C 
BRANCH  23  24
HETATM   24  C   UNK N   1       2.123   3.599   0.155  0.00  0.00     0.129 C 
BRANCH  24  25
HETATM   25  N   UNK N   1       3.186   4.606   0.035  0.00  0.00    -0.350 N 
HETATM   26  C   UNK N   1       4.486   4.177  -0.070  0.00  0.00     0.010 A 
HETATM   27  C   UNK N   1       4.823   2.720  -0.107  0.00  0.00     0.068 C 
HETATM   28  C   UNK N   1       5.536   5.093  -0.120  0.00  0.00     0.054 A 
HETATM   29  C   UNK N   1       5.276   6.457  -0.071  0.00  0.00     0.040 A 
HETATM   30  C   UNK N   1       3.954   6.905   0.021  0.00  0.00     0.017 A 
HETATM   31  C   UNK N   1       2.902   5.957   0.079  0.00  0.00     0.047 A 
HETATM   32  C   UNK N   1       3.663   8.277   0.064  0.00  0.00     0.016 A 
HETATM   33  C   UNK N   1       1.578   6.423   0.187  0.00  0.00     0.030 A 
HETATM   34  C   UNK N   1       1.301   7.790   0.220  0.00  0.00     0.002 A 
HETATM   35  C   UNK N   1       2.342   8.716   0.158  0.00  0.00     0.001 A 
BRANCH  29  36
HETATM   36  N   UNK N   1       6.351   7.371  -0.107  0.00  0.00    -0.398 N 
HETATM   37  H   UNK N   1       7.278   7.039  -0.132  0.00  0.00     0.156 HD
HETATM   38  H   UNK N   1       6.175   8.339  -0.107  0.00  0.00     0.156 HD
ENDBRANCH  29  36
ENDBRANCH  24  25
ENDBRANCH  23  24
ENDBRANCH  22  23
ENDBRANCH  21  22
ENDBRANCH  20  21
ENDBRANCH   1  20
TORSDOF 13
