REMARK  4 active torsions:
REMARK  status: ('A' for Active; 'I' for Inactive)
REMARK    1  A    between atoms: O_2  and  C_26 
REMARK    2  A    between atoms: N_4  and  C_17 
REMARK       I    between atoms: N_4  and  C_19 
REMARK    3  A    between atoms: C_19  and  C_20 
REMARK    4  A    between atoms: C_25  and  C_26 
ROOT
HETATM    1  C   UNK N   1       0.720  -0.492  -0.028  0.00  0.00    -0.020 C 
HETATM    2  C   UNK N   1       0.315   2.503   0.028  0.00  0.00    -0.020 C 
HETATM    3  C   UNK N   1      -0.594   0.198  -0.384  0.00  0.00     0.015 C 
HETATM    4  C   UNK N   1      -0.761   1.481   0.400  0.00  0.00     0.015 C 
HETATM    5  C   UNK N   1       1.888   0.480   0.009  0.00  0.00    -0.041 A 
HETATM    6  C   UNK N   1       1.706   1.886  -0.023  0.00  0.00    -0.043 A 
HETATM    7  C   UNK N   1       0.599  -1.205   1.309  0.00  0.00     0.020 C 
HETATM    8  C   UNK N   1       0.948  -1.538  -1.108  0.00  0.00     0.020 C 
HETATM    9  C   UNK N   1      -0.017   3.148  -1.307  0.00  0.00     0.020 C 
HETATM   10  C   UNK N   1       0.258   3.571   1.107  0.00  0.00     0.020 C 
HETATM   11  C   UNK N   1       3.185  -0.036   0.048  0.00  0.00     0.038 A 
HETATM   12  C   UNK N   1       2.843   2.721  -0.079  0.00  0.00     0.011 A 
HETATM   13  C   UNK N   1       4.302   0.789   0.018  0.00  0.00     0.035 A 
HETATM   14  C   UNK N   1       4.135   2.178  -0.063  0.00  0.00     0.030 A 
ENDROOT
BRANCH  13  15
HETATM   15  N   UNK N   1       5.568   0.155   0.037  0.00  0.00    -0.323 N 
HETATM   16  C   UNK N   1       6.811   0.696   0.013  0.00  0.00     0.256 C 
HETATM   17  O   UNK N   1       6.978   1.909  -0.016  0.00  0.00    -0.267 OA
HETATM   18  H   UNK N   1       5.542  -0.828   0.074  0.00  0.00     0.169 HD
BRANCH  16  19
HETATM   19  C   UNK N   1       7.962  -0.232   0.014  0.00  0.00     0.032 A 
HETATM   20  C   UNK N   1       9.292   0.213  -0.006  0.00  0.00     0.018 A 
HETATM   21  C   UNK N   1      10.342  -0.720  -0.010  0.00  0.00     0.019 A 
HETATM   22  C   UNK N   1      10.067  -2.099   0.003  0.00  0.00     0.037 A 
HETATM   23  C   UNK N   1       8.740  -2.533   0.022  0.00  0.00     0.019 A 
HETATM   24  C   UNK N   1       7.701  -1.611   0.028  0.00  0.00     0.018 A 
BRANCH  22  25
HETATM   25  C   UNK N   1      11.157  -3.093  -0.003  0.00  0.00     0.176 C 
HETATM   26  O   UNK N   1      10.900  -4.288   0.004  0.00  0.00    -0.646 OA
BRANCH  25  27
HETATM   27  O   UNK N   1      12.443  -2.693  -0.014  0.00  0.00    -0.773 OA
HETATM   28  H   UNK N   1      13.131  -3.328  -0.023  0.00  0.00     0.167 HD
ENDBRANCH  25  27
ENDBRANCH  22  25
ENDBRANCH  16  19
ENDBRANCH  13  15
TORSDOF 4
