REMARK  12 active torsions:
REMARK  status: ('A' for Active; 'I' for Inactive)
REMARK    1  A    between atoms: O_1  and  C_2 
REMARK    2  A    between atoms: C_3  and  C_2 
REMARK    3  A    between atoms: C_5  and  O_23 
REMARK    4  A    between atoms: C_6  and  O_7 
REMARK    5  A    between atoms: C_8  and  O_9 
REMARK    6  A    between atoms: C_10  and  O_11 
REMARK    7  A    between atoms: C_12  and  O_23 
REMARK    8  A    between atoms: C_13  and  C_14 
REMARK    9  A    between atoms: C_14  and  O_15 
REMARK   10  A    between atoms: C_17  and  O_18 
REMARK   11  A    between atoms: C_19  and  O_20 
REMARK   12  A    between atoms: C_21  and  O_22 
ROOT
HETATM    1  O   UNK N   1       0.525  -1.589  -0.788  0.00  0.00    -0.348 OA
ENDROOT
BRANCH   1   2
HETATM    2  C   UNK N   1      -0.265  -2.503  -0.083  0.00  0.00     0.292 C 
HETATM    3  O   UNK N   1      -1.551  -2.511  -0.663  0.00  0.00    -0.348 OA
HETATM    4  C   UNK N   1      -2.389  -3.263   0.175  0.00  0.00     0.179 C 
HETATM    5  C   UNK N   1      -2.024  -4.742   0.020  0.00  0.00     0.180 C 
HETATM    6  C   UNK N   1      -0.577  -4.916   0.486  0.00  0.00     0.183 C 
HETATM    7  C   UNK N   1       0.340  -3.908  -0.206  0.00  0.00     0.204 C 
BRANCH   4   8
HETATM    8  C   UNK N   1      -3.838  -3.019  -0.218  0.00  0.00     0.198 C 
BRANCH   8   9
HETATM    9  O   UNK N   1      -4.187  -1.695   0.050  0.00  0.00    -0.398 OA
HETATM   10  H   UNK N   1      -3.511  -1.024   0.236  0.00  0.00     0.209 HD
ENDBRANCH   8   9
ENDBRANCH   4   8
BRANCH   5  11
HETATM   11  O   UNK N   1      -2.866  -5.539   0.796  0.00  0.00    -0.390 OA
HETATM   12  H   UNK N   1      -3.638  -5.310   1.336  0.00  0.00     0.210 HD
ENDBRANCH   5  11
BRANCH   6  13
HETATM   13  O   UNK N   1      -0.144  -6.217   0.225  0.00  0.00    -0.390 OA
HETATM   14  H   UNK N   1      -0.776  -6.929   0.043  0.00  0.00     0.210 HD
ENDBRANCH   6  13
BRANCH   7  15
HETATM   15  O   UNK N   1       1.606  -3.940   0.384  0.00  0.00    -0.388 OA
HETATM   16  H   UNK N   1       2.027  -4.712   0.793  0.00  0.00     0.210 HD
ENDBRANCH   7  15
ENDBRANCH   1   2
BRANCH   1  17
HETATM   17  C   UNK N   1       0.757  -0.484   0.048  0.00  0.00     0.187 C 
HETATM   18  C   UNK N   1      -0.238   0.654  -0.279  0.00  0.00     0.180 C 
HETATM   19  O   UNK N   1       0.095   1.806   0.455  0.00  0.00    -0.349 OA
HETATM   20  C   UNK N   1       1.274   2.309  -0.109  0.00  0.00     0.288 C 
HETATM   21  C   UNK N   1       2.433   1.417   0.326  0.00  0.00     0.204 C 
HETATM   22  C   UNK N   1       2.181   0.018  -0.237  0.00  0.00     0.183 C 
BRANCH  18  23
HETATM   23  C   UNK N   1      -1.661   0.262   0.076  0.00  0.00     0.198 C 
BRANCH  23  24
HETATM   24  O   UNK N   1      -2.547   1.264  -0.316  0.00  0.00    -0.398 OA
HETATM   25  H   UNK N   1      -2.252   2.146  -0.589  0.00  0.00     0.209 HD
ENDBRANCH  23  24
ENDBRANCH  18  23
BRANCH  20  26
HETATM   26  O   UNK N   1       1.474   3.617   0.334  0.00  0.00    -0.369 OA
HETATM   27  H   UNK N   1       2.331   3.951   0.642  0.00  0.00     0.212 HD
ENDBRANCH  20  26
BRANCH  21  28
HETATM   28  O   UNK N   1       3.635   1.912  -0.182  0.00  0.00    -0.388 OA
HETATM   29  H   UNK N   1       4.351   1.361  -0.535  0.00  0.00     0.210 HD
ENDBRANCH  21  28
BRANCH  22  30
HETATM   30  O   UNK N   1       3.126  -0.883   0.258  0.00  0.00    -0.390 OA
HETATM   31  H   UNK N   1       2.912  -1.764   0.601  0.00  0.00     0.210 HD
ENDBRANCH  22  30
ENDBRANCH   1  17
TORSDOF 12
