REMARK  6 active torsions:
REMARK  status: ('A' for Active; 'I' for Inactive)
REMARK       I    between atoms: N_2  and  C_9 
REMARK    1  A    between atoms: N_2  and  C_12 
REMARK    2  A    between atoms: N_2  and  C_13 
REMARK    3  A    between atoms: N_3  and  C_7 
REMARK    4  A    between atoms: C_4  and  C_8 
REMARK    5  A    between atoms: C_4  and  C_9 
REMARK    6  A    between atoms: C_5  and  C_7 
ROOT
HETATM    1  C   UNK N   1       4.771   0.212   0.046  0.00  0.00     0.073 A 
HETATM    2  C   UNK N   1       6.059   1.065   0.129  0.00  0.00     0.027 A 
HETATM    3  C   UNK N   1       5.263   0.746   1.382  0.00  0.00     0.032 A 
ENDROOT
BRANCH   1   4
HETATM    4  C   UNK N   1       5.079  -1.278  -0.115  0.00  0.00    -0.040 A 
HETATM    5  C   UNK N   1       6.403  -1.747   0.030  0.00  0.00     0.008 A 
HETATM    6  C   UNK N   1       6.705  -3.105  -0.091  0.00  0.00     0.001 A 
HETATM    7  C   UNK N   1       5.688  -4.022  -0.355  0.00  0.00     0.000 A 
HETATM    8  C   UNK N   1       4.375  -3.576  -0.512  0.00  0.00     0.001 A 
HETATM    9  C   UNK N   1       4.078  -2.214  -0.399  0.00  0.00     0.008 A 
ENDBRANCH   1   4
BRANCH   1  10
HETATM   10  C   UNK N   1       3.430   0.890  -0.339  0.00  0.00     0.233 C 
HETATM   11  O   UNK N   1       3.484   1.861  -1.073  0.00  0.00    -0.272 OA
HETATM   12  N   UNK N   1       2.200   0.484   0.133  0.00  0.00    -0.352 N 
BRANCH  12  13
HETATM   13  C   UNK N   1       2.043  -0.694   0.958  0.00  0.00     0.121 C 
HETATM   14  C   UNK N   1       1.197  -1.740   0.226  0.00  0.00     0.026 C 
ENDBRANCH  12  13
BRANCH  12  15
HETATM   15  C   UNK N   1       1.027   1.288  -0.232  0.00  0.00     0.121 C 
HETATM   16  C   UNK N   1      -0.274   0.872   0.450  0.00  0.00     0.026 C 
ENDBRANCH  12  15
ENDBRANCH   1  10
BRANCH   2  17
HETATM   17  C   UNK N   1       5.951   2.552  -0.157  0.00  0.00     0.117 C 
BRANCH  17  18
HETATM   18  N   UNK N   1       7.274   3.148  -0.082  0.00  0.00    -0.430 N 
HETATM   19  H   UNK N   1       8.100   2.553  -0.029  0.00  0.00     0.149 HD
HETATM   20  H   UNK N   1       7.375   4.163  -0.082  0.00  0.00     0.149 HD
ENDBRANCH  17  18
ENDBRANCH   2  17
TORSDOF 6
