REMARK  22 active torsions:
REMARK  status: ('A' for Active; 'I' for Inactive)
REMARK    1  A    between atoms: S_1  and  O_7 
REMARK    2  A    between atoms: S_1  and  C_40 
REMARK    3  A    between atoms: S_2  and  O_8 
REMARK    4  A    between atoms: S_2  and  C_41 
REMARK    5  A    between atoms: S_3  and  O_9 
REMARK    6  A    between atoms: S_3  and  C_42 
REMARK    7  A    between atoms: S_4  and  O_10 
REMARK    8  A    between atoms: S_4  and  C_43 
REMARK    9  A    between atoms: S_5  and  O_15 
REMARK   10  A    between atoms: S_5  and  C_48 
REMARK   11  A    between atoms: S_6  and  O_16 
REMARK   12  A    between atoms: S_6  and  C_49 
REMARK   13  A    between atoms: N_30  and  C_44 
REMARK       I    between atoms: N_30  and  C_56 
REMARK   14  A    between atoms: N_31  and  C_45 
REMARK       I    between atoms: N_31  and  C_57 
REMARK   15  A    between atoms: N_32  and  C_62 
REMARK       I    between atoms: N_32  and  C_72 
REMARK   16  A    between atoms: N_33  and  C_63 
REMARK       I    between atoms: N_33  and  C_73 
REMARK   17  A    between atoms: N_34  and  C_78 
REMARK       I    between atoms: N_34  and  C_86 
REMARK   18  A    between atoms: N_35  and  C_79 
REMARK       I    between atoms: N_35  and  C_86 
REMARK   19  A    between atoms: C_56  and  C_58 
REMARK   20  A    between atoms: C_57  and  C_59 
REMARK   21  A    between atoms: C_72  and  C_74 
REMARK   22  A    between atoms: C_73  and  C_75 
ROOT
HETATM    1  O   UNK N   1      12.672  -0.069  -1.846  0.00  0.00    -0.247 OA
HETATM    2  N   UNK N   1      12.777   1.388  -0.134  0.00  0.00    -0.309 N 
HETATM    3  N   UNK N   1      11.550   1.840  -2.090  0.00  0.00    -0.309 N 
HETATM    4  C   UNK N   1      12.292   0.993  -1.341  0.00  0.00     0.325 C 
HETATM    5  H   UNK N   1      12.167   1.814   0.510  0.00  0.00     0.170 HD
HETATM    6  H   UNK N   1      11.146   1.549  -2.940  0.00  0.00     0.170 HD
ENDROOT
BRANCH   2   7
HETATM    7  C   UNK N   1      14.127   1.205   0.220  0.00  0.00     0.037 A 
HETATM    8  C   UNK N   1      15.028   1.053  -0.824  0.00  0.00     0.046 A 
HETATM    9  C   UNK N   1      16.382   1.108  -0.634  0.00  0.00     0.034 A 
HETATM   10  C   UNK N   1      16.874   1.347   0.668  0.00  0.00     0.017 A 
HETATM   11  C   UNK N   1      15.982   1.527   1.739  0.00  0.00     0.003 A 
HETATM   12  C   UNK N   1      14.598   1.482   1.509  0.00  0.00     0.029 A 
BRANCH   9  13
HETATM   13  C   UNK N   1      17.249   1.004  -1.847  0.00  0.00     0.256 C 
HETATM   14  O   UNK N   1      16.772   1.252  -2.944  0.00  0.00    -0.267 OA
HETATM   15  N   UNK N   1      18.547   0.617  -1.763  0.00  0.00    -0.322 N 
HETATM   16  H   UNK N   1      19.193   0.883  -2.457  0.00  0.00     0.169 HD
BRANCH  15  17
HETATM   17  C   UNK N   1      18.958  -0.170  -0.669  0.00  0.00     0.042 A 
HETATM   18  C   UNK N   1      18.156  -1.248  -0.322  0.00  0.00     0.047 A 
HETATM   19  C   UNK N   1      18.412  -2.015   0.792  0.00  0.00     0.034 A 
HETATM   20  C   UNK N   1      19.517  -1.701   1.598  0.00  0.00     0.018 A 
HETATM   21  C   UNK N   1      20.365  -0.639   1.235  0.00  0.00     0.010 A 
HETATM   22  C   UNK N   1      20.095   0.124   0.087  0.00  0.00    -0.035 A 
HETATM   23  C   UNK N   1      20.979   1.264  -0.279  0.00  0.00     0.050 C 
BRANCH  19  24
HETATM   24  C   UNK N   1      17.580  -3.208   0.996  0.00  0.00     0.256 C 
HETATM   25  O   UNK N   1      17.674  -3.864   2.024  0.00  0.00    -0.267 OA
HETATM   26  N   UNK N   1      16.802  -3.639  -0.037  0.00  0.00    -0.322 N 
HETATM   27  H   UNK N   1      16.698  -3.060  -0.827  0.00  0.00     0.169 HD
BRANCH  26  28
HETATM   28  C   UNK N   1      16.143  -4.881  -0.014  0.00  0.00     0.047 A 
HETATM   29  C   UNK N   1      16.845  -6.128  -0.039  0.00  0.00     0.026 A 
HETATM   30  C   UNK N   1      16.075  -7.321   0.175  0.00  0.00     0.003 A 
HETATM   31  C   UNK N   1      18.268  -6.276  -0.246  0.00  0.00     0.087 A 
HETATM   32  C   UNK N   1      14.678  -7.247   0.367  0.00  0.00     0.083 A 
HETATM   33  C   UNK N   1      16.710  -8.572   0.229  0.00  0.00     0.039 A 
HETATM   34  C   UNK N   1      14.032  -6.019   0.313  0.00  0.00     0.028 A 
HETATM   35  C   UNK N   1      14.756  -4.853   0.129  0.00  0.00     0.032 A 
HETATM   36  C   UNK N   1      18.084  -8.689   0.060  0.00  0.00     0.074 A 
HETATM   37  C   UNK N   1      18.829  -7.536  -0.174  0.00  0.00     0.051 A 
BRANCH  32  38
HETATM   38  S   UNK N   1      13.691  -8.701   0.749  0.00  0.00     0.130 S 
HETATM   39  O   UNK N   1      12.424  -8.307   1.524  0.00  0.00    -0.598 OA
HETATM   40  O   UNK N   1      14.385  -9.596   1.787  0.00  0.00    -0.598 OA
BRANCH  38  41
HETATM   41  O   UNK N   1      13.151  -9.755  -0.492  0.00  0.00    -0.292 OA
HETATM   42  H   UNK N   1      12.483  -9.789  -1.194  0.00  0.00     0.232 HD
ENDBRANCH  38  41
ENDBRANCH  32  38
BRANCH  36  43
HETATM   43  S   UNK N   1      18.895 -10.308   0.274  0.00  0.00     0.129 S 
HETATM   44  O   UNK N   1      18.984  -9.946  -1.219  0.00  0.00    -0.598 OA
HETATM   45  O   UNK N   1      20.222  -9.625   0.647  0.00  0.00    -0.598 OA
BRANCH  43  46
HETATM   46  O   UNK N   1      19.787 -11.564  -0.481  0.00  0.00    -0.292 OA
HETATM   47  H   UNK N   1      19.424 -12.355  -0.908  0.00  0.00     0.232 HD
ENDBRANCH  43  46
ENDBRANCH  36  43
BRANCH  31  48
HETATM   48  S   UNK N   1      19.509  -5.024  -0.638  0.00  0.00     0.130 S 
HETATM   49  O   UNK N   1      20.116  -4.372   0.611  0.00  0.00    -0.598 OA
HETATM   50  O   UNK N   1      19.079  -3.843  -1.520  0.00  0.00    -0.598 OA
BRANCH  48  51
HETATM   51  O   UNK N   1      20.899  -5.643  -1.433  0.00  0.00    -0.292 OA
HETATM   52  H   UNK N   1      20.988  -6.498  -1.882  0.00  0.00     0.232 HD
ENDBRANCH  48  51
ENDBRANCH  31  48
ENDBRANCH  26  28
ENDBRANCH  19  24
ENDBRANCH  15  17
ENDBRANCH   9  13
ENDBRANCH   2   7
BRANCH   3  53
HETATM   53  C   UNK N   1      11.374   3.160  -1.608  0.00  0.00     0.037 A 
HETATM   54  C   UNK N   1      10.429   3.335  -0.641  0.00  0.00     0.046 A 
HETATM   55  C   UNK N   1      10.443   4.426   0.205  0.00  0.00     0.034 A 
HETATM   56  C   UNK N   1      11.402   5.432   0.018  0.00  0.00     0.017 A 
HETATM   57  C   UNK N   1      12.373   5.281  -0.976  0.00  0.00     0.003 A 
HETATM   58  C   UNK N   1      12.407   4.102  -1.736  0.00  0.00     0.029 A 
BRANCH  55  59
HETATM   59  C   UNK N   1       9.917   4.210   1.568  0.00  0.00     0.256 C 
HETATM   60  O   UNK N   1      10.092   5.075   2.410  0.00  0.00    -0.267 OA
HETATM   61  N   UNK N   1       9.570   2.953   1.981  0.00  0.00    -0.322 N 
HETATM   62  H   UNK N   1       9.805   2.688   2.899  0.00  0.00     0.169 HD
BRANCH  61  63
HETATM   63  C   UNK N   1       8.894   2.007   1.170  0.00  0.00     0.042 A 
HETATM   64  C   UNK N   1       7.665   2.400   0.728  0.00  0.00     0.047 A 
HETATM   65  C   UNK N   1       6.801   1.521   0.159  0.00  0.00     0.034 A 
HETATM   66  C   UNK N   1       7.190   0.197  -0.085  0.00  0.00     0.018 A 
HETATM   67  C   UNK N   1       8.466  -0.220   0.284  0.00  0.00     0.010 A 
HETATM   68  C   UNK N   1       9.305   0.665   0.977  0.00  0.00    -0.035 A 
HETATM   69  C   UNK N   1      10.577   0.146   1.535  0.00  0.00     0.050 C 
BRANCH  65  70
HETATM   70  C   UNK N   1       5.404   1.844   0.307  0.00  0.00     0.256 C 
HETATM   71  O   UNK N   1       4.632   0.918   0.499  0.00  0.00    -0.267 OA
HETATM   72  N   UNK N   1       4.907   3.102   0.369  0.00  0.00    -0.322 N 
HETATM   73  H   UNK N   1       3.944   3.047   0.568  0.00  0.00     0.169 HD
BRANCH  72  74
HETATM   74  C   UNK N   1       5.262   4.473   0.251  0.00  0.00     0.047 A 
HETATM   75  C   UNK N   1       4.202   5.389   0.066  0.00  0.00     0.026 A 
HETATM   76  C   UNK N   1       4.494   6.786  -0.047  0.00  0.00     0.003 A 
HETATM   77  C   UNK N   1       2.830   4.956  -0.031  0.00  0.00     0.087 A 
HETATM   78  C   UNK N   1       5.833   7.239   0.009  0.00  0.00     0.083 A 
HETATM   79  C   UNK N   1       3.438   7.698  -0.216  0.00  0.00     0.039 A 
HETATM   80  C   UNK N   1       6.863   6.310   0.188  0.00  0.00     0.028 A 
HETATM   81  C   UNK N   1       6.582   4.945   0.310  0.00  0.00     0.032 A 
HETATM   82  C   UNK N   1       2.119   7.241  -0.276  0.00  0.00     0.074 A 
HETATM   83  C   UNK N   1       1.840   5.897  -0.195  0.00  0.00     0.051 A 
BRANCH  78  84
HETATM   84  S   UNK N   1       6.267   8.987  -0.185  0.00  0.00     0.130 S 
HETATM   85  O   UNK N   1       7.668   9.291   0.370  0.00  0.00    -0.598 OA
HETATM   86  O   UNK N   1       6.455   9.357  -1.665  0.00  0.00    -0.598 OA
BRANCH  84  87
HETATM   87  O   UNK N   1       5.263  10.221   0.462  0.00  0.00    -0.292 OA
HETATM   88  H   UNK N   1       5.584  11.061   0.828  0.00  0.00     0.232 HD
ENDBRANCH  84  87
ENDBRANCH  78  84
BRANCH  82  89
HETATM   89  S   UNK N   1       0.727   8.337  -0.388  0.00  0.00     0.129 S 
HETATM   90  O   UNK N   1       1.029   9.761   0.093  0.00  0.00    -0.598 OA
HETATM   91  O   UNK N   1      -0.333   7.896   0.635  0.00  0.00    -0.598 OA
BRANCH  89  92
HETATM   92  O   UNK N   1      -0.133   8.471  -1.866  0.00  0.00    -0.292 OA
HETATM   93  H   UNK N   1      -0.310   8.930  -2.702  0.00  0.00     0.232 HD
ENDBRANCH  89  92
ENDBRANCH  82  89
BRANCH  77  94
HETATM   94  S   UNK N   1       2.220   3.243   0.016  0.00  0.00     0.130 S 
HETATM   95  O   UNK N   1       2.466   2.550   1.368  0.00  0.00    -0.598 OA
HETATM   96  O   UNK N   1       0.689   3.197  -0.050  0.00  0.00    -0.598 OA
BRANCH  94  97
HETATM   97  O   UNK N   1       2.724   2.134  -1.200  0.00  0.00    -0.292 OA
HETATM   98  H   UNK N   1       2.325   1.576  -1.885  0.00  0.00     0.232 HD
ENDBRANCH  94  97
ENDBRANCH  77  94
ENDBRANCH  72  74
ENDBRANCH  65  70
ENDBRANCH  61  63
ENDBRANCH  55  59
ENDBRANCH   3  53
TORSDOF 22
