REMARK  0 active torsions:
REMARK  status: ('A' for Active; 'I' for Inactive)
ROOT
HETATM    1  C   UNK N   1       5.085  -1.400   0.000  0.00  0.00     0.049 C 
HETATM    2  C   UNK N   1       4.935   0.086   0.000  0.00  0.00    -0.043 A 
HETATM    3  C   UNK N   1       6.078   0.883  -0.000  0.00  0.00     0.090 A 
HETATM    4  C   UNK N   1       5.947   2.276  -0.000  0.00  0.00     0.288 A 
HETATM    5  O   UNK N   1       6.940   2.976  -0.000  0.00  0.00    -0.260 OA
HETATM    6  O   UNK N   1       4.744   2.840  -0.000  0.00  0.00    -0.274 OA
HETATM    7  C   UNK N   1       3.621   2.130  -0.000  0.00  0.00     0.099 A 
HETATM    8  C   UNK N   1       3.674   0.701   0.000  0.00  0.00     0.005 A 
HETATM    9  C   UNK N   1       2.478  -0.053   0.000  0.00  0.00     0.029 A 
HETATM   10  C   UNK N   1       1.272   0.645   0.000  0.00  0.00     0.002 A 
HETATM   11  C   UNK N   1      -0.029   0.191   0.000  0.00  0.00     0.046 A 
HETATM   12  C   UNK N   1      -0.790   1.360   0.000  0.00  0.00     0.050 A 
HETATM   13  O   UNK N   1      -0.011   2.421   0.000  0.00  0.00    -0.314 OA
HETATM   14  C   UNK N   1       1.229   2.012   0.000  0.00  0.00     0.094 A 
HETATM   15  C   UNK N   1       2.378   2.789  -0.000  0.00  0.00     0.008 A 
HETATM   16  C   UNK N   1       2.288   4.278  -0.000  0.00  0.00     0.054 C 
HETATM   17  C   UNK N   1      -2.274   1.429  -0.000  0.00  0.00     0.077 C 
ENDROOT
TORSDOF 0
