REMARK  3 active torsions:
REMARK  status: ('A' for Active; 'I' for Inactive)
REMARK    1  A    between atoms: S_1  and  O_3 
REMARK    2  A    between atoms: S_1  and  O_4 
REMARK    3  A    between atoms: O_3  and  C_24 
ROOT
HETATM    1  O   UNK N   1       9.279   5.337  -0.165  0.00  0.00    -0.297 OA
HETATM    2  C   UNK N   1       7.640   2.281  -0.003  0.00  0.00     0.006 C 
HETATM    3  C   UNK N   1       7.521   3.774   0.196  0.00  0.00     0.021 C 
HETATM    4  C   UNK N   1       6.403   1.461   0.365  0.00  0.00    -0.000 C 
HETATM    5  C   UNK N   1       5.129   2.321   0.133  0.00  0.00     0.024 C 
HETATM    6  C   UNK N   1       6.498   4.291  -0.825  0.00  0.00     0.018 C 
HETATM    7  C   UNK N   1       9.039   1.846   0.385  0.00  0.00     0.013 C 
HETATM    8  C   UNK N   1       5.284   3.347  -1.010  0.00  0.00     0.011 C 
HETATM    9  C   UNK N   1       6.382   0.200  -0.486  0.00  0.00     0.010 C 
HETATM   10  C   UNK N   1       8.925   4.174  -0.061  0.00  0.00     0.135 C 
HETATM   11  C   UNK N   1       9.893   3.035  -0.068  0.00  0.00     0.079 C 
HETATM   12  C   UNK N   1       7.132   4.170   1.618  0.00  0.00     0.024 C 
HETATM   13  C   UNK N   1       3.865   1.518  -0.022  0.00  0.00    -0.047 A 
HETATM   14  C   UNK N   1       5.174  -0.663  -0.139  0.00  0.00     0.039 C 
HETATM   15  C   UNK N   1       3.886   0.111  -0.150  0.00  0.00    -0.049 A 
HETATM   16  C   UNK N   1       2.640   2.192  -0.033  0.00  0.00     0.011 A 
HETATM   17  C   UNK N   1       2.682  -0.591  -0.276  0.00  0.00     0.045 A 
HETATM   18  C   UNK N   1       1.447   1.485  -0.157  0.00  0.00     0.039 A 
HETATM   19  C   UNK N   1       1.459   0.088  -0.275  0.00  0.00     0.091 A 
ENDROOT
BRANCH  19  20
HETATM   20  O   UNK N   1       0.309  -0.618  -0.367  0.00  0.00    -0.221 OA
BRANCH  20  21
HETATM   21  S   UNK N   1      -1.224   0.082  -0.121  0.00  0.00     0.245 S 
HETATM   22  O   UNK N   1      -1.611   0.921  -1.348  0.00  0.00    -0.579 OA
HETATM   23  O   UNK N   1      -2.273  -1.037  -0.058  0.00  0.00    -0.579 OA
BRANCH  21  24
HETATM   24  O   UNK N   1      -1.339   1.041   1.299  0.00  0.00    -0.273 OA
HETATM   25  H   UNK N   1      -0.902   1.368   2.102  0.00  0.00     0.234 HD
ENDBRANCH  21  24
ENDBRANCH  20  21
ENDBRANCH  19  20
TORSDOF 3
