REMARK  3 active torsions:
REMARK  status: ('A' for Active; 'I' for Inactive)
REMARK    1  A    between atoms: C_5  and  O_9 
REMARK    2  A    between atoms: O_9  and  C_10 
REMARK    3  A    between atoms: B_18  and  O_19 
ROOT
HETATM    1  C   UNK N   1      -2.657  -1.110   0.133  0.00  0.00     0.025 A 
HETATM    2  C   UNK N   1      -3.855  -0.445   0.019  0.00  0.00     0.044 A 
HETATM    3  C   UNK N   1      -3.866   0.965  -0.074  0.00  0.00     0.025 A 
HETATM    4  C   UNK N   1      -2.645   1.686  -0.069  0.00  0.00     0.039 A 
HETATM    5  C   UNK N   1      -1.420   0.992   0.027  0.00  0.00     0.076 A 
HETATM    6  C   UNK N   1      -1.478  -0.404   0.142  0.00  0.00     0.039 A 
HETATM    7  C   UNK N   1      -5.046  -1.248  -0.013  0.00  0.00     0.099 C 
HETATM    8  N   UNK N   1      -5.962  -1.951  -0.032  0.00  0.00    -0.191 NA
ENDROOT
BRANCH   5   9
HETATM    9  O   UNK N   1      -0.203   1.651  -0.001  0.00  0.00    -0.311 OA
BRANCH   9  10
HETATM   10  C   UNK N   1       1.033   1.030  -0.019  0.00  0.00     0.076 A 
HETATM   11  C   UNK N   1       2.248   1.770   0.017  0.00  0.00     0.046 A 
HETATM   12  C   UNK N   1       3.469   1.050   0.007  0.00  0.00    -0.033 A 
HETATM   13  C   UNK N   1       4.883   1.572   0.046  0.00  0.00     0.184 A 
HETATM   14  C   UNK N   1       3.474  -0.301  -0.034  0.00  0.00    -0.024 A 
HETATM   15  O   UNK N   1       5.788   0.449   0.034  0.00  0.00    -0.419 OA
HETATM   16  B   UNK N   1       4.896  -0.720  -0.017  0.00  0.00     0.532 B 
HETATM   17  C   UNK N   1       2.332  -1.056  -0.078  0.00  0.00     0.004 A 
HETATM   18  C   UNK N   1       1.128  -0.381  -0.076  0.00  0.00     0.037 A 
BRANCH  16  19
HETATM   19  O   UNK N   1       5.347  -2.111  -0.011  0.00  0.00    -0.433 OA
HETATM   20  H   UNK N   1       4.698  -2.831  -0.007  0.00  0.00     0.185 HD
ENDBRANCH  16  19
ENDBRANCH   9  10
ENDBRANCH   5   9
TORSDOF 3
