REMARK  3 active torsions:
REMARK  status: ('A' for Active; 'I' for Inactive)
REMARK    1  A    between atoms: C_5  and  C_10 
REMARK    2  A    between atoms: C_6  and  C_7 
REMARK    3  A    between atoms: C_9  and  C_10 
ROOT
HETATM    1  N   UNK N   1       2.891   2.330  -0.047  0.00  0.00    -0.267 N 
HETATM    2  N   UNK N   1       4.159   2.641   0.140  0.00  0.00    -0.297 N 
ATOM      3  HN  UNK N   1       4.546   3.584   0.191  1.00  0.00     0.187 HD
HETATM    4  C   UNK N   1       3.969   0.401   0.126  0.00  0.00     0.063 A 
HETATM    5  C   UNK N   1       4.857   1.482   0.252  0.00  0.00     0.046 A 
HETATM    6  C   UNK N   1       2.732   0.998  -0.065  0.00  0.00     0.071 A 
HETATM    7  C   UNK N   1       1.473   0.429  -0.245  0.00  0.00     0.032 A 
HETATM    8  C   UNK N   1       1.865   3.205  -0.196  0.00  0.00     0.116 A 
HETATM    9  C   UNK N   1       0.380   1.296  -0.400  0.00  0.00     0.004 A 
HETATM   10  C   UNK N   1       0.573   2.690  -0.376  0.00  0.00     0.019 A 
ENDROOT
BRANCH   4  11
HETATM   11  C   UNK N   1       4.273  -1.057   0.172  0.00  0.00     0.167 C 
HETATM   12  O   UNK N   1       5.414  -1.431   0.401  0.00  0.00    -0.292 OA
BRANCH  11  13
HETATM   13  C   UNK N   1       3.198  -2.077  -0.108  0.00  0.00     0.052 C 
HETATM   14  C   UNK N   1       3.757  -3.411  -0.572  0.00  0.00     0.018 C 
HETATM   15  C   UNK N   1       2.321  -2.286   1.113  0.00  0.00     0.018 C 
ENDBRANCH  11  13
ENDBRANCH   4  11
BRANCH   5  16
HETATM   16  C   UNK N   1       6.347   1.429   0.487  0.00  0.00     0.030 C 
HETATM   17  C   UNK N   1       6.948   2.823   0.572  0.00  0.00     0.016 C 
HETATM   18  C   UNK N   1       7.060   0.676  -0.620  0.00  0.00     0.016 C 
ENDBRANCH   5  16
TORSDOF 3
