REMARK  4 active torsions:
REMARK  status: ('A' for Active; 'I' for Inactive)
REMARK    1  A    between atoms: Ag_1  and  Ag_1 
REMARK    2  A    between atoms: S_2  and  N_5 
REMARK    3  A    between atoms: S_2  and  C_12 
REMARK       I    between atoms: N_5  and  C_18 
REMARK    4  A    between atoms: N_7  and  C_15 
ROOT
HETATM    1 Ag   UNK N   1      -0.115   3.762   0.363  0.00  0.00     0.000 Ag
ENDROOT
TORSDOF 4
