REMARK  5 active torsions:
REMARK  status: ('A' for Active; 'I' for Inactive)
REMARK    1  A    between atoms: C_1  and  O_5 
REMARK    2  A    between atoms: C_6  and  C_1 
REMARK       I    between atoms: C_16  and  N_3 
REMARK    3  A    between atoms: N_9  and  C_7 
REMARK    4  A    between atoms: C_16  and  C_8 
REMARK    5  A    between atoms: C_23  and  N_9 
ROOT
HETATM    1  C   UNK N   1      -0.767  -1.936  -0.286  0.00  0.00     0.090 A 
HETATM    2  C   UNK N   1       0.491  -2.522   0.082  0.00  0.00     0.062 A 
HETATM    3  C   UNK N   1      -1.942  -2.730  -0.245  0.00  0.00     0.182 A 
HETATM    4  F   UNK N   1      -3.144  -2.217  -0.606  0.00  0.00    -0.200 F 
HETATM    5  C   UNK N   1      -1.888  -4.065   0.157  0.00  0.00     0.157 A 
HETATM    6  F   UNK N   1      -3.019  -4.809   0.211  0.00  0.00    -0.203 F 
HETATM    7  C   UNK N   1      -0.677  -4.640   0.498  0.00  0.00     0.046 A 
HETATM    8  C   UNK N   1       0.483  -3.881   0.461  0.00  0.00     0.022 A 
ENDROOT
BRANCH   2   9
HETATM    9  C   UNK N   1       1.849  -1.847   0.250  0.00  0.00     0.256 C 
HETATM   10  N   UNK N   1       2.141  -0.517   0.083  0.00  0.00    -0.342 N 
HETATM   11  C   UNK N   1       3.140   0.124   0.859  0.00  0.00     0.167 C 
HETATM   12  C   UNK N   1       1.378   0.627  -0.255  0.00  0.00     0.167 C 
HETATM   13  C   UNK N   1       2.247   1.389   0.771  0.00  0.00     0.110 C 
HETATM   14  O   UNK N   1       2.749  -2.556   0.683  0.00  0.00    -0.267 OA
BRANCH  13  15
HETATM   15  O   UNK N   1       1.501   1.558   1.939  0.00  0.00    -0.384 OA
HETATM   16  H   UNK N   1       1.344   2.065   2.751  0.00  0.00     0.210 HD
ENDBRANCH  13  15
BRANCH  13  17
HETATM   17  C   UNK N   1       3.011   2.663   0.423  0.00  0.00     0.114 C 
HETATM   18  C   UNK N   1       2.132   3.837   0.008  0.00  0.00     0.028 C 
HETATM   19  C   UNK N   1       2.996   5.099   0.023  0.00  0.00     0.004 C 
HETATM   20  C   UNK N   1       4.283   4.903  -0.785  0.00  0.00     0.019 C 
HETATM   21  C   UNK N   1       4.991   3.609  -0.373  0.00  0.00     0.114 C 
HETATM   22  N   UNK N   1       4.089   2.471  -0.540  0.00  0.00    -0.414 N 
HETATM   23  H   UNK N   1       4.192   1.699  -1.198  0.00  0.00     0.153 HD
ENDBRANCH  13  17
ENDBRANCH   2   9
BRANCH   1  24
HETATM   24  N   UNK N   1      -0.851  -0.587  -0.709  0.00  0.00    -0.350 N 
HETATM   25  H   UNK N   1      -0.138  -0.272  -1.310  0.00  0.00     0.166 HD
BRANCH  24  26
HETATM   26  C   UNK N   1      -1.851   0.367  -0.362  0.00  0.00     0.071 A 
HETATM   27  C   UNK N   1      -1.882   1.595  -1.040  0.00  0.00     0.144 A 
HETATM   28  C   UNK N   1      -2.818   2.571  -0.688  0.00  0.00     0.062 A 
HETATM   29  F   UNK N   1      -0.998   1.848  -2.036  0.00  0.00    -0.204 F 
HETATM   30  C   UNK N   1      -3.724   2.333   0.347  0.00  0.00     0.009 A 
HETATM   31  C   UNK N   1      -3.693   1.118   1.037  0.00  0.00     0.020 A 
HETATM   32  I   UNK N   1      -5.126   3.811   0.870  0.00  0.00    -0.044 I 
HETATM   33  C   UNK N   1      -2.755   0.141   0.689  0.00  0.00     0.034 A 
ENDBRANCH  24  26
ENDBRANCH   1  24
TORSDOF 5
