REMARK  7 active torsions:
REMARK  status: ('A' for Active; 'I' for Inactive)
REMARK    1  A    between atoms: O_2  and  C_8 
REMARK    2  A    between atoms: C_6  and  N_3 
REMARK    3  A    between atoms: N_3  and  C_13 
REMARK    4  A    between atoms: N_3  and  C_15 
REMARK    5  A    between atoms: C_13  and  C_17 
REMARK    6  A    between atoms: C_15  and  C_19 
REMARK    7  A    between atoms: C_16  and  C_17 
ROOT
HETATM    1  C   UNK N   1      -3.329  -1.030   0.015  0.00  0.00    -0.019 A 
HETATM    2  C   UNK N   1      -3.412   0.378   0.110  0.00  0.00    -0.047 A 
HETATM    3  C   UNK N   1      -0.906   0.527  -0.267  0.00  0.00     0.227 C 
HETATM    4  C   UNK N   1      -2.183   1.236   0.210  0.00  0.00     0.075 C 
HETATM    5  C   UNK N   1      -4.511  -1.787  -0.076  0.00  0.00     0.072 A 
HETATM    6  C   UNK N   1      -1.995  -1.733   0.008  0.00  0.00     0.044 C 
HETATM    7  C   UNK N   1      -0.831  -0.835   0.424  0.00  0.00     0.041 C 
HETATM    8  C   UNK N   1      -4.664   1.001   0.124  0.00  0.00     0.008 A 
HETATM    9  C   UNK N   1      -5.755  -1.149  -0.067  0.00  0.00     0.037 A 
HETATM   10  C   UNK N   1      -5.831   0.241   0.034  0.00  0.00     0.003 A 
ENDROOT
BRANCH   3  11
HETATM   11  N   UNK N   1       0.286   1.329   0.052  0.00  0.00     0.093 N 
BRANCH  11  12
HETATM   12  C   UNK N   1       1.461   0.676  -0.519  0.00  0.00     0.278 C 
BRANCH  12  13
HETATM   13  C   UNK N   1       2.605   0.748   0.477  0.00  0.00     0.076 C 
BRANCH  13  14
HETATM   14  C   UNK N   1       3.616  -0.309   0.207  0.00  0.00    -0.016 A 
HETATM   15  S   UNK N   1       5.227  -0.070  -0.060  0.00  0.00    -0.106 SA
HETATM   16  C   UNK N   1       5.727  -1.646  -0.209  0.00  0.00     0.050 A 
HETATM   17  C   UNK N   1       4.577  -2.433  -0.042  0.00  0.00     0.008 A 
HETATM   18  C   UNK N   1       3.391  -1.683   0.197  0.00  0.00     0.015 A 
ENDBRANCH  13  14
ENDBRANCH  12  13
ENDBRANCH  11  12
BRANCH  11  19
HETATM   19  C   UNK N   1       0.183   2.648  -0.571  0.00  0.00     0.272 C 
BRANCH  19  20
HETATM   20  C   UNK N   1       0.868   3.697   0.292  0.00  0.00     0.026 C 
HETATM   21  C   UNK N   1       2.296   3.910  -0.172  0.00  0.00     0.007 C 
ENDBRANCH  19  20
ENDBRANCH  11  19
ENDBRANCH   3  11
BRANCH   5  22
HETATM   22  O   UNK N   1      -4.459  -3.127  -0.166  0.00  0.00    -0.360 OA
HETATM   23  H   UNK N   1      -5.250  -3.626  -0.228  0.00  0.00     0.217 HD
ENDBRANCH   5  22
TORSDOF 7
