REMARK  7 active torsions:
REMARK  status: ('A' for Active; 'I' for Inactive)
REMARK    1  A    between atoms: C_14  and  O_1 
REMARK    2  A    between atoms: C_21  and  O_3 
REMARK    3  A    between atoms: O_3  and  C_27 
REMARK    4  A    between atoms: C_20  and  O_4 
REMARK    5  A    between atoms: O_5  and  C_25 
REMARK    6  A    between atoms: C_23  and  C_25 
REMARK    7  A    between atoms: C_27  and  C_28 
ROOT
HETATM    1  O   UNK N   1       2.641  -1.420  -2.172  0.00  0.00    -0.296 OA
HETATM    2  C   UNK N   1       1.506   1.089  -0.052  0.00  0.00     0.013 A 
HETATM    3  C   UNK N   1       1.820   0.097   1.128  0.00  0.00    -0.000 A 
HETATM    4  C   UNK N   1       0.503   0.076   0.264  0.00  0.00    -0.039 A 
HETATM    5  C   UNK N   1       2.535   0.958  -1.209  0.00  0.00     0.085 C 
HETATM    6  C   UNK N   1       3.370   0.242   1.111  0.00  0.00     0.011 C 
HETATM    7  C   UNK N   1       4.281  -1.436  -0.218  0.00  0.00     0.079 A 
HETATM    8  C   UNK N   1       4.346  -0.287  -0.298  0.00  0.00     0.005 A 
HETATM    9  C   UNK N   1       5.642  -0.758   0.743  0.00  0.00     0.136 A 
HETATM   10  C   UNK N   1       3.037  -0.743  -1.229  0.00  0.00     0.150 A 
HETATM   11  C   UNK N   1       0.240  -1.042  -0.737  0.00  0.00     0.015 C 
HETATM   12  C   UNK N   1      -0.685   0.503   1.106  0.00  0.00     0.015 C 
HETATM   13  C   UNK N   1       3.664   2.141  -0.703  0.00  0.00    -0.007 C 
HETATM   14  C   UNK N   1       5.045  -2.419  -1.072  0.00  0.00    -0.001 A 
HETATM   15  C   UNK N   1       5.927   1.052   0.859  0.00  0.00     0.188 C 
HETATM   16  C   UNK N   1       6.847  -1.635   0.281  0.00  0.00     0.199 A 
HETATM   17  C   UNK N   1       5.307   0.247  -1.643  0.00  0.00     0.011 C 
HETATM   18  C   UNK N   1       4.919   2.230   0.094  0.00  0.00    -0.028 C 
HETATM   19  C   UNK N   1       6.344  -2.504  -0.825  0.00  0.00    -0.054 A 
HETATM   20  C   UNK N   1       7.204  -3.486  -1.546  0.00  0.00     0.046 C 
ENDROOT
BRANCH  16  21
HETATM   21  O   UNK N   1       8.027  -0.984  -0.014  0.00  0.00    -0.305 OA
BRANCH  21  22
HETATM   22  C   UNK N   1       9.225  -1.588   0.239  0.00  0.00     0.289 C 
HETATM   23  O   UNK N   1       9.250  -2.734   0.667  0.00  0.00    -0.260 OA
BRANCH  22  24
HETATM   24  C   UNK N   1      10.499  -0.854  -0.006  0.00  0.00     0.009 C 
HETATM   25  C   UNK N   1      10.438   0.555  -0.487  0.00  0.00     0.054 C 
HETATM   26  C   UNK N   1      11.719  -1.393   0.189  0.00  0.00    -0.018 C 
HETATM   27  C   UNK N   1      11.972  -2.791   0.664  0.00  0.00     0.036 C 
ENDBRANCH  22  24
ENDBRANCH  21  22
ENDBRANCH  16  21
BRANCH   9  28
HETATM   28  O   UNK N   1       5.468  -1.180   2.071  0.00  0.00    -0.382 OA
HETATM   29  H   UNK N   1       5.156  -1.221   2.989  0.00  0.00     0.210 HD
ENDBRANCH   9  28
BRANCH  15  30
HETATM   30  O   UNK N   1       7.278   1.385   0.762  0.00  0.00    -0.388 OA
HETATM   31  H   UNK N   1       7.948   0.687   0.695  0.00  0.00     0.210 HD
ENDBRANCH  15  30
BRANCH  18  32
HETATM   32  C   UNK N   1       5.367   3.642   0.302  0.00  0.00     0.200 C 
BRANCH  32  33
HETATM   33  O   UNK N   1       6.583   3.872  -0.340  0.00  0.00    -0.397 OA
HETATM   34  H   UNK N   1       7.144   3.219  -0.787  0.00  0.00     0.209 HD
ENDBRANCH  32  33
ENDBRANCH  18  32
TORSDOF 7
