REMARK  6 active torsions:
REMARK  status: ('A' for Active; 'I' for Inactive)
REMARK    1  A    between atoms: C_3  and  O_22 
REMARK    2  A    between atoms: C_8  and  C_9 
REMARK    3  A    between atoms: S_10  and  C_9 
REMARK    4  A    between atoms: S_10  and  C_12 
REMARK    5  A    between atoms: O_22  and  C_23 
REMARK    6  A    between atoms: C_23  and  C_24 
ROOT
HETATM    1  C   UNK N   1      -0.629  -0.821   0.022  0.00  0.00     0.053 C 
HETATM    2  C   UNK N   1      -1.612   0.290  -0.175  0.00  0.00    -0.005 A 
HETATM    3  C   UNK N   1      -2.988   0.020  -0.151  0.00  0.00     0.078 A 
HETATM    4  C   UNK N   1      -3.898   1.068  -0.353  0.00  0.00     0.054 A 
HETATM    5  C   UNK N   1      -3.423   2.360  -0.575  0.00  0.00     0.091 A 
HETATM    6  N   UNK N   1      -2.086   2.597  -0.619  0.00  0.00    -0.368 N 
ATOM      7  HN  UNK N   1      -1.756   3.545  -0.800  1.00  0.00     0.165 HD
HETATM    8  C   UNK N   1      -1.175   1.604  -0.428  0.00  0.00     0.029 A 
ENDROOT
BRANCH   8   9
HETATM    9  C   UNK N   1       0.278   1.931  -0.524  0.00  0.00     0.175 C 
BRANCH   9  10
HETATM   10  S   UNK N   1       0.947   2.238   1.131  0.00  0.00     0.090 S 
HETATM   11  O   UNK N   1       1.068   3.744   0.849  0.00  0.00    -0.249 OA
BRANCH  10  12
HETATM   12  C   UNK N   1       2.631   1.871   0.622  0.00  0.00     0.176 A 
HETATM   13  N   UNK N   1       3.548   2.815   0.289  0.00  0.00    -0.333 N 
HETATM   14  C   UNK N   1       4.658   2.108   0.030  0.00  0.00     0.061 A 
HETATM   15  H   UNK N   1       3.427   3.791   0.247  0.00  0.00     0.168 HD
HETATM   16  C   UNK N   1       5.907   2.584  -0.348  0.00  0.00     0.032 A 
HETATM   17  C   UNK N   1       4.406   0.783   0.207  0.00  0.00     0.061 A 
HETATM   18  C   UNK N   1       6.928   1.633  -0.549  0.00  0.00     0.002 A 
HETATM   19  C   UNK N   1       6.669   0.254  -0.366  0.00  0.00     0.002 A 
HETATM   20  C   UNK N   1       5.387  -0.187   0.018  0.00  0.00     0.032 A 
HETATM   21  N   UNK N   1       3.132   0.608   0.582  0.00  0.00    -0.333 N 
ATOM     22  HN  UNK N   1       2.651  -0.267   0.788  1.00  0.00     0.168 HD
ENDBRANCH  10  12
ENDBRANCH   9  10
ENDBRANCH   8   9
BRANCH   3  23
HETATM   23  O   UNK N   1      -3.417  -1.249   0.044  0.00  0.00    -0.342 OA
BRANCH  23  24
HETATM   24  C   UNK N   1      -4.619  -1.707  -0.449  0.00  0.00     0.293 C 
BRANCH  24  25
HETATM   25  C   UNK N   1      -4.962  -3.068   0.130  0.00  0.00     0.408 C 
HETATM   26  F   UNK N   1      -5.786  -3.736  -0.755  0.00  0.00    -0.169 F 
HETATM   27  F   UNK N   1      -5.625  -2.897   1.330  0.00  0.00    -0.169 F 
HETATM   28  F   UNK N   1      -3.818  -3.820   0.337  0.00  0.00    -0.169 F 
ENDBRANCH  24  25
ENDBRANCH  23  24
ENDBRANCH   3  23
TORSDOF 6
