REMARK  5 active torsions:
REMARK  status: ('A' for Active; 'I' for Inactive)
REMARK    1  A    between atoms: N_3  and  C_9 
REMARK       I    between atoms: N_4  and  C_13 
REMARK    2  A    between atoms: C_5  and  C_8 
REMARK    3  A    between atoms: C_8  and  C_11 
REMARK    4  A    between atoms: C_9  and  C_12 
REMARK    5  A    between atoms: C_9  and  C_13 
ROOT
HETATM    1  O   UNK N   1       5.467  -0.323  -0.000  0.00  0.00    -0.273 OA
HETATM    2  N   UNK N   1       3.220  -0.650  -0.000  0.00  0.00    -0.338 N 
HETATM    3  C   UNK N   1       2.527   1.547   0.000  0.00  0.00     0.012 A 
HETATM    4  C   UNK N   1       2.023   0.134  -0.000  0.00  0.00     0.132 A 
HETATM    5  C   UNK N   1       4.055   1.596  -0.000  0.00  0.00     0.109 A 
HETATM    6  C   UNK N   1       4.330   0.129  -0.000  0.00  0.00     0.221 A 
ENDROOT
BRANCH   2   7
HETATM    7  C   UNK N   1       3.173  -2.119  -0.000  0.00  0.00     0.178 C 
BRANCH   7   8
HETATM    8  C   UNK N   1       4.520  -2.872   0.000  0.00  0.00     0.030 C 
HETATM    9  C   UNK N   1       4.440  -4.387  -0.000  0.00  0.00     0.007 C 
ENDBRANCH   7   8
BRANCH   7  10
HETATM   10  C   UNK N   1       1.797  -2.810  -0.000  0.00  0.00     0.238 C 
HETATM   11  O   UNK N   1       0.768  -2.153   0.000  0.00  0.00    -0.271 OA
HETATM   12  N   UNK N   1       1.697  -4.151   0.000  0.00  0.00    -0.368 N 
HETATM   13  H   UNK N   1       0.810  -4.579   0.000  0.00  0.00     0.159 HD
HETATM   14  H   UNK N   1       2.511  -4.706   0.000  0.00  0.00     0.159 HD
ENDBRANCH   7  10
ENDBRANCH   2   7
BRANCH   3  15
HETATM   15  C   UNK N   1       1.491   2.650  -0.000  0.00  0.00     0.006 C 
BRANCH  15  16
HETATM   16  C   UNK N   1       2.062   4.041   0.000  0.00  0.00    -0.004 C 
HETATM   17  C   UNK N   1       0.890   4.999  -0.000  0.00  0.00     0.005 C 
ENDBRANCH  15  16
ENDBRANCH   3  15
TORSDOF 5
