REMARK  9 active torsions:
REMARK  status: ('A' for Active; 'I' for Inactive)
REMARK    1  A    between atoms: C_2  and  C_3 
REMARK    2  A    between atoms: C_3  and  C_4 
REMARK    3  A    between atoms: C_4  and  O_6 
REMARK    4  A    between atoms: C_7  and  O_6 
REMARK    5  A    between atoms: C_7  and  C_30 
REMARK    6  A    between atoms: C_13  and  O_28 
REMARK    7  A    between atoms: C_30  and  C_32 
REMARK    8  A    between atoms: C_32  and  O_33 
REMARK    9  A    between atoms: O_33  and  C_34 
ROOT
HETATM    1  C   UNK N   1       6.094   1.206  -0.765  0.00  0.00     0.140 C 
HETATM    2  C   UNK N   1       5.804   0.408  -2.032  0.00  0.00     0.048 C 
HETATM    3  C   UNK N   1       4.835  -0.711  -1.619  0.00  0.00     0.009 C 
HETATM    4  C   UNK N   1       4.199  -0.289  -0.287  0.00  0.00     0.005 C 
HETATM    5  C   UNK N   1       4.707   1.150  -0.057  0.00  0.00     0.002 C 
HETATM    6  C   UNK N   1       3.743   2.125  -0.761  0.00  0.00     0.048 C 
HETATM    7  C   UNK N   1       2.288   2.015  -0.306  0.00  0.00     0.160 C 
HETATM    8  C   UNK N   1       1.881   0.673   0.359  0.00  0.00     0.147 C 
HETATM    9  C   UNK N   1       2.640  -0.484  -0.321  0.00  0.00     0.037 C 
HETATM   10  C   UNK N   1       2.293  -1.774   0.439  0.00  0.00     0.050 C 
HETATM   11  C   UNK N   1       0.818  -2.156   0.395  0.00  0.00     0.201 C 
HETATM   12  C   UNK N   1      -0.134  -0.987   0.295  0.00  0.00    -0.027 C 
HETATM   13  C   UNK N   1      -1.434  -1.262   0.055  0.00  0.00     0.061 C 
HETATM   14  C   UNK N   1      -2.306  -0.186  -0.466  0.00  0.00     0.172 C 
HETATM   15  O   UNK N   1      -3.516  -0.329  -0.517  0.00  0.00    -0.289 OA
HETATM   16  C   UNK N   1      -1.642   0.944  -1.159  0.00  0.00     0.052 C 
HETATM   17  C   UNK N   1      -0.333   1.158  -0.921  0.00  0.00    -0.006 C 
HETATM   18  C   UNK N   1       0.323   0.482   0.279  0.00  0.00     0.039 C 
HETATM   19  C   UNK N   1      -0.293   1.182   1.499  0.00  0.00     0.028 C 
HETATM   20  F   UNK N   1       0.643  -2.972  -0.710  0.00  0.00    -0.245 F 
HETATM   21  F   UNK N   1       2.272   0.669   1.694  0.00  0.00    -0.238 F 
HETATM   22  C   UNK N   1       4.784   1.537   1.421  0.00  0.00     0.019 C 
ENDROOT
BRANCH   1  23
HETATM   23  O   UNK N   1       6.394   2.524  -1.104  0.00  0.00    -0.301 OA
BRANCH  23  24
HETATM   24  C   UNK N   1       6.652   3.525  -0.211  0.00  0.00     0.260 C 
HETATM   25  O   UNK N   1       6.967   3.280   0.938  0.00  0.00    -0.265 OA
BRANCH  24  26
HETATM   26  C   UNK N   1       6.433   4.941  -0.636  0.00  0.00     0.111 C 
BRANCH  26  27
HETATM   27  C   UNK N   1       7.663   5.791  -0.399  0.00  0.00     0.005 C 
HETATM   28  C   UNK N   1       7.295   7.246  -0.604  0.00  0.00     0.005 C 
ENDBRANCH  26  27
ENDBRANCH  24  26
ENDBRANCH  23  24
ENDBRANCH   1  23
BRANCH   1  29
HETATM   29  C   UNK N   1       7.322   0.556  -0.114  0.00  0.00     0.186 C 
HETATM   30  O   UNK N   1       8.392   0.629  -0.700  0.00  0.00    -0.292 OA
BRANCH  29  31
HETATM   31  C   UNK N   1       7.308  -0.148   1.215  0.00  0.00     0.260 C 
BRANCH  31  32
HETATM   32  O   UNK N   1       6.828  -1.438   1.099  0.00  0.00    -0.314 OA
BRANCH  32  33
HETATM   33  C   UNK N   1       7.431  -2.419   0.379  0.00  0.00     0.255 C 
HETATM   34  O   UNK N   1       8.498  -2.223  -0.185  0.00  0.00    -0.266 OA
HETATM   35  C   UNK N   1       6.773  -3.749   0.261  0.00  0.00     0.126 C 
ENDBRANCH  32  33
ENDBRANCH  31  32
ENDBRANCH  29  31
ENDBRANCH   1  29
BRANCH   7  36
HETATM   36  O   UNK N   1       1.908   3.119   0.457  0.00  0.00    -0.392 OA
HETATM   37  H   UNK N   1       2.442   3.732   0.988  0.00  0.00     0.210 HD
ENDBRANCH   7  36
TORSDOF 9
