REMARK  1 active torsions:
REMARK  status: ('A' for Active; 'I' for Inactive)
REMARK    1  A    between atoms: C_14  and  O_20 
ROOT
HETATM    1  C   UNK N   1      16.469 -10.440  -0.298  0.00  0.00     0.154 C 
HETATM    2  C   UNK N   1      15.624 -11.190   0.779  0.00  0.00     0.305 C 
HETATM    3  C   UNK N   1      17.761 -11.256  -0.585  0.00  0.00     0.037 C 
HETATM    4  C   UNK N   1      16.774  -8.990   0.230  0.00  0.00     0.033 C 
HETATM    5  O   UNK N   1      15.728 -10.327  -1.513  0.00  0.00    -0.221 OA
HETATM    6  O   UNK N   1      14.416 -10.501   1.027  0.00  0.00    -0.320 OA
HETATM    7  O   UNK N   1      15.318 -12.499   0.342  0.00  0.00    -0.328 OA
HETATM    8  C   UNK N   1      17.422 -12.743  -0.798  0.00  0.00     0.044 C 
HETATM    9  C   UNK N   1      18.780 -11.005   0.531  0.00  0.00     0.009 C 
HETATM   10  C   UNK N   1      18.208  -8.571  -0.136  0.00  0.00    -0.011 C 
HETATM   11  C   UNK N   1      15.743  -7.986  -0.321  0.00  0.00     0.014 C 
HETATM   12  O   UNK N   1      14.411 -10.515  -1.327  0.00  0.00    -0.200 OA
HETATM   13  C   UNK N   1      13.935  -9.863  -0.146  0.00  0.00     0.196 C 
HETATM   14  C   UNK N   1      16.501 -13.267   0.311  0.00  0.00     0.266 C 
HETATM   15  C   UNK N   1      18.677 -13.594  -0.950  0.00  0.00     0.015 C 
HETATM   16  C   UNK N   1      19.216  -9.524   0.540  0.00  0.00     0.005 C 
HETATM   17  C   UNK N   1      18.527  -7.147   0.293  0.00  0.00     0.010 C 
HETATM   18  C   UNK N   1      14.269  -8.359  -0.096  0.00  0.00     0.071 C 
HETATM   19  C   UNK N   1      12.426  -9.985  -0.138  0.00  0.00     0.082 C 
ENDROOT
BRANCH  14  20
HETATM   20  O   UNK N   1      16.161 -14.598   0.047  0.00  0.00    -0.366 OA
HETATM   21  C   UNK N   1      15.973 -15.186   1.298  0.00  0.00     0.204 C 
ENDBRANCH  14  20
TORSDOF 1
