REMARK  12 active torsions:
REMARK  status: ('A' for Active; 'I' for Inactive)
REMARK    1  A    between atoms: C_2  and  C_4 
REMARK    2  A    between atoms: C_4  and  O_6 
REMARK    3  A    between atoms: O_6  and  C_7 
REMARK    4  A    between atoms: C_8  and  C_15 
REMARK    5  A    between atoms: C_10  and  C_13 
REMARK    6  A    between atoms: C_13  and  O_14 
REMARK    7  A    between atoms: C_15  and  C_16 
REMARK    8  A    between atoms: C_15  and  C_25 
REMARK    9  A    between atoms: C_16  and  C_17 
REMARK   10  A    between atoms: C_17  and  N_18 
REMARK   11  A    between atoms: N_18  and  C_19 
REMARK   12  A    between atoms: N_18  and  C_22 
ROOT
HETATM    1  C   UNK N   1       0.486  -1.447  -0.223  0.00  0.00     0.056 C 
ENDROOT
BRANCH   1   2
HETATM    2  C   UNK N   1      -0.327  -0.141  -0.150  0.00  0.00    -0.015 A 
HETATM    3  C   UNK N   1       0.314   1.133  -0.106  0.00  0.00     0.086 A 
HETATM    4  C   UNK N   1      -0.481   2.293  -0.027  0.00  0.00     0.038 A 
HETATM    5  C   UNK N   1      -1.870   2.223   0.006  0.00  0.00     0.012 A 
HETATM    6  C   UNK N   1      -2.503   0.984  -0.047  0.00  0.00    -0.034 A 
HETATM    7  C   UNK N   1      -1.733  -0.172  -0.122  0.00  0.00     0.020 A 
BRANCH   3   8
HETATM    8  O   UNK N   1       1.677   1.230  -0.171  0.00  0.00    -0.278 OA
BRANCH   8   9
HETATM    9  C   UNK N   1       2.409   2.388  -0.061  0.00  0.00     0.267 C 
HETATM   10  O   UNK N   1       1.894   3.422   0.334  0.00  0.00    -0.264 OA
BRANCH   9  11
HETATM   11  C   UNK N   1       3.863   2.423  -0.444  0.00  0.00     0.078 C 
HETATM   12  C   UNK N   1       4.721   2.799   0.750  0.00  0.00     0.020 C 
HETATM   13  C   UNK N   1       4.355   1.123  -1.042  0.00  0.00     0.020 C 
ENDBRANCH   9  11
ENDBRANCH   8   9
ENDBRANCH   3   8
BRANCH   6  14
HETATM   14  C   UNK N   1      -3.995   0.864  -0.030  0.00  0.00     0.202 C 
BRANCH  14  15
HETATM   15  O   UNK N   1      -4.615   2.115   0.029  0.00  0.00    -0.396 OA
HETATM   16  H   UNK N   1      -4.079   2.922   0.070  0.00  0.00     0.209 HD
ENDBRANCH  14  15
ENDBRANCH   6  14
ENDBRANCH   1   2
BRANCH   1  17
HETATM   17  C   UNK N   1       1.394  -1.404  -1.470  0.00  0.00     0.044 C 
BRANCH  17  18
HETATM   18  C   UNK N   1       2.576  -2.392  -1.481  0.00  0.00     0.274 C 
BRANCH  18  19
HETATM   19  N   UNK N   1       3.094  -2.670  -0.140  0.00  0.00     0.096 N 
BRANCH  19  20
HETATM   20  C   UNK N   1       3.682  -4.023  -0.066  0.00  0.00     0.215 C 
HETATM   21  C   UNK N   1       4.915  -4.220  -0.941  0.00  0.00     0.042 C 
HETATM   22  C   UNK N   1       3.934  -4.459   1.366  0.00  0.00     0.042 C 
ENDBRANCH  19  20
BRANCH  19  23
HETATM   23  C   UNK N   1       3.845  -1.529   0.417  0.00  0.00     0.215 C 
HETATM   24  C   UNK N   1       3.330  -1.185   1.800  0.00  0.00     0.042 C 
HETATM   25  C   UNK N   1       5.361  -1.681   0.436  0.00  0.00     0.042 C 
ENDBRANCH  19  23
ENDBRANCH  18  19
ENDBRANCH  17  18
ENDBRANCH   1  17
BRANCH   1  26
HETATM   26  C   UNK N   1      -0.253  -2.798  -0.082  0.00  0.00    -0.050 A 
HETATM   27  C   UNK N   1       0.491  -3.987  -0.011  0.00  0.00     0.008 A 
HETATM   28  C   UNK N   1      -0.133  -5.228   0.143  0.00  0.00     0.001 A 
HETATM   29  C   UNK N   1      -1.522  -5.302   0.242  0.00  0.00     0.000 A 
HETATM   30  C   UNK N   1      -2.283  -4.136   0.184  0.00  0.00     0.001 A 
HETATM   31  C   UNK N   1      -1.652  -2.899   0.023  0.00  0.00     0.008 A 
ENDBRANCH   1  26
TORSDOF 12
