REMARK  4 active torsions:
REMARK  status: ('A' for Active; 'I' for Inactive)
REMARK    1  A    between atoms: C_9  and  O_2 
REMARK       I    between atoms: N_5  and  C_13 
REMARK    2  A    between atoms: N_6  and  C_22 
REMARK       I    between atoms: N_6  and  C_25 
REMARK    3  A    between atoms: C_13  and  C_16 
REMARK    4  A    between atoms: C_25  and  C_26 
ROOT
HETATM    1  C   UNK N   1       5.750  -0.307   0.031  0.00  0.00     0.038 A 
HETATM    2  C   UNK N   1       6.869  -1.152  -0.214  0.00  0.00    -0.044 A 
HETATM    3  C   UNK N   1       5.987   0.926   0.667  0.00  0.00     0.020 A 
HETATM    4  C   UNK N   1       8.140  -0.734   0.147  0.00  0.00     0.037 A 
HETATM    5  C   UNK N   1       8.354   0.496   0.775  0.00  0.00     0.035 A 
HETATM    6  C   UNK N   1       7.272   1.334   1.017  0.00  0.00     0.030 A 
HETATM    7  C   UNK N   1       6.765  -2.487  -0.874  0.00  0.00     0.049 C 
ENDROOT
BRANCH   1   8
HETATM    8  C   UNK N   1       4.342  -0.761  -0.273  0.00  0.00     0.259 C 
HETATM    9  O   UNK N   1       4.194  -1.933  -0.577  0.00  0.00    -0.267 OA
HETATM   10  N   UNK N   1       3.227   0.064  -0.165  0.00  0.00    -0.313 N 
HETATM   11  C   UNK N   1       3.419   1.498  -0.058  0.00  0.00     0.133 C 
HETATM   12  C   UNK N   1       1.878  -0.497  -0.104  0.00  0.00     0.046 A 
HETATM   13  C   UNK N   1       2.832   2.031   1.232  0.00  0.00     0.023 C 
HETATM   14  C   UNK N   1       1.402   2.515   1.019  0.00  0.00     0.038 C 
HETATM   15  C   UNK N   1       0.649   1.803  -0.109  0.00  0.00     0.153 C 
HETATM   16  C   UNK N   1       0.687   0.304  -0.021  0.00  0.00    -0.001 A 
HETATM   17  C   UNK N   1      -0.554  -0.321   0.172  0.00  0.00     0.035 A 
HETATM   18  C   UNK N   1      -0.655  -1.705   0.285  0.00  0.00     0.034 A 
HETATM   19 Cl   UNK N   1      -2.205  -2.457   0.581  0.00  0.00    -0.084 Cl
HETATM   20  C   UNK N   1       0.479  -2.492   0.187  0.00  0.00     0.026 A 
HETATM   21  C   UNK N   1       1.716  -1.895   0.001  0.00  0.00     0.032 A 
BRANCH  15  22
HETATM   22  O   UNK N   1       1.065   2.247  -1.366  0.00  0.00    -0.391 OA
HETATM   23  H   UNK N   1       1.477   2.150  -2.239  0.00  0.00     0.210 HD
ENDBRANCH  15  22
ENDBRANCH   1   8
BRANCH   5  24
HETATM   24  N   UNK N   1       9.667   0.999   0.938  0.00  0.00    -0.323 N 
HETATM   25  C   UNK N   1      10.790   0.250   0.784  0.00  0.00     0.256 C 
HETATM   26  O   UNK N   1      10.739  -0.970   0.846  0.00  0.00    -0.267 OA
HETATM   27  H   UNK N   1       9.772   1.948   1.177  0.00  0.00     0.169 HD
BRANCH  25  28
HETATM   28  C   UNK N   1      12.030   0.934   0.352  0.00  0.00     0.038 A 
HETATM   29  C   UNK N   1      13.168   0.235  -0.125  0.00  0.00    -0.046 A 
HETATM   30  C   UNK N   1      14.251   0.952  -0.641  0.00  0.00     0.007 A 
HETATM   31  C   UNK N   1      13.242  -1.256  -0.157  0.00  0.00     0.049 C 
HETATM   32  C   UNK N   1      14.224   2.347  -0.684  0.00  0.00     0.001 A 
HETATM   33  C   UNK N   1      13.113   3.039  -0.207  0.00  0.00     0.001 A 
HETATM   34  C   UNK N   1      12.023   2.337   0.299  0.00  0.00     0.017 A 
ENDBRANCH  25  28
ENDBRANCH   5  24
TORSDOF 4
