REMARK  10 active torsions:
REMARK  status: ('A' for Active; 'I' for Inactive)
REMARK    1  A    between atoms: C_30  and  C_21 
REMARK    2  A    between atoms: C_24  and  O_54 
REMARK    3  A    between atoms: S_56  and  C_25 
REMARK    4  A    between atoms: C_35  and  C_29 
REMARK    5  A    between atoms: O_53  and  C_31 
REMARK    6  A    between atoms: O_54  and  C_32 
REMARK    7  A    between atoms: C_34  and  O_48 
REMARK    8  A    between atoms: C_38  and  C_37 
REMARK    9  A    between atoms: O_50  and  C_37 
REMARK   10  A    between atoms: N_45  and  S_56 
ROOT
HETATM    1  C   UNK N   1       5.337  -1.951  -1.452  0.00  0.00     0.152 C 
HETATM    2  C   UNK N   1       1.197  -0.734   0.385  0.00  0.00     0.027 C 
HETATM    3  C   UNK N   1       1.828  -1.786  -0.512  0.00  0.00     0.005 C 
HETATM    4  C   UNK N   1      -0.290  -0.849   0.347  0.00  0.00    -0.030 C 
HETATM    5  C   UNK N   1       2.874  -2.608   0.238  0.00  0.00     0.020 C 
HETATM    6  C   UNK N   1      -1.096   0.155  -0.023  0.00  0.00    -0.023 C 
HETATM    7  C   UNK N   1       4.078  -1.775   0.679  0.00  0.00     0.125 C 
HETATM    8  C   UNK N   1       3.902   3.249  -0.577  0.00  0.00     0.046 C 
HETATM    9  C   UNK N   1       5.245   2.087   1.090  0.00  0.00     0.047 C 
HETATM   10  C   UNK N   1      -1.288   2.456   0.509  0.00  0.00     0.052 A 
HETATM   11  C   UNK N   1      -0.657   1.519  -0.505  0.00  0.00     0.047 A 
HETATM   12  C   UNK N   1       5.074   3.444   0.374  0.00  0.00     0.130 C 
HETATM   13  C   UNK N   1       3.077   2.117   0.054  0.00  0.00     0.075 C 
HETATM   14  C   UNK N   1       4.174   1.152   0.528  0.00  0.00     0.092 C 
HETATM   15  C   UNK N   1       2.256   2.497   1.312  0.00  0.00     0.117 C 
HETATM   16  C   UNK N   1       4.761   0.247  -0.551  0.00  0.00     0.224 C 
HETATM   17  C   UNK N   1       0.151   2.678   0.135  0.00  0.00     0.105 A 
HETATM   18  N   UNK N   1       0.961   2.549   1.323  0.00  0.00    -0.357 N 
ATOM     19  HN  UNK N   1       0.487   2.496   2.224  1.00  0.00     0.162 HD
HETATM   20  N   UNK N   1       4.720  -1.121  -0.448  0.00  0.00    -0.356 N 
HETATM   21  O   UNK N   1       5.303   0.758  -1.529  0.00  0.00    -0.273 OA
ENDROOT
BRANCH  12  22
HETATM   22  O   UNK N   1       6.220   3.991  -0.226  0.00  0.00    -0.345 OA
BRANCH  22  23
HETATM   23  C   UNK N   1       7.490   3.479  -0.197  0.00  0.00     0.084 A 
HETATM   24  C   UNK N   1       7.705   2.118  -0.047  0.00  0.00     0.070 A 
HETATM   25  C   UNK N   1       8.976   1.582   0.030  0.00  0.00     0.069 A 
HETATM   26  N   UNK N   1      10.062   2.404  -0.023  0.00  0.00    -0.353 N 
HETATM   27  C   UNK N   1       9.914   3.764  -0.132  0.00  0.00     0.054 A 
ATOM     28  HN  UNK N   1      10.999   2.003   0.019  1.00  0.00     0.166 HD
HETATM   29  C   UNK N   1      11.040   4.617  -0.075  0.00  0.00    -0.001 A 
HETATM   30  C   UNK N   1       8.612   4.323  -0.252  0.00  0.00     0.025 A 
HETATM   31  C   UNK N   1      12.392   4.000   0.112  0.00  0.00     0.054 C 
HETATM   32  C   UNK N   1      10.858   6.033  -0.160  0.00  0.00     0.076 A 
HETATM   33  C   UNK N   1       9.566   6.542  -0.323  0.00  0.00     0.038 A 
HETATM   34  C   UNK N   1       8.455   5.704  -0.362  0.00  0.00     0.019 A 
BRANCH  25  35
HETATM   35  C   UNK N   1       9.080   0.126   0.200  0.00  0.00     0.101 A 
HETATM   36  N   UNK N   1      10.101  -0.659  -0.220  0.00  0.00    -0.351 N 
HETATM   37  C   UNK N   1       9.830  -2.004  -0.020  0.00  0.00     0.020 A 
ATOM     38  HN  UNK N   1      10.964  -0.304  -0.634  1.00  0.00     0.166 HD
HETATM   39  C   UNK N   1       8.591  -2.293   0.594  0.00  0.00     0.077 A 
HETATM   40  S   UNK N   1       7.882  -0.826   0.821  0.00  0.00    -0.080 SA
BRANCH  37  41
HETATM   41  C   UNK N   1      10.753  -3.077  -0.526  0.00  0.00     0.028 C 
HETATM   42  C   UNK N   1      10.233  -4.485  -0.258  0.00  0.00     0.016 C 
HETATM   43  C   UNK N   1      12.139  -2.931   0.058  0.00  0.00     0.016 C 
ENDBRANCH  37  41
ENDBRANCH  25  35
BRANCH  32  44
HETATM   44  O   UNK N   1      11.867   6.945  -0.081  0.00  0.00    -0.355 OA
HETATM   45  C   UNK N   1      13.193   6.687   0.176  0.00  0.00     0.210 C 
ENDBRANCH  32  44
ENDBRANCH  22  23
ENDBRANCH  12  22
BRANCH  15  46
HETATM   46  O   UNK N   1       2.901   2.693   2.481  0.00  0.00    -0.349 OA
HETATM   47  H   UNK N   1       3.243   2.373   3.293  0.00  0.00     0.219 HD
ENDBRANCH  15  46
BRANCH  17  48
HETATM   48  C   UNK N   1       0.189   4.077  -0.439  0.00  0.00     0.154 C 
HETATM   49  N   UNK N   1       0.904   4.966   0.164  0.00  0.00    -0.266 N 
ATOM     50  HN  UNK N   1       1.390   4.680   1.014  1.00  0.00     0.180 HD
BRANCH  49  51
HETATM   51  S   UNK N   1       1.104   6.624  -0.362  0.00  0.00     0.236 S 
HETATM   52  O   UNK N   1       2.601   6.288  -0.292  0.00  0.00    -0.205 OA
HETATM   53  O   UNK N   1       1.305   6.675  -1.883  0.00  0.00    -0.205 OA
BRANCH  51  54
HETATM   54  C   UNK N   1       1.660   7.977   0.732  0.00  0.00     0.130 A 
HETATM   55  C   UNK N   1       2.314   9.089  -0.071  0.00  0.00     0.023 A 
HETATM   56  C   UNK N   1       0.889   9.241   0.414  0.00  0.00     0.023 A 
ENDBRANCH  51  54
ENDBRANCH  49  51
BRANCH  48  57
HETATM   57  O   UNK N   1      -0.518   4.392  -1.544  0.00  0.00    -0.347 OA
HETATM   58  H   UNK N   1      -0.574   4.927  -2.312  0.00  0.00     0.219 HD
ENDBRANCH  48  57
ENDBRANCH  17  48
TORSDOF 10
