REMARK  12 active torsions:
REMARK  status: ('A' for Active; 'I' for Inactive)
REMARK    1  A    between atoms: N_2  and  O_4 
REMARK    2  A    between atoms: O_4  and  C_5 
REMARK    3  A    between atoms: C_5  and  C_6 
REMARK    4  A    between atoms: C_6  and  C_7 
REMARK    5  A    between atoms: C_6  and  C_12 
REMARK    6  A    between atoms: C_6  and  C_17 
REMARK    7  A    between atoms: C_7  and  O_8 
REMARK    8  A    between atoms: O_8  and  N_9 
REMARK    9  A    between atoms: C_12  and  O_13 
REMARK   10  A    between atoms: O_13  and  N_14 
REMARK   11  A    between atoms: C_17  and  O_18 
REMARK   12  A    between atoms: O_18  and  N_19 
ROOT
HETATM    1  C   UNK N   1       6.200  -1.421   0.126  0.00  0.00     0.056 C 
ENDROOT
BRANCH   1   2
HETATM    2  C   UNK N   1       6.151  -0.584  -1.180  0.00  0.00     0.224 C 
BRANCH   2   3
HETATM    3  O   UNK N   1       5.085   0.297  -1.260  0.00  0.00    -0.220 OA
BRANCH   3   4
HETATM    4  N   UNK N   1       4.961   1.363  -0.484  0.00  0.00     0.004 N 
HETATM    5  O   UNK N   1       3.804   1.983  -0.418  0.00  0.00    -0.511 OA
HETATM    6  O   UNK N   1       5.851   1.699   0.239  0.00  0.00    -0.511 OA
ENDBRANCH   3   4
ENDBRANCH   2   3
ENDBRANCH   1   2
BRANCH   1   7
HETATM    7  C   UNK N   1       6.257  -2.919  -0.239  0.00  0.00     0.224 C 
BRANCH   7   8
HETATM    8  O   UNK N   1       7.491  -3.308  -0.725  0.00  0.00    -0.220 OA
BRANCH   8   9
HETATM    9  N   UNK N   1       8.035  -4.468  -0.397  0.00  0.00     0.004 N 
HETATM   10  O   UNK N   1       9.331  -4.642  -0.536  0.00  0.00    -0.511 OA
HETATM   11  O   UNK N   1       7.364  -5.356   0.037  0.00  0.00    -0.511 OA
ENDBRANCH   8   9
ENDBRANCH   7   8
ENDBRANCH   1   7
BRANCH   1  12
HETATM   12  C   UNK N   1       4.979  -1.292   1.074  0.00  0.00     0.224 C 
BRANCH  12  13
HETATM   13  O   UNK N   1       3.783  -0.937   0.473  0.00  0.00    -0.220 OA
BRANCH  13  14
HETATM   14  N   UNK N   1       2.790  -1.777   0.236  0.00  0.00     0.004 N 
HETATM   15  O   UNK N   1       1.617  -1.298  -0.122  0.00  0.00    -0.511 OA
HETATM   16  O   UNK N   1       2.959  -2.955   0.281  0.00  0.00    -0.511 OA
ENDBRANCH  13  14
ENDBRANCH  12  13
ENDBRANCH   1  12
BRANCH   1  17
HETATM   17  C   UNK N   1       7.430  -0.964   0.955  0.00  0.00     0.224 C 
BRANCH  17  18
HETATM   18  O   UNK N   1       8.625  -1.444   0.448  0.00  0.00    -0.220 OA
BRANCH  18  19
HETATM   19  N   UNK N   1       9.705  -0.709   0.252  0.00  0.00     0.004 N 
HETATM   20  O   UNK N   1       9.719   0.571   0.557  0.00  0.00    -0.511 OA
HETATM   21  O   UNK N   1      10.699  -1.227  -0.160  0.00  0.00    -0.511 OA
ENDBRANCH  18  19
ENDBRANCH  17  18
ENDBRANCH   1  17
TORSDOF 12
