REMARK  2 active torsions:
REMARK  status: ('A' for Active; 'I' for Inactive)
REMARK    1  A    between atoms: C_3  and  C_8 
REMARK    2  A    between atoms: C_8  and  N_9 
REMARK       I    between atoms: C_11  and  N_12 
REMARK       I    between atoms: C_11  and  N_13 
ROOT
HETATM    1  N   UNK N   1      -1.275  -1.983   0.000  0.00  0.00    -0.223 N 
ATOM      2  HN  UNK N   1      -0.382  -2.477   0.000  1.00  0.00     0.178 HD
HETATM    3  C   UNK N   1      -2.371  -2.657   0.000  0.00  0.00     0.665 C 
HETATM    4  N   UNK N   1      -2.321  -4.067  -0.000  0.00  0.00    -0.235 N 
HETATM    5  N   UNK N   1      -3.627  -2.004  -0.000  0.00  0.00    -0.235 N 
HETATM    6  H   UNK N   1      -3.155  -4.590  -0.000  0.00  0.00     0.174 HD
HETATM    7  H   UNK N   1      -1.451  -4.529  -0.000  0.00  0.00     0.174 HD
HETATM    8  H   UNK N   1      -3.671  -1.021  -0.000  0.00  0.00     0.174 HD
HETATM    9  H   UNK N   1      -4.457  -2.534  -0.000  0.00  0.00     0.174 HD
ENDROOT
BRANCH   1  10
HETATM   10  C   UNK N   1      -1.286  -0.540   0.000  0.00  0.00     0.176 C 
BRANCH  10  11
HETATM   11  C   UNK N   1       0.084   0.055   0.000  0.00  0.00    -0.039 A 
HETATM   12  C   UNK N   1       1.251  -0.728  -0.000  0.00  0.00     0.009 A 
HETATM   13  C   UNK N   1       2.507  -0.109  -0.000  0.00  0.00     0.002 A 
HETATM   14  C   UNK N   1       2.599   1.288  -0.000  0.00  0.00     0.018 A 
HETATM   15  C   UNK N   1       1.434   2.063  -0.000  0.00  0.00     0.007 A 
HETATM   16  C   UNK N   1       0.186   1.445   0.000  0.00  0.00     0.027 A 
HETATM   17  I   UNK N   1       1.527   4.162  -0.000  0.00  0.00    -0.045 I 
ENDBRANCH  10  11
ENDBRANCH   1  10
TORSDOF 2
