REMARK  4 active torsions:
REMARK  status: ('A' for Active; 'I' for Inactive)
REMARK    1  A    between atoms: N_10  and  C_15 
REMARK    2  A    between atoms: C_15  and  C_16 
REMARK    3  A    between atoms: C_19  and  C_22 
REMARK    4  A    between atoms: C_22  and  N_23 
ROOT
HETATM    1  C   UNK N   1       1.009  -0.751   0.146  0.00  0.00    -0.030 A 
HETATM    2  C   UNK N   1       2.020  -1.345   0.907  0.00  0.00     0.009 A 
HETATM    3  C   UNK N   1       2.317  -2.695   0.753  0.00  0.00     0.009 A 
HETATM    4  C   UNK N   1       1.609  -3.472  -0.169  0.00  0.00    -0.030 A 
HETATM    5  C   UNK N   1       0.621  -2.877  -0.965  0.00  0.00     0.009 A 
HETATM    6  C   UNK N   1       0.323  -1.523  -0.809  0.00  0.00     0.009 A 
ENDROOT
BRANCH   1   7
HETATM    7  C   UNK N   1       0.668   0.683   0.417  0.00  0.00     0.311 C 
BRANCH   7   8
HETATM    8  N   UNK N   1      -0.548   1.145  -0.246  0.00  0.00     0.094 N 
HETATM    9  C   UNK N   1      -0.514   2.593  -0.121  0.00  0.00     0.274 C 
HETATM   10  C   UNK N   1      -1.386   3.240  -1.182  0.00  0.00     0.049 C 
HETATM   11  C   UNK N   1      -1.613   4.713  -0.855  0.00  0.00     0.115 C 
HETATM   12  N   UNK N   1      -2.419   4.862   0.352  0.00  0.00    -0.420 N 
HETATM   13  C   UNK N   1      -3.798   4.547   0.011  0.00  0.00     0.133 C 
HETATM   14  H   UNK N   1      -2.077   5.138   1.272  0.00  0.00     0.153 HD
HETATM   15  C   UNK N   1      -4.280   3.411   0.890  0.00  0.00     0.133 C 
HETATM   16  N   UNK N   1      -5.500   2.848   0.340  0.00  0.00    -0.420 N 
HETATM   17  C   UNK N   1      -5.275   1.418   0.233  0.00  0.00     0.115 C 
HETATM   18  H   UNK N   1      -6.346   3.356   0.080  0.00  0.00     0.153 HD
HETATM   19  C   UNK N   1      -5.306   1.004  -1.226  0.00  0.00     0.038 C 
HETATM   20  C   UNK N   1      -4.448  -0.232  -1.434  0.00  0.00     0.115 C 
HETATM   21  N   UNK N   1      -3.042   0.138  -1.415  0.00  0.00    -0.419 N 
HETATM   22  C   UNK N   1      -2.474  -0.391  -0.186  0.00  0.00     0.144 C 
HETATM   23  H   UNK N   1      -2.546   0.669  -2.131  0.00  0.00     0.153 HD
HETATM   24  C   UNK N   1      -1.692   0.692   0.545  0.00  0.00     0.292 C 
ENDBRANCH   7   8
ENDBRANCH   1   7
BRANCH   4  25
HETATM   25  C   UNK N   1       1.859  -4.946  -0.216  0.00  0.00     0.311 C 
BRANCH  25  26
HETATM   26  N   UNK N   1       0.696  -5.730   0.221  0.00  0.00     0.094 N 
HETATM   27  C   UNK N   1       1.190  -7.077   0.463  0.00  0.00     0.274 C 
HETATM   28  C   UNK N   1       0.640  -8.053  -0.563  0.00  0.00     0.049 C 
HETATM   29  C   UNK N   1      -0.733  -8.556  -0.155  0.00  0.00     0.115 C 
HETATM   30  N   UNK N   1      -1.745  -7.572  -0.492  0.00  0.00    -0.420 N 
HETATM   31  C   UNK N   1      -3.029  -8.246  -0.413  0.00  0.00     0.133 C 
HETATM   32  H   UNK N   1      -1.586  -6.595  -0.738  0.00  0.00     0.153 HD
HETATM   33  C   UNK N   1      -4.147  -7.242  -0.606  0.00  0.00     0.133 C 
HETATM   34  N   UNK N   1      -4.273  -6.417   0.584  0.00  0.00    -0.420 N 
HETATM   35  C   UNK N   1      -4.988  -5.207   0.209  0.00  0.00     0.115 C 
HETATM   36  H   UNK N   1      -3.923  -6.646   1.515  0.00  0.00     0.153 HD
HETATM   37  C   UNK N   1      -4.017  -4.134  -0.264  0.00  0.00     0.038 C 
HETATM   38  C   UNK N   1      -3.079  -3.728   0.860  0.00  0.00     0.115 C 
HETATM   39  N   UNK N   1      -1.722  -4.125   0.531  0.00  0.00    -0.419 N 
HETATM   40  C   UNK N   1      -1.302  -5.112   1.513  0.00  0.00     0.144 C 
HETATM   41  H   UNK N   1      -1.163  -3.776  -0.248  0.00  0.00     0.153 HD
HETATM   42  C   UNK N   1       0.215  -5.246   1.515  0.00  0.00     0.292 C 
ENDBRANCH  25  26
ENDBRANCH   4  25
TORSDOF 4
