REMARK  3 active torsions:
REMARK  status: ('A' for Active; 'I' for Inactive)
REMARK    1  A    between atoms: N_4  and  C_9 
REMARK       I    between atoms: N_8  and  C_18 
REMARK    2  A    between atoms: C_9  and  C_10 
REMARK    3  A    between atoms: C_14  and  C_18 
ROOT
HETATM    1  N   UNK N   1       3.630   1.413  -0.000  0.00  0.00    -0.280 N 
HETATM    2  N   UNK N   1       3.622   2.739  -0.000  0.00  0.00    -0.020 NA
HETATM    3  N   UNK N   1       4.862   3.206  -0.000  0.00  0.00    -0.278 N 
ATOM      4  HN  UNK N   1       5.144   4.187  -0.000  1.00  0.00     0.184 HD
HETATM    5  C   UNK N   1       4.905   1.005   0.000  0.00  0.00     0.144 A 
HETATM    6  C   UNK N   1       5.677   2.136   0.000  0.00  0.00     0.130 A 
ENDROOT
BRANCH   1   7
HETATM    7  C   UNK N   1       2.394   0.624  -0.000  0.00  0.00     0.191 C 
BRANCH   7   8
HETATM    8  C   UNK N   1       2.349  -0.911  -0.000  0.00  0.00     0.038 A 
HETATM    9  C   UNK N   1       3.449  -1.825  -0.000  0.00  0.00     0.127 A 
HETATM   10  F   UNK N   1       4.740  -1.450  -0.000  0.00  0.00    -0.205 F 
HETATM   11  C   UNK N   1       3.217  -3.202  -0.000  0.00  0.00     0.043 A 
HETATM   12  C   UNK N   1       1.925  -3.709   0.000  0.00  0.00     0.006 A 
HETATM   13  C   UNK N   1       0.843  -2.838   0.000  0.00  0.00     0.043 A 
HETATM   14  C   UNK N   1       1.047  -1.458   0.000  0.00  0.00     0.127 A 
HETATM   15  F   UNK N   1      -0.038  -0.643   0.000  0.00  0.00    -0.205 F 
ENDBRANCH   7   8
ENDBRANCH   1   7
BRANCH   6  16
HETATM   16  C   UNK N   1       7.145   2.172   0.000  0.00  0.00     0.268 C 
HETATM   17  O   UNK N   1       7.780   1.128   0.000  0.00  0.00    -0.266 OA
HETATM   18  N   UNK N   1       7.797   3.350   0.000  0.00  0.00    -0.365 N 
HETATM   19  H   UNK N   1       8.782   3.367  -0.000  0.00  0.00     0.159 HD
HETATM   20  H   UNK N   1       7.290   4.193   0.000  0.00  0.00     0.159 HD
ENDBRANCH   6  16
TORSDOF 3
