REMARK  6 active torsions:
REMARK  status: ('A' for Active; 'I' for Inactive)
REMARK    1  A    between atoms: C_19  and  C_13 
REMARK    2  A    between atoms: C_20  and  C_14 
REMARK    3  A    between atoms: C_18  and  O_33 
REMARK    4  A    between atoms: C_21  and  O_34 
REMARK    5  A    between atoms: O_35  and  C_22 
REMARK    6  A    between atoms: C_23  and  O_36 
ROOT
HETATM    1  C   UNK N   1       7.686  -0.655  -1.078  0.00  0.00     0.038 C 
HETATM    2  C   UNK N   1       6.470  -1.350  -0.551  0.00  0.00     0.003 C 
HETATM    3  C   UNK N   1       0.012  -2.148  -1.166  0.00  0.00    -0.027 C 
HETATM    4  C   UNK N   1      -0.065  -2.105  -2.659  0.00  0.00     0.038 C 
HETATM    5  C   UNK N   1       0.240  -1.000  -0.540  0.00  0.00     0.002 C 
HETATM    6  C   UNK N   1       1.356  -1.819  -3.217  0.00  0.00     0.090 C 
HETATM    7  C   UNK N   1      -0.137   0.120   1.719  0.00  0.00     0.120 C 
HETATM    8  C   UNK N   1       3.756   1.457  -1.285  0.00  0.00     0.119 C 
HETATM    9  C   UNK N   1       0.714  -0.841   0.877  0.00  0.00     0.162 C 
HETATM   10  C   UNK N   1       5.672  -0.772   0.372  0.00  0.00     0.081 C 
HETATM   11  C   UNK N   1       3.832   1.595   0.273  0.00  0.00     0.168 C 
HETATM   12  C   UNK N   1      -0.823   1.398   1.241  0.00  0.00     0.114 C 
HETATM   13  C   UNK N   1       0.967   2.385  -0.208  0.00  0.00     0.161 C 
HETATM   14  C   UNK N   1       2.772  -3.251   0.278  0.00  0.00     0.187 C 
HETATM   15  C   UNK N   1       4.451  -1.484   0.875  0.00  0.00     0.163 C 
HETATM   16  C   UNK N   1       5.252   1.567   0.848  0.00  0.00     0.140 C 
HETATM   17  C   UNK N   1       2.000   3.236   0.506  0.00  0.00     0.135 C 
HETATM   18  C   UNK N   1       1.813  -3.034   1.481  0.00  0.00     0.282 C 
HETATM   19  N   UNK N   1       6.019   0.525   0.845  0.00  0.00    -0.336 N 
ATOM     20  HN  UNK N   1       6.961   0.644   1.217  1.00  0.00     0.168 HD
HETATM   21  N   UNK N   1       3.227   2.855   0.685  0.00  0.00    -0.360 N 
ATOM     22  HN  UNK N   1       3.837   3.512   1.170  1.00  0.00     0.162 HD
HETATM   23  N   UNK N   1      -0.296   2.339   0.514  0.00  0.00    -0.362 N 
ATOM     24  HN  UNK N   1      -0.860   3.185   0.438  1.00  0.00     0.162 HD
HETATM   25  N   UNK N   1       3.944  -2.407   0.130  0.00  0.00    -0.355 N 
ATOM     26  HN  UNK N   1       4.467  -2.577  -0.729  1.00  0.00     0.162 HD
HETATM   27  O   UNK N   1       1.767  -3.905   2.334  0.00  0.00    -0.263 OA
HETATM   28  O   UNK N   1       0.912  -2.003   1.608  0.00  0.00    -0.310 OA
HETATM   29  S   UNK N   1       1.877  -0.040  -3.205  0.00  0.00    -0.097 SA
HETATM   30  S   UNK N   1       3.656  -0.250  -2.002  0.00  0.00    -0.095 SA
ENDROOT
BRANCH  13  31
HETATM   31  C   UNK N   1       0.708   2.966  -1.620  0.00  0.00     0.008 C 
HETATM   32  C   UNK N   1      -0.340   2.177  -2.386  0.00  0.00     0.012 C 
HETATM   33  C   UNK N   1       0.282   4.426  -1.617  0.00  0.00     0.012 C 
ENDBRANCH  13  31
BRANCH  17  34
HETATM   34  O   UNK N   1       1.642   4.462   0.935  0.00  0.00    -0.348 OA
HETATM   35  H   UNK N   1       2.256   5.104   1.234  0.00  0.00     0.219 HD
ENDBRANCH  17  34
BRANCH  12  36
HETATM   36  O   UNK N   1      -2.070   1.603   1.705  0.00  0.00    -0.349 OA
HETATM   37  H   UNK N   1      -2.380   2.426   2.029  0.00  0.00     0.219 HD
ENDBRANCH  12  36
BRANCH  16  38
HETATM   38  O   UNK N   1       5.737   2.699   1.401  0.00  0.00    -0.348 OA
HETATM   39  H   UNK N   1       6.586   2.800   1.784  0.00  0.00     0.219 HD
ENDBRANCH  16  38
BRANCH  15  40
HETATM   40  O   UNK N   1       3.891  -1.150   2.053  0.00  0.00    -0.345 OA
HETATM   41  H   UNK N   1       3.897  -0.696   2.872  0.00  0.00     0.219 HD
ENDBRANCH  15  40
BRANCH  14  42
HETATM   42  C   UNK N   1       3.289  -4.698   0.176  0.00  0.00     0.010 C 
HETATM   43  C   UNK N   1       4.195  -5.097   1.331  0.00  0.00     0.012 C 
HETATM   44  C   UNK N   1       2.173  -5.714  -0.013  0.00  0.00     0.012 C 
ENDBRANCH  14  42
TORSDOF 6
