REMARK  14 active torsions:
REMARK  status: ('A' for Active; 'I' for Inactive)
REMARK    1  A    between atoms: C_15  and  C_19 
REMARK    2  A    between atoms: C_19  and  C_24 
REMARK    3  A    between atoms: C_29  and  C_24 
REMARK    4  A    between atoms: C_32  and  O_38 
REMARK    5  A    between atoms: C_39  and  O_46 
REMARK    6  A    between atoms: C_45  and  O_50 
REMARK    7  A    between atoms: C_47  and  O_52 
REMARK    8  A    between atoms: O_50  and  C_65 
REMARK    9  A    between atoms: C_51  and  O_55 
REMARK   10  A    between atoms: C_65  and  C_66 
REMARK   11  A    between atoms: C_66  and  C_69 
REMARK   12  A    between atoms: C_66  and  C_70 
REMARK   13  A    between atoms: C_69  and  O_72 
REMARK   14  A    between atoms: C_70  and  O_73 
ROOT
HETATM    1  N   UNK N   1      13.224 -13.726   0.105  0.00  0.00    -0.331 N 
HETATM    2  C   UNK N   1      14.304 -13.112  -0.666  0.00  0.00     0.187 C 
HETATM    3  C   UNK N   1      13.234 -15.075   0.380  0.00  0.00     0.296 C 
HETATM    4  C   UNK N   1      12.028 -12.921   0.334  0.00  0.00     0.127 C 
HETATM    5  C   UNK N   1      15.312 -14.039  -1.306  0.00  0.00     0.282 C 
HETATM    6  C   UNK N   1      14.719 -11.705  -0.245  0.00  0.00     0.035 C 
HETATM    7  C   UNK N   1      11.989 -15.885   0.473  0.00  0.00     0.278 C 
HETATM    8  O   UNK N   1      14.300 -15.680   0.404  0.00  0.00    -0.264 OA
HETATM    9  C   UNK N   1      12.177 -11.482  -0.178  0.00  0.00     0.020 C 
HETATM   10  O   UNK N   1      16.408 -14.461  -0.635  0.00  0.00    -0.314 OA
HETATM   11  O   UNK N   1      15.037 -14.557  -2.375  0.00  0.00    -0.263 OA
HETATM   12  C   UNK N   1      13.521 -10.882   0.240  0.00  0.00     0.004 C 
HETATM   13  C   UNK N   1      12.041 -17.361   0.061  0.00  0.00     0.238 C 
HETATM   14  O   UNK N   1      10.907 -15.310   0.458  0.00  0.00    -0.281 OA
HETATM   15  C   UNK N   1      16.883 -13.863   0.509  0.00  0.00     0.142 C 
HETATM   16  O   UNK N   1      13.278 -17.932   0.495  0.00  0.00    -0.343 OA
HETATM   17  C   UNK N   1      10.854 -18.150   0.666  0.00  0.00     0.053 C 
HETATM   18  O   UNK N   1      11.975 -17.399  -1.341  0.00  0.00    -0.359 OA
HETATM   19  C   UNK N   1      17.511 -14.907   1.443  0.00  0.00     0.112 C 
HETATM   20  C   UNK N   1      13.437 -19.298   0.136  0.00  0.00     0.128 C 
HETATM   21  C   UNK N   1      10.971 -19.612   0.292  0.00  0.00     0.013 C 
HETATM   22  C   UNK N   1       9.494 -17.656   0.197  0.00  0.00     0.016 C 
HETATM   23  C   UNK N   1      18.440 -15.923   0.845  0.00  0.00     0.136 C 
HETATM   24  C   UNK N   1      14.776 -19.765   0.724  0.00  0.00     0.068 C 
HETATM   25  C   UNK N   1      12.312 -20.117   0.767  0.00  0.00     0.033 C 
HETATM   26  C   UNK N   1      18.067 -16.724  -0.396  0.00  0.00     0.074 C 
HETATM   27  O   UNK N   1      19.513 -16.116   1.401  0.00  0.00    -0.297 OA
HETATM   28  C   UNK N   1      15.202 -21.238   0.524  0.00  0.00     0.151 C 
HETATM   29  C   UNK N   1      19.160 -17.701  -0.750  0.00  0.00    -0.010 C 
HETATM   30  C   UNK N   1      16.718 -17.412  -0.261  0.00  0.00     0.022 C 
HETATM   31  C   UNK N   1      16.261 -21.579  -0.517  0.00  0.00    -0.055 C 
HETATM   32  C   UNK N   1      19.475 -18.774   0.003  0.00  0.00    -0.056 C 
HETATM   33  C   UNK N   1      16.829 -22.796  -0.564  0.00  0.00     0.005 C 
HETATM   34  C   UNK N   1      16.728 -20.543  -1.485  0.00  0.00     0.046 C 
HETATM   35  C   UNK N   1      20.780 -19.494  -0.239  0.00  0.00     0.183 C 
HETATM   36  C   UNK N   1      18.690 -19.094   1.240  0.00  0.00     0.046 C 
HETATM   37  C   UNK N   1      16.420 -23.908   0.325  0.00  0.00     0.000 C 
HETATM   38  C   UNK N   1      20.789 -21.027  -0.406  0.00  0.00     0.223 C 
HETATM   39  C   UNK N   1      17.095 -25.060   0.418  0.00  0.00    -0.000 C 
HETATM   40  C   UNK N   1      22.198 -21.580  -0.183  0.00  0.00     0.162 C 
HETATM   41  C   UNK N   1      18.380 -25.275  -0.257  0.00  0.00    -0.004 C 
HETATM   42  C   UNK N   1      22.543 -23.017  -0.503  0.00  0.00     0.055 C 
HETATM   43  O   UNK N   1      23.070 -20.836   0.249  0.00  0.00    -0.295 OA
HETATM   44  C   UNK N   1      19.464 -24.676   0.228  0.00  0.00    -0.022 C 
HETATM   45  C   UNK N   1      21.776 -23.971   0.387  0.00  0.00     0.020 C 
HETATM   46  C   UNK N   1      24.027 -23.297  -0.312  0.00  0.00     0.018 C 
HETATM   47  C   UNK N   1      20.794 -24.777  -0.433  0.00  0.00     0.005 C 
HETATM   48  C   UNK N   1      21.267 -26.217  -0.496  0.00  0.00     0.014 C 
HETATM   49  H   UNK N   1      11.929 -17.373  -2.309  0.00  0.00     0.213 HD
ENDROOT
BRANCH  28  50
HETATM   50  O   UNK N   1      14.203 -22.206   0.767  0.00  0.00    -0.386 OA
HETATM   51  C   UNK N   1      13.573 -22.522  -0.447  0.00  0.00     0.202 C 
ENDBRANCH  28  50
BRANCH  15  52
HETATM   52  C   UNK N   1      17.700 -12.639   0.075  0.00  0.00     0.012 C 
HETATM   53  C   UNK N   1      18.004 -11.659   1.196  0.00  0.00     0.012 C 
BRANCH  52  54
HETATM   54  C   UNK N   1      18.880 -12.960  -0.838  0.00  0.00     0.011 C 
BRANCH  54  55
HETATM   55  C   UNK N   1      20.014 -13.541  -0.032  0.00  0.00    -0.012 C 
HETATM   56  C   UNK N   1      20.819 -14.574  -0.826  0.00  0.00     0.039 C 
HETATM   57  C   UNK N   1      22.143 -14.747  -0.110  0.00  0.00     0.150 C 
HETATM   58  C   UNK N   1      22.948 -13.462  -0.324  0.00  0.00     0.161 C 
HETATM   59  C   UNK N   1      22.118 -12.178  -0.157  0.00  0.00     0.035 C 
HETATM   60  C   UNK N   1      20.852 -12.444   0.641  0.00  0.00     0.007 C 
BRANCH  57  61
HETATM   61  O   UNK N   1      22.830 -15.861  -0.590  0.00  0.00    -0.388 OA
HETATM   62  C   UNK N   1      22.974 -16.688   0.526  0.00  0.00     0.202 C 
ENDBRANCH  57  61
BRANCH  58  63
HETATM   63  O   UNK N   1      24.049 -13.399   0.487  0.00  0.00    -0.313 OA
BRANCH  63  64
HETATM   64  C   UNK N   1      25.268 -13.643  -0.032  0.00  0.00     0.272 C 
HETATM   65  O   UNK N   1      25.478 -14.698  -0.614  0.00  0.00    -0.264 OA
BRANCH  64  66
HETATM   66  C   UNK N   1      26.341 -12.580   0.053  0.00  0.00     0.086 C 
HETATM   67  C   UNK N   1      26.606 -12.216   1.507  0.00  0.00     0.030 C 
BRANCH  66  68
HETATM   68  C   UNK N   1      27.647 -13.041  -0.596  0.00  0.00     0.185 C 
BRANCH  68  69
HETATM   69  O   UNK N   1      28.163 -14.168   0.048  0.00  0.00    -0.400 OA
HETATM   70  H   UNK N   1      27.665 -14.870   0.495  0.00  0.00     0.209 HD
ENDBRANCH  68  69
ENDBRANCH  66  68
BRANCH  66  71
HETATM   71  C   UNK N   1      25.891 -11.332  -0.713  0.00  0.00     0.185 C 
BRANCH  71  72
HETATM   72  O   UNK N   1      24.750 -10.751  -0.152  0.00  0.00    -0.400 OA
HETATM   73  H   UNK N   1      24.704  -9.864   0.237  0.00  0.00     0.209 HD
ENDBRANCH  71  72
ENDBRANCH  66  71
ENDBRANCH  64  66
ENDBRANCH  63  64
ENDBRANCH  58  63
ENDBRANCH  54  55
ENDBRANCH  52  54
ENDBRANCH  15  52
BRANCH  35  74
HETATM   74  O   UNK N   1      21.508 -18.912  -1.284  0.00  0.00    -0.388 OA
HETATM   75  H   UNK N   1      22.110 -19.147  -2.007  0.00  0.00     0.210 HD
ENDBRANCH  35  74
BRANCH  38  76
HETATM   76  O   UNK N   1      19.783 -21.697   0.332  0.00  0.00    -0.380 OA
HETATM   77  C   UNK N   1      20.087 -21.660   1.704  0.00  0.00     0.202 C 
ENDBRANCH  38  76
TORSDOF 14
