REMARK  4 active torsions:
REMARK  status: ('A' for Active; 'I' for Inactive)
REMARK    1  A    between atoms: N_1  and  C_2 
REMARK    2  A    between atoms: C_5  and  S_8 
REMARK    3  A    between atoms: S_8  and  N_11 
REMARK    4  A    between atoms: N_11  and  C_12 
ROOT
HETATM    1  S   UNK N   1       1.693   5.852  -0.630  0.00  0.00     0.264 S 
HETATM    2  O   UNK N   1       1.601   5.012  -1.912  0.00  0.00    -0.200 OA
HETATM    3  O   UNK N   1       2.702   6.915  -1.090  0.00  0.00    -0.200 OA
ENDROOT
BRANCH   1   4
HETATM    4  C   UNK N   1       0.140   6.651  -0.226  0.00  0.00     0.080 A 
HETATM    5  C   UNK N   1       0.122   8.017   0.078  0.00  0.00     0.027 A 
HETATM    6  C   UNK N   1      -1.094   8.675   0.285  0.00  0.00     0.030 A 
HETATM    7  C   UNK N   1      -2.296   7.970   0.178  0.00  0.00     0.025 A 
HETATM    8  C   UNK N   1      -2.281   6.604  -0.123  0.00  0.00     0.030 A 
HETATM    9  C   UNK N   1      -1.064   5.945  -0.330  0.00  0.00     0.027 A 
BRANCH   7  10
HETATM   10  N   UNK N   1      -3.522   8.639   0.362  0.00  0.00    -0.399 N 
HETATM   11  H   UNK N   1      -3.546   9.614   0.491  0.00  0.00     0.156 HD
HETATM   12  H   UNK N   1      -4.363   8.126   0.362  0.00  0.00     0.156 HD
ENDBRANCH   7  10
ENDBRANCH   1   4
BRANCH   1  13
HETATM   13  N   UNK N   1       2.625   4.901   0.521  0.00  0.00    -0.260 N 
HETATM   14  H   UNK N   1       3.099   5.372   1.244  0.00  0.00     0.181 HD
BRANCH  13  15
HETATM   15  C   UNK N   1       2.726   3.489   0.454  0.00  0.00     0.158 A 
HETATM   16  N   UNK N   1       3.747   2.792   1.003  0.00  0.00    -0.345 N 
HETATM   17  C   UNK N   1       3.647   1.437   0.751  0.00  0.00     0.097 A 
ATOM     18  HN  UNK N   1       4.502   3.217   1.540  1.00  0.00     0.167 HD
HETATM   19  C   UNK N   1       2.524   1.046  -0.005  0.00  0.00     0.070 A 
HETATM   20  S   UNK N   1       1.709   2.454  -0.326  0.00  0.00    -0.064 SA
ENDBRANCH  13  15
ENDBRANCH   1  13
TORSDOF 4
