REMARK  9 active torsions:
REMARK  status: ('A' for Active; 'I' for Inactive)
REMARK    1  A    between atoms: C_9  and  C_8 
REMARK    2  A    between atoms: C_14  and  C_8 
REMARK    3  A    between atoms: C_16  and  C_9 
REMARK    4  A    between atoms: N_20  and  C_14 
REMARK    5  A    between atoms: C_19  and  C_15 
REMARK    6  A    between atoms: N_20  and  C_15 
REMARK    7  A    between atoms: C_19  and  C_17 
REMARK    8  A    between atoms: O_21  and  C_18 
REMARK    9  A    between atoms: O_22  and  C_19 
ROOT
HETATM    1  C   UNK N   1      -0.177   5.039   1.020  0.00  0.00     0.035 C 
HETATM    2  C   UNK N   1      -0.215   3.722   0.244  0.00  0.00     0.106 C 
ENDROOT
BRANCH   2   3
HETATM    3  C   UNK N   1       0.744   3.668  -0.950  0.00  0.00     0.173 C 
BRANCH   3   4
HETATM    4  C   UNK N   1       2.099   4.211  -0.630  0.00  0.00    -0.028 A 
HETATM    5  C   UNK N   1       2.890   3.646   0.382  0.00  0.00     0.012 A 
HETATM    6  C   UNK N   1       4.133   4.205   0.689  0.00  0.00     0.037 A 
HETATM    7  C   UNK N   1       4.590   5.327  -0.013  0.00  0.00     0.065 A 
HETATM    8  C   UNK N   1       3.804   5.884  -1.027  0.00  0.00     0.037 A 
HETATM    9  C   UNK N   1       2.561   5.328  -1.332  0.00  0.00     0.012 A 
BRANCH   7  10
HETATM   10  O   UNK N   1       5.778   5.869   0.287  0.00  0.00    -0.361 OA
HETATM   11  H   UNK N   1       6.522   5.339   0.497  0.00  0.00     0.217 HD
ENDBRANCH   7  10
ENDBRANCH   3   4
BRANCH   3  12
HETATM   12  O   UNK N   1       0.850   2.353  -1.410  0.00  0.00    -0.389 OA
HETATM   13  H   UNK N   1       0.097   1.833  -1.730  0.00  0.00     0.210 HD
ENDBRANCH   3  12
ENDBRANCH   2   3
BRANCH   2  14
HETATM   14  N   UNK N   1      -1.573   3.326  -0.159  0.00  0.00    -0.411 N 
HETATM   15  H   UNK N   1      -1.909   2.369  -0.048  0.00  0.00     0.154 HD
BRANCH  14  16
HETATM   16  C   UNK N   1      -2.425   4.387  -0.734  0.00  0.00     0.073 C 
HETATM   17  C   UNK N   1      -1.745   5.223  -1.809  0.00  0.00     0.031 C 
BRANCH  16  18
HETATM   18  C   UNK N   1      -3.087   5.261   0.336  0.00  0.00     0.029 C 
BRANCH  18  19
HETATM   19  C   UNK N   1      -3.762   4.417   1.416  0.00  0.00     0.040 C 
BRANCH  19  20
HETATM   20  C   UNK N   1      -4.796   3.513   0.833  0.00  0.00    -0.058 A 
HETATM   21  C   UNK N   1      -4.561   2.134   0.793  0.00  0.00     0.007 A 
HETATM   22  C   UNK N   1      -5.507   1.280   0.222  0.00  0.00     0.001 A 
HETATM   23  C   UNK N   1      -6.692   1.802  -0.306  0.00  0.00     0.000 A 
HETATM   24  C   UNK N   1      -6.931   3.179  -0.261  0.00  0.00     0.001 A 
HETATM   25  C   UNK N   1      -5.982   4.036   0.305  0.00  0.00     0.007 A 
ENDBRANCH  19  20
ENDBRANCH  18  19
ENDBRANCH  16  18
ENDBRANCH  14  16
ENDBRANCH   2  14
TORSDOF 9
