REMARK  2 active torsions:
REMARK  status: ('A' for Active; 'I' for Inactive)
REMARK    1  A    between atoms: O_1  and  C_3 
REMARK    2  A    between atoms: C_2  and  C_3 
ROOT
HETATM    1  C   UNK N   1      20.913 -15.604   0.000  0.00  0.00    -0.035 A 
HETATM    2  C   UNK N   1      19.725 -16.338   0.000  0.00  0.00     0.009 A 
HETATM    3  C   UNK N   1      22.145 -16.280  -0.000  0.00  0.00     0.009 A 
HETATM    4  C   UNK N   1      19.757 -17.737   0.000  0.00  0.00     0.001 A 
HETATM    5  C   UNK N   1      22.177 -17.680  -0.001  0.00  0.00     0.001 A 
HETATM    6  C   UNK N   1      20.983 -18.407  -0.000  0.00  0.00     0.000 A 
ENDROOT
BRANCH   1   7
HETATM    7  C   UNK N   1      20.834 -14.106   0.000  0.00  0.00     0.202 C 
BRANCH   7   8
HETATM    8  O   UNK N   1      22.097 -13.510   0.000  0.00  0.00    -0.396 OA
HETATM    9  H   UNK N   1      22.894 -14.063   0.000  0.00  0.00     0.209 HD
ENDBRANCH   7   8
ENDBRANCH   1   7
TORSDOF 2
