REMARK  7 active torsions:
REMARK  status: ('A' for Active; 'I' for Inactive)
REMARK    1  A    between atoms: C_14  and  C_6 
REMARK    2  A    between atoms: C_11  and  O_28 
REMARK    3  A    between atoms: C_19  and  C_14 
REMARK    4  A    between atoms: C_19  and  C_18 
REMARK    5  A    between atoms: C_22  and  C_18 
REMARK    6  A    between atoms: O_26  and  C_22 
REMARK    7  A    between atoms: C_24  and  O_27 
ROOT
HETATM    1  C   UNK N   1      12.718  -7.214  -0.739  0.00  0.00    -0.036 C 
HETATM    2  C   UNK N   1      12.795  -8.757  -0.477  0.00  0.00     0.001 C 
HETATM    3  C   UNK N   1      10.262  -8.883  -0.752  0.00  0.00     0.001 C 
HETATM    4  C   UNK N   1      11.470  -9.336   0.119  0.00  0.00     0.024 C 
HETATM    5  C   UNK N   1       8.918  -9.397  -0.166  0.00  0.00    -0.036 C 
HETATM    6  C   UNK N   1      13.930  -6.616   0.014  0.00  0.00    -0.002 C 
HETATM    7  C   UNK N   1      11.385  -6.644  -0.224  0.00  0.00     0.010 C 
HETATM    8  C   UNK N   1      10.209  -7.346  -0.903  0.00  0.00     0.007 C 
HETATM    9  C   UNK N   1      13.941  -8.929   0.521  0.00  0.00     0.006 C 
HETATM   10  C   UNK N   1      14.101  -7.573   1.176  0.00  0.00     0.006 C 
HETATM   11  C   UNK N   1      11.477 -10.878   0.237  0.00  0.00     0.123 C 
HETATM   12  C   UNK N   1       8.964 -10.941  -0.018  0.00  0.00    -0.001 C 
HETATM   13  C   UNK N   1      10.158 -11.384   0.828  0.00  0.00     0.037 C 
HETATM   14  C   UNK N   1      12.826  -6.889  -2.231  0.00  0.00     0.016 C 
HETATM   15  C   UNK N   1       8.660  -8.733   1.196  0.00  0.00     0.016 C 
HETATM   16  C   UNK N   1       7.760  -9.026  -1.124  0.00  0.00     0.012 C 
HETATM   17  C   UNK N   1       7.666 -11.500   0.599  0.00  0.00     0.037 C 
HETATM   18  C   UNK N   1       6.496  -9.891  -0.978  0.00  0.00     0.032 C 
HETATM   19  C   UNK N   1       6.441 -10.602   0.369  0.00  0.00     0.118 C 
ENDROOT
BRANCH   6  20
HETATM   20  C   UNK N   1      13.790  -5.145   0.498  0.00  0.00    -0.013 C 
HETATM   21  C   UNK N   1      13.229  -4.227  -0.575  0.00  0.00     0.010 C 
BRANCH  20  22
HETATM   22  C   UNK N   1      15.082  -4.474   0.988  0.00  0.00     0.015 C 
BRANCH  22  23
HETATM   23  C   UNK N   1      16.086  -5.350   1.721  0.00  0.00     0.110 C 
BRANCH  23  24
HETATM   24  C   UNK N   1      17.116  -5.841   0.753  0.00  0.00     0.139 C 
HETATM   25  O   UNK N   1      17.309  -7.038   0.623  0.00  0.00    -0.650 OA
BRANCH  24  26
HETATM   26  O   UNK N   1      17.826  -4.964   0.017  0.00  0.00    -0.776 OA
HETATM   27  H   UNK N   1      18.602  -5.086  -0.495  0.00  0.00     0.167 HD
ENDBRANCH  24  26
ENDBRANCH  23  24
ENDBRANCH  22  23
ENDBRANCH  20  22
ENDBRANCH   6  20
BRANCH  11  28
HETATM   28  O   UNK N   1      12.521 -11.319   1.050  0.00  0.00    -0.395 OA
HETATM   29  H   UNK N   1      12.619 -12.102   1.615  0.00  0.00     0.210 HD
ENDBRANCH  11  28
BRANCH  19  30
HETATM   30  O   UNK N   1       5.269 -11.347   0.480  0.00  0.00    -0.396 OA
HETATM   31  H   UNK N   1       4.412 -10.900   0.557  0.00  0.00     0.210 HD
ENDBRANCH  19  30
TORSDOF 7
