REMARK  18 active torsions:
REMARK  status: ('A' for Active; 'I' for Inactive)
REMARK    1  A    between atoms: C_2  and  C_3 
REMARK    2  A    between atoms: C_3  and  C_4 
REMARK    3  A    between atoms: C_4  and  C_5 
REMARK    4  A    between atoms: C_5  and  C_6 
REMARK    5  A    between atoms: C_6  and  O_7 
REMARK    6  A    between atoms: O_7  and  C_8 
REMARK       I    between atoms: N_10  and  C_8 
REMARK    7  A    between atoms: C_12  and  C_13 
REMARK    8  A    between atoms: C_12  and  N_49 
REMARK    9  A    between atoms: C_16  and  N_19 
REMARK   10  A    between atoms: N_19  and  C_20 
REMARK   11  A    between atoms: C_20  and  C_21 
REMARK   12  A    between atoms: C_30  and  C_32 
REMARK       I    between atoms: C_32  and  N_34 
REMARK   13  A    between atoms: N_34  and  C_35 
REMARK   14  A    between atoms: N_34  and  C_42 
REMARK   15  A    between atoms: C_35  and  C_36 
REMARK   16  A    between atoms: C_36  and  C_37 
REMARK   17  A    between atoms: C_37  and  O_39 
REMARK   18  A    between atoms: O_39  and  C_40 
ROOT
HETATM    1  C   UNK N   1      -1.885   1.307  -0.499  0.00  0.00     0.102 A 
HETATM    2  N   UNK N   1      -1.027   0.365  -0.031  0.00  0.00    -0.343 N 
ATOM      3  HN  UNK N   1      -1.248  -0.538   0.389  1.00  0.00     0.167 HD
HETATM    4  C   UNK N   1       0.180   0.904  -0.252  0.00  0.00     0.061 A 
HETATM    5  C   UNK N   1       0.045   2.127  -0.840  0.00  0.00     0.062 A 
HETATM    6  N   UNK N   1      -1.234   2.397  -0.999  0.00  0.00    -0.338 N 
HETATM    7  C   UNK N   1      -1.726   3.643  -1.587  0.00  0.00     0.158 C 
HETATM    8  C   UNK N   1       1.106   2.922  -1.192  0.00  0.00     0.033 A 
HETATM    9  C   UNK N   1       2.362   2.433  -0.896  0.00  0.00     0.019 A 
HETATM   10  C   UNK N   1       2.541   1.193  -0.228  0.00  0.00     0.034 A 
HETATM   11  C   UNK N   1       1.426   0.382   0.063  0.00  0.00     0.049 A 
ENDROOT
BRANCH   1  12
HETATM   12  C   UNK N   1      -3.351   1.142  -0.442  0.00  0.00     0.196 C 
BRANCH  12  13
HETATM   13  N   UNK N   1      -3.917   2.291  -1.062  0.00  0.00    -0.383 N 
HETATM   14  H   UNK N   1      -3.753   2.431  -2.022  0.00  0.00     0.160 HD
BRANCH  13  15
HETATM   15  C   UNK N   1      -4.693   3.231  -0.378  0.00  0.00     0.028 C 
HETATM   16  C   UNK N   1      -5.120   4.343  -1.088  0.00  0.00     0.030 C 
HETATM   17  C   UNK N   1      -6.223   5.044  -0.651  0.00  0.00     0.017 C 
HETATM   18  C   UNK N   1      -6.900   4.621   0.491  0.00  0.00     0.008 C 
HETATM   19  C   UNK N   1      -6.321   3.661   1.332  0.00  0.00     0.017 C 
HETATM   20  C   UNK N   1      -5.210   2.951   0.890  0.00  0.00     0.030 C 
BRANCH  18  21
HETATM   21  C   UNK N   1      -8.367   4.729   0.373  0.00  0.00     0.113 C 
HETATM   22  N   UNK N   1      -9.091   3.709  -0.030  0.00  0.00    -0.288 N 
HETATM   23  C   UNK N   1      -8.776   2.369  -0.134  0.00  0.00     0.366 C 
ATOM     24  HN  UNK N   1     -10.042   3.946  -0.312  1.00  0.00     0.172 HD
HETATM   25  O   UNK N   1      -7.795   1.892   0.402  0.00  0.00    -0.238 OA
BRANCH  23  26
HETATM   26  O   UNK N   1      -9.586   1.547  -0.847  0.00  0.00    -0.304 OA
BRANCH  26  27
HETATM   27  C   UNK N   1      -9.259   0.228  -1.141  0.00  0.00     0.180 C 
BRANCH  27  28
HETATM   28  C   UNK N   1      -9.014  -0.619   0.114  0.00  0.00     0.027 C 
BRANCH  28  29
HETATM   29  C   UNK N   1     -10.079  -0.383   1.176  0.00  0.00     0.002 C 
BRANCH  29  30
HETATM   30  C   UNK N   1     -11.272  -1.297   0.978  0.00  0.00    -0.000 C 
BRANCH  30  31
HETATM   31  C   UNK N   1     -12.132  -0.828  -0.178  0.00  0.00    -0.005 C 
HETATM   32  C   UNK N   1     -13.324  -1.749  -0.314  0.00  0.00     0.005 C 
ENDBRANCH  30  31
ENDBRANCH  29  30
ENDBRANCH  28  29
ENDBRANCH  27  28
ENDBRANCH  26  27
ENDBRANCH  23  26
BRANCH  21  33
HETATM   33  N   UNK N   1      -8.899   6.020   0.160  0.00  0.00    -0.385 N 
HETATM   34  H   UNK N   1      -8.305   6.791   0.012  0.00  0.00     0.157 HD
HETATM   35  H   UNK N   1      -9.875   6.150   0.160  0.00  0.00     0.157 HD
ENDBRANCH  21  33
ENDBRANCH  18  21
ENDBRANCH  13  15
ENDBRANCH  12  13
ENDBRANCH   1  12
BRANCH  10  36
HETATM   36  C   UNK N   1       3.910   0.750   0.078  0.00  0.00     0.259 C 
HETATM   37  O   UNK N   1       4.142  -0.453   0.075  0.00  0.00    -0.267 OA
HETATM   38  N   UNK N   1       4.936   1.655   0.257  0.00  0.00    -0.299 N 
BRANCH  38  39
HETATM   39  C   UNK N   1       6.302   1.210   0.148  0.00  0.00     0.144 C 
BRANCH  39  40
HETATM   40  C   UNK N   1       6.651   0.182   1.210  0.00  0.00     0.131 C 
BRANCH  40  41
HETATM   41  C   UNK N   1       7.759  -0.667   0.672  0.00  0.00     0.260 C 
HETATM   42  O   UNK N   1       7.548  -1.850   0.459  0.00  0.00    -0.265 OA
BRANCH  41  43
HETATM   43  O   UNK N   1       8.973  -0.140   0.373  0.00  0.00    -0.322 OA
BRANCH  43  44
HETATM   44  C   UNK N   1       9.312   1.161   0.675  0.00  0.00     0.174 C 
HETATM   45  C   UNK N   1       9.362   1.990  -0.594  0.00  0.00     0.034 C 
ENDBRANCH  43  44
ENDBRANCH  41  43
ENDBRANCH  40  41
ENDBRANCH  39  40
ENDBRANCH  38  39
BRANCH  38  46
HETATM   46  C   UNK N   1       4.703   3.055   0.490  0.00  0.00     0.110 A 
HETATM   47  C   UNK N   1       3.651   3.480   1.329  0.00  0.00     0.049 A 
HETATM   48  C   UNK N   1       3.393   4.840   1.484  0.00  0.00     0.005 A 
HETATM   49  C   UNK N   1       4.181   5.770   0.811  0.00  0.00     0.017 A 
HETATM   50  C   UNK N   1       5.242   5.322   0.018  0.00  0.00     0.089 A 
HETATM   51  N   UNK N   1       5.488   3.989  -0.116  0.00  0.00    -0.352 N 
ATOM     52  HN  UNK N   1       6.279   3.683  -0.683  1.00  0.00     0.166 HD
ENDBRANCH  38  46
ENDBRANCH  10  36
TORSDOF 18
