REMARK  8 active torsions:
REMARK  status: ('A' for Active; 'I' for Inactive)
REMARK    1  A    between atoms: C_2  and  O_7 
REMARK    2  A    between atoms: C_3  and  O_9 
REMARK    3  A    between atoms: C_5  and  C_11 
REMARK    4  A    between atoms: C_11  and  C_12 
REMARK    5  A    between atoms: C_12  and  O_13 
REMARK    6  A    between atoms: C_14  and  O_13 
REMARK    7  A    between atoms: C_19  and  N_20 
REMARK    8  A    between atoms: C_23  and  O_25 
ROOT
HETATM    1  C   UNK N   1       1.970   0.684   0.152  0.00  0.00     0.154 C 
HETATM    2  C   UNK N   1       4.299   1.625   0.290  0.00  0.00     0.038 C 
HETATM    3  C   UNK N   1       3.790   2.945  -0.278  0.00  0.00     0.002 C 
HETATM    4  C   UNK N   1       2.351   3.163   0.159  0.00  0.00     0.003 C 
HETATM    5  C   UNK N   1       1.491   2.035  -0.384  0.00  0.00     0.034 C 
HETATM    6  C   UNK N   1       3.461   0.431  -0.205  0.00  0.00     0.251 C 
ENDROOT
BRANCH   1   7
HETATM    7  O   UNK N   1       1.161  -0.312  -0.396  0.00  0.00    -0.383 OA
BRANCH   7   8
HETATM    8  C   UNK N   1       0.218  -0.628   0.585  0.00  0.00     0.172 C 
BRANCH   8   9
HETATM    9  C   UNK N   1      -1.032  -1.139  -0.110  0.00  0.00     0.065 C 
BRANCH   9  10
HETATM   10  C   UNK N   1      -2.191  -0.194  -0.045  0.00  0.00    -0.053 A 
HETATM   11  C   UNK N   1      -3.478  -0.725  -0.010  0.00  0.00     0.046 A 
HETATM   12  C   UNK N   1      -4.609   0.110   0.007  0.00  0.00     0.102 A 
HETATM   13  C   UNK N   1      -4.430   1.521  -0.011  0.00  0.00     0.101 A 
HETATM   14  C   UNK N   1      -3.128   2.040  -0.052  0.00  0.00     0.040 A 
HETATM   15  C   UNK N   1      -2.017   1.194  -0.077  0.00  0.00     0.010 A 
BRANCH  12  16
HETATM   16  O   UNK N   1      -5.854  -0.428   0.034  0.00  0.00    -0.353 OA
HETATM   17  C   UNK N   1      -6.094  -1.785   0.026  0.00  0.00     0.210 C 
ENDBRANCH  12  16
BRANCH  13  18
HETATM   18  O   UNK N   1      -5.459   2.408   0.003  0.00  0.00    -0.353 OA
HETATM   19  C   UNK N   1      -6.796   2.083   0.028  0.00  0.00     0.210 C 
ENDBRANCH  13  18
ENDBRANCH   9  10
ENDBRANCH   8   9
ENDBRANCH   7   8
ENDBRANCH   1   7
BRANCH   6  20
HETATM   20  N   UNK N   1       3.965  -0.809   0.418  0.00  0.00     0.098 N 
HETATM   21  C   UNK N   1       3.299  -1.998  -0.112  0.00  0.00     0.275 C 
HETATM   22  C   UNK N   1       4.303  -3.140  -0.092  0.00  0.00     0.064 C 
HETATM   23  C   UNK N   1       5.588  -2.500   0.363  0.00  0.00     0.148 C 
HETATM   24  C   UNK N   1       5.364  -1.039   0.077  0.00  0.00     0.304 C 
BRANCH  23  25
HETATM   25  O   UNK N   1       6.668  -2.992  -0.369  0.00  0.00    -0.394 OA
HETATM   26  H   UNK N   1       6.747  -3.814  -0.878  0.00  0.00     0.210 HD
ENDBRANCH  23  25
ENDBRANCH   6  20
TORSDOF 8
