REMARK WARNING: 32 MAX_TORS EXCEEDED!!!
REMARK  55 active torsions:
REMARK  status: ('A' for Active; 'I' for Inactive)
REMARK    1  A    between atoms: N_72  and  C_4 
REMARK    2  A    between atoms: C_16  and  C_10 
REMARK    3  A    between atoms: C_24  and  C_10 
REMARK    4  A    between atoms: C_48  and  C_16 
REMARK    5  A    between atoms: N_74  and  C_24 
REMARK    6  A    between atoms: C_38  and  C_26 
REMARK    7  A    between atoms: C_49  and  C_26 
REMARK    8  A    between atoms: C_39  and  C_27 
REMARK    9  A    between atoms: C_50  and  C_27 
REMARK   10  A    between atoms: C_41  and  C_28 
REMARK   11  A    between atoms: C_51  and  C_28 
REMARK   12  A    between atoms: C_42  and  C_29 
REMARK   13  A    between atoms: C_52  and  C_29 
REMARK   14  A    between atoms: C_43  and  C_30 
REMARK   15  A    between atoms: C_53  and  C_30 
REMARK   16  A    between atoms: C_40  and  C_33 
REMARK   17  A    between atoms: N_95  and  C_33 
REMARK   18  A    between atoms: C_54  and  C_35 
REMARK   19  A    between atoms: O_97  and  C_35 
REMARK   20  A    between atoms: O_98  and  C_44 
REMARK   21  A    between atoms: C_47  and  C_57 
REMARK   22  A    between atoms: C_65  and  C_48 
REMARK   23  A    between atoms: C_48  and  N_81 
REMARK   24  A    between atoms: C_58  and  C_49 
REMARK   25  A    between atoms: C_49  and  N_83 
REMARK   26  A    between atoms: C_59  and  C_50 
REMARK   27  A    between atoms: C_50  and  N_85 
REMARK   28  A    between atoms: C_60  and  C_51 
REMARK   29  A    between atoms: C_51  and  N_87 
REMARK   30  A    between atoms: C_61  and  C_52 
REMARK   31  A    between atoms: C_52  and  N_89 
REMARK   32  A    between atoms: C_62  and  C_53 
REMARK   33  A    between atoms: C_53  and  N_91 
REMARK   34  A    between atoms: C_63  and  C_54 
REMARK   35  A    between atoms: C_54  and  N_93 
REMARK   36  A    between atoms: C_55  and  C_64 
REMARK   37  A    between atoms: O_99  and  C_56 
REMARK   38  A    between atoms: N_89  and  C_57 
REMARK   39  A    between atoms: C_57  and  O_100 
REMARK   40  A    between atoms: N_81  and  C_58 
REMARK   41  A    between atoms: C_58  and  O_101 
REMARK   42  A    between atoms: N_91  and  C_59 
REMARK   43  A    between atoms: C_59  and  O_102 
REMARK   44  A    between atoms: N_93  and  C_60 
REMARK   45  A    between atoms: C_60  and  O_103 
REMARK   46  A    between atoms: N_87  and  C_61 
REMARK   47  A    between atoms: C_61  and  O_104 
REMARK   48  A    between atoms: N_83  and  C_62 
REMARK   49  A    between atoms: C_62  and  O_105 
REMARK   50  A    between atoms: N_85  and  C_63 
REMARK   51  A    between atoms: C_63  and  O_106 
REMARK   52  A    between atoms: N_72  and  C_64 
REMARK   53  A    between atoms: O_107  and  C_64 
REMARK       I    between atoms: N_96  and  C_65 
REMARK       I    between atoms: N_67  and  C_66 
REMARK       I    between atoms: N_69  and  C_66 
REMARK       I    between atoms: N_74  and  C_66 
REMARK   54  A    between atoms: O_112  and  C_110 
REMARK   55  A    between atoms: O_116  and  C_114 
ROOT
HETATM    1  C   UNK N   1       9.542   1.363  -0.636  0.00  0.00     0.125 C 
HETATM    2  C   UNK N   1       9.165   0.801   0.690  0.00  0.00     0.135 C 
HETATM    3  O   UNK N   1       9.498  -0.333   0.989  0.00  0.00    -0.650 OA
ENDROOT
BRANCH   2   4
HETATM    4  O   UNK N   1       8.447   1.541   1.554  0.00  0.00    -0.777 OA
HETATM    5  H   UNK N   1       8.643   2.232   2.156  0.00  0.00     0.167 HD
ENDBRANCH   2   4
TORSDOF 55
