REMARK  0 active torsions:
REMARK  status: ('A' for Active; 'I' for Inactive)
ROOT
HETATM    1  O   UNK N   1       1.329  -0.726   0.000  0.00  0.00    -0.200 OA
ATOM      2  HO  UNK N   1       0.551  -1.271   0.000  1.00  0.00     0.263 HD
HETATM    3  N   UNK N   1       2.400   0.028   0.000  0.00  0.00    -0.197 N 
HETATM    4  N   UNK N   1       3.317   0.671   0.000  0.00  0.00    -0.254 N 
ATOM      5  HN1 UNK N   1       4.151   1.258   0.000  1.00  0.00     0.194 HD
ATOM      6  HN2 UNK N   1       2.557  -0.009   0.000  1.00  0.00     0.194 HD
ENDROOT
TORSDOF 0
