REMARK  7 active torsions:
REMARK  status: ('A' for Active; 'I' for Inactive)
REMARK    1  A    between atoms: C_4  and  C_1 
REMARK       I    between atoms: N_5  and  C_1 
REMARK    2  A    between atoms: N_2  and  C_4 
REMARK    3  A    between atoms: C_7  and  N_2 
REMARK    4  A    between atoms: O_6  and  C_8 
REMARK    5  A    between atoms: C_12  and  O_6 
REMARK    6  A    between atoms: C_9  and  C_7 
REMARK    7  A    between atoms: C_13  and  C_12 
ROOT
HETATM    1  C   UNK N   1      -0.260  -0.704  -0.347  0.00  0.00     0.069 A 
HETATM    2  C   UNK N   1       1.477   1.262   0.627  0.00  0.00    -0.041 A 
HETATM    3  C   UNK N   1      -0.642   0.651  -0.355  0.00  0.00     0.037 A 
HETATM    4  C   UNK N   1       0.979  -1.066   0.185  0.00  0.00     0.037 A 
HETATM    5  C   UNK N   1       0.225   1.630   0.131  0.00  0.00     0.011 A 
HETATM    6  C   UNK N   1       1.848  -0.085   0.662  0.00  0.00     0.011 A 
ENDROOT
BRANCH   2   7
HETATM    7  C   UNK N   1       2.455   2.310   1.012  0.00  0.00     0.153 C 
BRANCH   7   8
HETATM    8  N   UNK N   1       3.400   2.478  -0.084  0.00  0.00    -0.406 N 
HETATM    9  H   UNK N   1       3.168   2.770  -1.033  0.00  0.00     0.154 HD
BRANCH   8  10
HETATM   10  C   UNK N   1       4.731   2.160   0.406  0.00  0.00     0.165 C 
HETATM   11  C   UNK N   1       5.644   3.345   0.130  0.00  0.00     0.042 C 
BRANCH  10  12
HETATM   12  C   UNK N   1       5.239   0.889  -0.234  0.00  0.00     0.237 C 
HETATM   13  O   UNK N   1       4.634  -0.161  -0.054  0.00  0.00    -0.271 OA
HETATM   14  N   UNK N   1       6.357   0.882  -0.982  0.00  0.00    -0.368 N 
HETATM   15  H   UNK N   1       6.761   0.170  -1.530  0.00  0.00     0.159 HD
HETATM   16  H   UNK N   1       6.855   1.731  -0.982  0.00  0.00     0.159 HD
ENDBRANCH  10  12
ENDBRANCH   8  10
ENDBRANCH   7   8
ENDBRANCH   2   7
BRANCH   1  17
HETATM   17  O   UNK N   1      -1.063  -1.665  -0.859  0.00  0.00    -0.347 OA
BRANCH  17  18
HETATM   18  C   UNK N   1      -2.194  -1.368  -1.586  0.00  0.00     0.214 C 
BRANCH  18  19
HETATM   19  C   UNK N   1      -3.398  -1.494  -0.728  0.00  0.00    -0.031 A 
HETATM   20  C   UNK N   1      -4.142  -0.353  -0.416  0.00  0.00     0.051 A 
HETATM   21  C   UNK N   1      -5.275  -0.457   0.394  0.00  0.00     0.117 A 
HETATM   22  F   UNK N   1      -5.992   0.650   0.699  0.00  0.00    -0.206 F 
HETATM   23  C   UNK N   1      -5.667  -1.705   0.888  0.00  0.00     0.042 A 
HETATM   24  C   UNK N   1      -4.923  -2.848   0.575  0.00  0.00     0.004 A 
HETATM   25  C   UNK N   1      -3.787  -2.742  -0.231  0.00  0.00     0.009 A 
ENDBRANCH  18  19
ENDBRANCH  17  18
ENDBRANCH   1  17
TORSDOF 7
