REMARK  4 active torsions:
REMARK  status: ('A' for Active; 'I' for Inactive)
REMARK    1  A    between atoms: N_5  and  N_6 
REMARK       I    between atoms: N_6  and  C_15 
REMARK    2  A    between atoms: N_7  and  C_21 
REMARK    3  A    between atoms: C_15  and  C_16 
REMARK    4  A    between atoms: C_18  and  C_19 
ROOT
HETATM    1  N   UNK N   1       5.332  -0.591   0.033  0.00  0.00    -0.253 N 
HETATM    2  N   UNK N   1       4.344   0.290   0.001  0.00  0.00    -0.287 N 
ATOM      3  HN  UNK N   1       3.352   0.052   0.014  1.00  0.00     0.188 HD
HETATM    4  C   UNK N   1       4.827   1.533  -0.050  0.00  0.00     0.126 A 
HETATM    5  C   UNK N   1       6.198   1.481  -0.041  0.00  0.00     0.001 A 
HETATM    6  C   UNK N   1       6.527   0.116   0.012  0.00  0.00     0.075 A 
HETATM    7  C   UNK N   1       7.101   2.672  -0.099  0.00  0.00     0.053 C 
ENDROOT
BRANCH   4   8
HETATM    8  C   UNK N   1       3.939   2.705  -0.156  0.00  0.00     0.284 C 
HETATM    9  O   UNK N   1       4.399   3.825  -0.326  0.00  0.00    -0.265 OA
HETATM   10  N   UNK N   1       2.596   2.504  -0.115  0.00  0.00    -0.284 N 
HETATM   11  H   UNK N   1       2.266   1.599   0.091  0.00  0.00     0.184 HD
BRANCH  10  12
HETATM   12  N   UNK N   1       1.661   3.508  -0.348  0.00  0.00    -0.229 NA
HETATM   13  C   UNK N   1       0.348   2.873  -0.236  0.00  0.00     0.113 C 
HETATM   14  C   UNK N   1      -0.753   3.880  -0.555  0.00  0.00     0.016 C 
HETATM   15  C   UNK N   1      -0.657   5.068   0.397  0.00  0.00     0.002 C 
HETATM   16  C   UNK N   1       0.755   5.649   0.390  0.00  0.00     0.016 C 
HETATM   17  C   UNK N   1       1.762   4.539   0.687  0.00  0.00     0.113 C 
ENDBRANCH  10  12
ENDBRANCH   4   8
BRANCH   1  18
HETATM   18  C   UNK N   1       4.992  -2.020   0.050  0.00  0.00     0.078 A 
HETATM   19  C   UNK N   1       3.626  -2.476   0.046  0.00  0.00     0.064 A 
HETATM   20 Cl   UNK N   1       2.208  -1.427   0.042  0.00  0.00    -0.082 Cl
HETATM   21  C   UNK N   1       3.345  -3.846   0.038  0.00  0.00     0.050 A 
HETATM   22  C   UNK N   1       4.367  -4.786   0.034  0.00  0.00     0.035 A 
HETATM   23 Cl   UNK N   1       3.985  -6.493   0.014  0.00  0.00    -0.084 Cl
HETATM   24  C   UNK N   1       5.689  -4.365   0.043  0.00  0.00     0.026 A 
HETATM   25  C   UNK N   1       5.985  -3.002   0.050  0.00  0.00     0.035 A 
ENDBRANCH   1  18
BRANCH   6  26
HETATM   26  C   UNK N   1       7.966  -0.373   0.019  0.00  0.00    -0.007 A 
HETATM   27  C   UNK N   1       9.018   0.565  -0.007  0.00  0.00     0.015 A 
HETATM   28  C   UNK N   1      10.358   0.165  -0.011  0.00  0.00     0.024 A 
HETATM   29  C   UNK N   1      10.676  -1.191   0.009  0.00  0.00     0.034 A 
HETATM   30 Cl   UNK N   1      12.350  -1.704  -0.001  0.00  0.00    -0.084 Cl
HETATM   31  C   UNK N   1       9.656  -2.138   0.037  0.00  0.00     0.024 A 
HETATM   32  C   UNK N   1       8.322  -1.724   0.042  0.00  0.00     0.015 A 
ENDBRANCH   6  26
TORSDOF 4
