REMARK  4 active torsions:
REMARK  status: ('A' for Active; 'I' for Inactive)
REMARK    1  A    between atoms: C_5  and  C_9 
REMARK    2  A    between atoms: N_8  and  C_9 
REMARK    3  A    between atoms: C_13  and  N_19 
REMARK    4  A    between atoms: C_23  and  N_25 
ROOT
HETATM    1  C   UNK N   1       5.196  -7.237  -0.193  0.00  0.00     0.023 C 
HETATM    2  C   UNK N   1       5.138  -8.577   0.187  0.00  0.00     0.002 C 
HETATM    3  C   UNK N   1       6.239  -9.175   0.791  0.00  0.00     0.001 C 
HETATM    4  C   UNK N   1       7.439  -8.496   0.835  0.00  0.00     0.010 C 
HETATM    5  C   UNK N   1       7.558  -7.232   0.283  0.00  0.00    -0.019 C 
HETATM    6  C   UNK N   1       6.393  -6.535  -0.113  0.00  0.00     0.052 C 
HETATM    7  C   UNK N   1       6.354  -5.120  -0.414  0.00  0.00     0.100 C 
HETATM    8  N   UNK N   1       6.249  -3.995  -0.669  0.00  0.00    -0.191 NA
ENDROOT
BRANCH   5   9
HETATM    9  C   UNK N   1       8.892  -6.692  -0.067  0.00  0.00     0.175 C 
BRANCH   9  10
HETATM   10  N   UNK N   1      10.153  -7.474   0.040  0.00  0.00    -0.281 N 
HETATM   11  C   UNK N   1      10.281  -8.868  -0.137  0.00  0.00     0.333 A 
HETATM   12  N   UNK N   1      11.522  -9.464  -0.130  0.00  0.00    -0.271 N 
HETATM   13  O   UNK N   1       9.313  -9.576  -0.341  0.00  0.00    -0.246 OA
HETATM   14  C   UNK N   1      12.651  -8.699  -0.047  0.00  0.00     0.254 A 
HETATM   15  C   UNK N   1      11.637 -10.918  -0.261  0.00  0.00     0.164 C 
HETATM   16  C   UNK N   1      12.548  -7.330   0.097  0.00  0.00     0.123 A 
HETATM   17  O   UNK N   1      13.754  -9.213  -0.115  0.00  0.00    -0.268 OA
HETATM   18  C   UNK N   1      11.296  -6.714   0.172  0.00  0.00     0.115 A 
BRANCH  18  19
HETATM   19  N   UNK N   1      11.249  -5.280   0.339  0.00  0.00    -0.365 N 
HETATM   20  C   UNK N   1      12.372  -4.477  -0.110  0.00  0.00     0.124 C 
HETATM   21  C   UNK N   1      12.133  -2.965   0.038  0.00  0.00     0.022 C 
HETATM   22  C   UNK N   1      10.687  -2.487  -0.209  0.00  0.00     0.028 C 
HETATM   23  C   UNK N   1       9.609  -3.539   0.036  0.00  0.00     0.092 C 
HETATM   24  C   UNK N   1      10.131  -4.604   0.975  0.00  0.00     0.149 C 
BRANCH  23  25
HETATM   25  N   UNK N   1       8.446  -2.901   0.623  0.00  0.00    -0.424 N 
HETATM   26  H   UNK N   1       8.426  -1.969   1.035  0.00  0.00     0.150 HD
HETATM   27  H   UNK N   1       7.575  -3.431   0.623  0.00  0.00     0.150 HD
ENDBRANCH  23  25
ENDBRANCH  18  19
ENDBRANCH   9  10
ENDBRANCH   5   9
TORSDOF 4
