REMARK  4 active torsions:
REMARK  status: ('A' for Active; 'I' for Inactive)
REMARK    1  A    between atoms: C_7  and  O_1 
REMARK    2  A    between atoms: O_4  and  C_25 
REMARK    3  A    between atoms: N_5  and  C_13 
REMARK    4  A    between atoms: C_13  and  C_16 
ROOT
HETATM    1  O   UNK N   1      -3.926   0.014   1.037  0.00  0.00    -0.334 OA
HETATM    2  O   UNK N   1      -5.048  -2.570   0.429  0.00  0.00    -0.295 OA
HETATM    3  N   UNK N   1       1.166  -0.837   0.342  0.00  0.00    -0.063 N 
HETATM    4  C   UNK N   1      -1.787  -0.840   0.582  0.00  0.00     0.058 C 
HETATM    5  C   UNK N   1      -1.089  -1.765  -0.415  0.00  0.00     0.102 C 
HETATM    6  C   UNK N   1       0.247  -1.022  -0.818  0.00  0.00     0.229 C 
HETATM    7  C   UNK N   1      -0.874  -0.626   1.806  0.00  0.00     0.048 C 
HETATM    8  C   UNK N   1       0.509  -0.067   1.418  0.00  0.00     0.239 C 
HETATM    9  C   UNK N   1      -3.230  -1.203   1.058  0.00  0.00     0.214 C 
HETATM   10  C   UNK N   1      -2.059   0.457  -0.057  0.00  0.00    -0.001 A 
HETATM   11  C   UNK N   1      -0.033   0.375  -1.501  0.00  0.00     0.076 C 
HETATM   12  C   UNK N   1      -2.016  -2.003  -1.604  0.00  0.00     0.048 C 
HETATM   13  C   UNK N   1      -1.241   1.104  -0.963  0.00  0.00    -0.046 A 
HETATM   14  C   UNK N   1       1.630  -2.120   0.866  0.00  0.00     0.273 C 
HETATM   15  C   UNK N   1      -3.322  -2.684  -1.167  0.00  0.00     0.084 C 
HETATM   16  C   UNK N   1      -3.937  -2.170   0.122  0.00  0.00     0.157 C 
HETATM   17  C   UNK N   1      -3.271   0.914   0.298  0.00  0.00     0.110 A 
HETATM   18  C   UNK N   1      -1.658   2.353  -1.456  0.00  0.00     0.011 A 
HETATM   19  C   UNK N   1      -3.726   2.154  -0.158  0.00  0.00     0.099 A 
HETATM   20  C   UNK N   1      -2.894   2.895  -1.024  0.00  0.00     0.040 A 
ENDROOT
BRANCH   3  21
HETATM   21  C   UNK N   1       2.363  -0.133  -0.152  0.00  0.00     0.242 C 
BRANCH  21  22
HETATM   22  C   UNK N   1       3.310   0.369   0.932  0.00  0.00     0.012 A 
HETATM   23  C   UNK N   1       4.737   0.219   0.444  0.00  0.00     0.007 A 
HETATM   24  C   UNK N   1       4.056   1.564   0.370  0.00  0.00     0.007 A 
ENDBRANCH  21  22
ENDBRANCH   3  21
BRANCH   5  25
HETATM   25  O   UNK N   1      -0.821  -3.008   0.172  0.00  0.00    -0.386 OA
HETATM   26  H   UNK N   1      -1.473  -3.599   0.578  0.00  0.00     0.210 HD
ENDBRANCH   5  25
BRANCH  19  27
HETATM   27  O   UNK N   1      -4.936   2.620   0.196  0.00  0.00    -0.358 OA
HETATM   28  H   UNK N   1      -5.076   3.513   0.443  0.00  0.00     0.217 HD
ENDBRANCH  19  27
TORSDOF 4
