REMARK  8 active torsions:
REMARK  status: ('A' for Active; 'I' for Inactive)
REMARK    1  A    between atoms: S_1  and  C_18 
REMARK    2  A    between atoms: S_1  and  C_23 
REMARK    3  A    between atoms: O_3  and  C_20 
REMARK    4  A    between atoms: N_6  and  C_14 
REMARK    5  A    between atoms: N_7  and  C_13 
REMARK       I    between atoms: N_7  and  C_16 
REMARK    6  A    between atoms: N_8  and  C_21 
REMARK    7  A    between atoms: C_9  and  C_13 
REMARK    8  A    between atoms: C_16  and  C_17 
ROOT
HETATM    1  C   UNK N   1       3.787  -1.579   0.049  0.00  0.00     0.066 A 
HETATM    2  C   UNK N   1       2.805   0.650   0.022  0.00  0.00     0.086 A 
HETATM    3  C   UNK N   1       3.911  -0.188  -0.002  0.00  0.00     0.045 A 
HETATM    4  C   UNK N   1       2.497  -2.150   0.123  0.00  0.00     0.086 A 
HETATM    5  C   UNK N   1       1.522   0.094   0.126  0.00  0.00     0.050 A 
HETATM    6  C   UNK N   1       1.372  -1.299   0.175  0.00  0.00     0.068 A 
ENDROOT
BRANCH   1   7
HETATM    7  C   UNK N   1       5.041  -2.368  -0.013  0.00  0.00     0.254 C 
HETATM    8  O   UNK N   1       5.018  -3.593  -0.053  0.00  0.00    -0.268 OA
HETATM    9  N   UNK N   1       6.221  -1.703  -0.026  0.00  0.00    -0.355 N 
HETATM   10  H   UNK N   1       6.195  -0.721   0.033  0.00  0.00     0.162 HD
BRANCH   9  11
HETATM   11  C   UNK N   1       7.509  -2.335  -0.119  0.00  0.00     0.158 C 
BRANCH  11  12
HETATM   12  C   UNK N   1       8.589  -1.378   0.385  0.00  0.00     0.240 C 
HETATM   13  N   UNK N   1       8.559  -0.084  -0.293  0.00  0.00     0.094 N 
HETATM   14  C   UNK N   1       9.937   0.405  -0.243  0.00  0.00     0.273 C 
HETATM   15  C   UNK N   1      10.851  -0.762   0.078  0.00  0.00     0.032 C 
HETATM   16  C   UNK N   1       9.949  -1.967   0.123  0.00  0.00     0.039 C 
BRANCH  13  17
HETATM   17  C   UNK N   1       7.738   0.824   0.502  0.00  0.00     0.268 C 
HETATM   18  C   UNK N   1       7.536   2.145  -0.223  0.00  0.00     0.037 C 
ENDBRANCH  13  17
ENDBRANCH  11  12
ENDBRANCH   9  11
ENDBRANCH   1   7
BRANCH   4  19
HETATM   19  O   UNK N   1       2.349  -3.500   0.133  0.00  0.00    -0.355 OA
HETATM   20  C   UNK N   1       1.123  -4.126   0.119  0.00  0.00     0.210 C 
ENDBRANCH   4  19
BRANCH   2  21
HETATM   21  S   UNK N   1       3.077   2.414  -0.189  0.00  0.00     0.177 S 
HETATM   22  O   UNK N   1       4.601   2.554  -0.321  0.00  0.00    -0.223 OA
HETATM   23  O   UNK N   1       2.718   2.718  -1.651  0.00  0.00    -0.223 OA
BRANCH  21  24
HETATM   24  C   UNK N   1       2.559   3.841   0.808  0.00  0.00     0.141 C 
HETATM   25  C   UNK N   1       3.295   5.087   0.342  0.00  0.00     0.021 C 
ENDBRANCH  21  24
ENDBRANCH   2  21
BRANCH   5  26
HETATM   26  N   UNK N   1       0.380   0.919   0.149  0.00  0.00    -0.398 N 
HETATM   27  H   UNK N   1       0.480   1.898   0.164  0.00  0.00     0.156 HD
HETATM   28  H   UNK N   1      -0.519   0.516   0.149  0.00  0.00     0.156 HD
ENDBRANCH   5  26
TORSDOF 8
