REMARK  4 active torsions:
REMARK  status: ('A' for Active; 'I' for Inactive)
REMARK    1  A    between atoms: N_1  and  C_2 
REMARK    2  A    between atoms: C_7  and  C_13 
REMARK    3  A    between atoms: C_15  and  C_16 
REMARK    4  A    between atoms: C_26  and  N_27 
ROOT
HETATM    1  C   UNK N   1       2.079   1.581  -0.501  0.00  0.00     0.015 C 
HETATM    2  C   UNK N   1       0.924   0.929  -0.380  0.00  0.00     0.030 C 
ENDROOT
BRANCH   2   3
HETATM    3  C   UNK N   1      -0.393   1.520  -0.193  0.00  0.00     0.034 A 
HETATM    4  N   UNK N   1      -1.495   0.708  -0.077  0.00  0.00    -0.351 N 
HETATM    5  C   UNK N   1      -2.740   1.253   0.095  0.00  0.00     0.044 A 
HETATM    6  C   UNK N   1      -1.340  -0.748  -0.155  0.00  0.00     0.156 C 
HETATM    7  C   UNK N   1      -2.886   2.655   0.162  0.00  0.00    -0.007 A 
HETATM    8  C   UNK N   1      -3.885   0.443   0.184  0.00  0.00     0.033 A 
HETATM    9  C   UNK N   1      -1.769   3.474   0.073  0.00  0.00     0.016 A 
HETATM   10  C   UNK N   1      -4.146   3.226   0.281  0.00  0.00     0.043 A 
HETATM   11  C   UNK N   1      -0.518   2.908  -0.106  0.00  0.00     0.030 A 
HETATM   12  C   UNK N   1      -5.291   2.422   0.331  0.00  0.00     0.030 A 
HETATM   13  C   UNK N   1      -5.150   1.024   0.297  0.00  0.00     0.031 A 
BRANCH  12  14
HETATM   14  N   UNK N   1      -6.582   3.025   0.365  0.00  0.00    -0.390 N 
HETATM   15  C   UNK N   1      -6.724   4.459   0.323  0.00  0.00     0.149 C 
HETATM   16  C   UNK N   1      -7.775   2.218   0.333  0.00  0.00     0.149 C 
ENDBRANCH  12  14
ENDBRANCH   2   3
BRANCH   1  17
HETATM   17  C   UNK N   1       3.302   0.770  -0.497  0.00  0.00    -0.011 A 
HETATM   18  C   UNK N   1       3.358  -0.608  -0.621  0.00  0.00     0.023 A 
HETATM   19  N   UNK N   1       4.609  -1.031  -0.364  0.00  0.00    -0.319 N 
HETATM   20  C   UNK N   1       2.210  -1.504  -0.979  0.00  0.00     0.069 C 
HETATM   21  C   UNK N   1       5.357   0.072  -0.131  0.00  0.00     0.014 A 
HETATM   22  C   UNK N   1       4.572   1.219  -0.196  0.00  0.00     0.038 A 
HETATM   23  C   UNK N   1       6.790   0.075   0.277  0.00  0.00     0.068 C 
BRANCH  19  24
HETATM   24  C   UNK N   1       5.001  -2.423  -0.285  0.00  0.00     0.039 A 
HETATM   25  C   UNK N   1       6.327  -2.821  -0.484  0.00  0.00     0.030 A 
HETATM   26  C   UNK N   1       6.671  -4.175  -0.392  0.00  0.00     0.002 A 
HETATM   27  C   UNK N   1       5.703  -5.130  -0.064  0.00  0.00     0.000 A 
HETATM   28  C   UNK N   1       4.386  -4.737   0.164  0.00  0.00     0.002 A 
HETATM   29  C   UNK N   1       4.040  -3.396   0.044  0.00  0.00     0.030 A 
ENDBRANCH  19  24
ENDBRANCH   1  17
TORSDOF 4
