REMARK  4 active torsions:
REMARK  status: ('A' for Active; 'I' for Inactive)
REMARK    1  A    between atoms: C_2  and  C_3 
REMARK    2  A    between atoms: C_2  and  O_8 
REMARK    3  A    between atoms: C_3  and  N_4 
REMARK    4  A    between atoms: O_8  and  C_9 
ROOT
HETATM    1  C   UNK N   1       4.176   0.039   0.559  0.00  0.00     0.042 C 
HETATM    2  C   UNK N   1       4.134   1.448  -0.023  0.00  0.00     0.153 C 
ENDROOT
BRANCH   2   3
HETATM    3  C   UNK N   1       2.927   2.173   0.583  0.00  0.00     0.268 C 
BRANCH   3   4
HETATM    4  N   UNK N   1       1.628   1.935  -0.066  0.00  0.00    -0.076 N 
HETATM    5  C   UNK N   1       1.524   0.683  -0.805  0.00  0.00     0.271 C 
HETATM    6  C   UNK N   1       0.612   1.928   0.970  0.00  0.00     0.271 C 
HETATM    7  C   UNK N   1       1.342   3.035  -0.969  0.00  0.00     0.271 C 
ENDBRANCH   3   4
ENDBRANCH   2   3
BRANCH   2   8
HETATM    8  O   UNK N   1       5.275   2.147   0.322  0.00  0.00    -0.315 OA
BRANCH   8   9
HETATM    9  C   UNK N   1       6.543   1.810  -0.040  0.00  0.00     0.255 C 
HETATM   10  O   UNK N   1       7.465   2.542   0.270  0.00  0.00    -0.266 OA
HETATM   11  C   UNK N   1       6.841   0.554  -0.800  0.00  0.00     0.126 C 
ENDBRANCH   8   9
ENDBRANCH   2   8
TORSDOF 4
