REMARK  6 active torsions:
REMARK  status: ('A' for Active; 'I' for Inactive)
REMARK    1  A    between atoms: C_2  and  C_3 
REMARK    2  A    between atoms: C_2  and  N_13 
REMARK    3  A    between atoms: C_3  and  C_4 
REMARK    4  A    between atoms: C_3  and  O_12 
REMARK    5  A    between atoms: C_6  and  O_11 
REMARK    6  A    between atoms: C_7  and  O_10 
ROOT
HETATM    1  C   UNK N   1       0.679  -0.594  -0.241  0.00  0.00    -0.025 A 
HETATM    2  C   UNK N   1      -0.594  -0.046  -0.008  0.00  0.00     0.049 A 
HETATM    3  C   UNK N   1      -0.762   1.337   0.121  0.00  0.00     0.099 A 
HETATM    4  C   UNK N   1       0.349   2.186   0.028  0.00  0.00     0.098 A 
HETATM    5  C   UNK N   1       1.617   1.650  -0.201  0.00  0.00     0.040 A 
HETATM    6  C   UNK N   1       1.780   0.269  -0.347  0.00  0.00     0.013 A 
ENDROOT
BRANCH   1   7
HETATM    7  C   UNK N   1       0.853  -2.086  -0.441  0.00  0.00     0.173 C 
BRANCH   7   8
HETATM    8  C   UNK N   1       1.919  -2.719   0.466  0.00  0.00     0.103 C 
HETATM    9  C   UNK N   1       1.965  -4.223   0.256  0.00  0.00     0.034 C 
BRANCH   8  10
HETATM   10  N   UNK N   1       3.234  -2.184   0.152  0.00  0.00    -0.424 N 
HETATM   11  H   UNK N   1       4.020  -2.795  -0.069  0.00  0.00     0.150 HD
HETATM   12  H   UNK N   1       3.374  -1.174   0.152  0.00  0.00     0.150 HD
ENDBRANCH   8  10
ENDBRANCH   7   8
BRANCH   7  13
HETATM   13  O   UNK N   1      -0.369  -2.746  -0.262  0.00  0.00    -0.389 OA
HETATM   14  H   UNK N   1      -1.188  -2.241  -0.139  0.00  0.00     0.210 HD
ENDBRANCH   7  13
ENDBRANCH   1   7
BRANCH   3  15
HETATM   15  O   UNK N   1      -1.989   1.844   0.325  0.00  0.00    -0.358 OA
HETATM   16  H   UNK N   1      -2.111   2.762   0.468  0.00  0.00     0.217 HD
ENDBRANCH   3  15
BRANCH   4  17
HETATM   17  O   UNK N   1       0.199   3.516   0.153  0.00  0.00    -0.358 OA
HETATM   18  H   UNK N   1       0.950   4.070   0.240  0.00  0.00     0.217 HD
ENDBRANCH   4  17
TORSDOF 6
