REMARK  3 active torsions:
REMARK  status: ('A' for Active; 'I' for Inactive)
REMARK    1  A    between atoms: C_12  and  C_16 
REMARK    2  A    between atoms: C_16  and  C_18 
REMARK    3  A    between atoms: C_18  and  O_19 
ROOT
HETATM    1  C   UNK N   1      -4.883  -0.035  -0.694  0.00  0.00     0.016 A 
HETATM    2  C   UNK N   1      -5.695  -1.054  -1.189  0.00  0.00     0.001 A 
HETATM    3  C   UNK N   1      -5.345  -2.382  -0.978  0.00  0.00     0.001 A 
HETATM    4  C   UNK N   1      -4.181  -2.688  -0.277  0.00  0.00     0.020 A 
HETATM    5  C   UNK N   1      -3.348  -1.682   0.231  0.00  0.00     0.019 A 
HETATM    6  C   UNK N   1      -3.707  -0.314   0.030  0.00  0.00     0.027 A 
HETATM    7  C   UNK N   1       0.545   0.891   0.558  0.00  0.00     0.017 A 
HETATM    8  C   UNK N   1      -0.597   0.128   0.822  0.00  0.00    -0.033 A 
HETATM    9  C   UNK N   1      -0.596  -1.245   0.573  0.00  0.00     0.012 A 
HETATM   10  C   UNK N   1       0.541  -1.848   0.019  0.00  0.00     0.020 A 
HETATM   11  C   UNK N   1       1.683  -1.083  -0.251  0.00  0.00     0.009 A 
HETATM   12  C   UNK N   1       1.699   0.293   0.036  0.00  0.00    -0.044 A 
HETATM   13  S   UNK N   1      -1.938  -2.269   1.187  0.00  0.00    -0.089 SA
HETATM   14  C   UNK N   1      -2.947   0.866   0.550  0.00  0.00     0.165 C 
HETATM   15  C   UNK N   1      -1.770   0.769   1.470  0.00  0.00     0.123 C 
HETATM   16  O   UNK N   1      -3.328   1.988   0.251  0.00  0.00    -0.292 OA
ENDROOT
BRANCH  12  17
HETATM   17  C   UNK N   1       2.958   1.124  -0.080  0.00  0.00     0.112 C 
HETATM   18  C   UNK N   1       2.789   2.235  -1.107  0.00  0.00     0.026 C 
BRANCH  17  19
HETATM   19  C   UNK N   1       4.236   0.343  -0.283  0.00  0.00     0.148 C 
HETATM   20  O   UNK N   1       4.548  -0.525   0.518  0.00  0.00    -0.649 OA
BRANCH  19  21
HETATM   21  O   UNK N   1       5.065   0.628  -1.305  0.00  0.00    -0.776 OA
HETATM   22  H   UNK N   1       5.525   0.227  -2.017  0.00  0.00     0.167 HD
ENDBRANCH  19  21
ENDBRANCH  17  19
ENDBRANCH  12  17
TORSDOF 3
