REMARK  15 active torsions:
REMARK  status: ('A' for Active; 'I' for Inactive)
REMARK    1  A    between atoms: O_4  and  C_25 
REMARK    2  A    between atoms: O_6  and  C_27 
REMARK    3  A    between atoms: O_6  and  C_28 
REMARK    4  A    between atoms: O_7  and  C_29 
REMARK    5  A    between atoms: O_7  and  C_34 
REMARK    6  A    between atoms: N_8  and  C_15 
REMARK    7  A    between atoms: C_21  and  N_9 
REMARK    8  A    between atoms: N_9  and  C_26 
REMARK       I    between atoms: N_10  and  C_23 
REMARK    9  A    between atoms: C_15  and  C_22 
REMARK   10  A    between atoms: C_16  and  C_19 
REMARK   11  A    between atoms: C_17  and  C_23 
REMARK   12  A    between atoms: C_19  and  C_21 
REMARK   13  A    between atoms: C_22  and  C_25 
REMARK   14  A    between atoms: C_26  and  C_27 
REMARK   15  A    between atoms: C_34  and  C_35 
ROOT
HETATM    1  C   UNK N   1       4.673   1.212   0.429  0.00  0.00     0.062 C 
ENDROOT
BRANCH   1   2
HETATM    2  C   UNK N   1       5.942   1.990   0.383  0.00  0.00    -0.055 A 
HETATM    3  C   UNK N   1       7.162   1.314   0.401  0.00  0.00     0.016 A 
HETATM    4  C   UNK N   1       8.334   2.053   0.315  0.00  0.00    -0.029 A 
HETATM    5  C   UNK N   1       8.334   3.417   0.221  0.00  0.00     0.052 A 
HETATM    6  C   UNK N   1       9.715   1.499   0.331  0.00  0.00     0.060 A 
HETATM    7  N   UNK N   1       9.662   3.881   0.213  0.00  0.00    -0.379 N 
HETATM    8  C   UNK N   1       7.104   4.142   0.177  0.00  0.00     0.059 A 
HETATM    9  C   UNK N   1      10.594   2.775   0.250  0.00  0.00     0.128 A 
HETATM   10  C   UNK N   1       5.914   3.389   0.265  0.00  0.00     0.026 A 
BRANCH   7  11
HETATM   11  C   UNK N   1      10.071   5.198   0.624  0.00  0.00     0.125 C 
BRANCH  11  12
HETATM   12  C   UNK N   1      11.058   5.802  -0.353  0.00  0.00     0.046 C 
BRANCH  12  13
HETATM   13  C   UNK N   1      11.359   7.216   0.099  0.00  0.00     0.165 C 
BRANCH  13  14
HETATM   14  O   UNK N   1      12.463   7.707  -0.594  0.00  0.00    -0.401 OA
HETATM   15  H   UNK N   1      13.143   7.213  -1.077  0.00  0.00     0.209 HD
ENDBRANCH  13  14
ENDBRANCH  12  13
ENDBRANCH  11  12
ENDBRANCH   7  11
BRANCH   8  16
HETATM   16  C   UNK N   1       6.956   5.617  -0.009  0.00  0.00     0.251 C 
HETATM   17  O   UNK N   1       7.907   6.319  -0.304  0.00  0.00    -0.268 OA
HETATM   18  N   UNK N   1       5.736   6.184   0.071  0.00  0.00    -0.366 N 
HETATM   19  H   UNK N   1       5.649   7.163   0.129  0.00  0.00     0.159 HD
HETATM   20  H   UNK N   1       4.930   5.618   0.071  0.00  0.00     0.159 HD
ENDBRANCH   8  16
ENDBRANCH   1   2
BRANCH   1  21
HETATM   21  C   UNK N   1       3.997   1.240  -0.936  0.00  0.00     0.076 C 
HETATM   22  C   UNK N   1       4.807   0.477  -1.989  0.00  0.00     0.032 C 
BRANCH  21  23
HETATM   23  N   UNK N   1       2.597   0.806  -0.851  0.00  0.00    -0.415 N 
HETATM   24  H   UNK N   1       1.809   1.447  -0.761  0.00  0.00     0.153 HD
BRANCH  23  25
HETATM   25  C   UNK N   1       2.459  -0.648  -0.909  0.00  0.00     0.141 C 
BRANCH  25  26
HETATM   26  C   UNK N   1       2.808  -1.293   0.422  0.00  0.00     0.195 C 
BRANCH  26  27
HETATM   27  O   UNK N   1       2.784  -2.664   0.285  0.00  0.00    -0.347 OA
BRANCH  27  28
HETATM   28  C   UNK N   1       1.640  -3.390   0.207  0.00  0.00     0.102 A 
HETATM   29  C   UNK N   1       1.690  -4.788  -0.025  0.00  0.00     0.102 A 
HETATM   30  C   UNK N   1       0.494  -5.515  -0.069  0.00  0.00     0.039 A 
HETATM   31  C   UNK N   1      -0.739  -4.880   0.088  0.00  0.00     0.003 A 
HETATM   32  C   UNK N   1      -0.793  -3.505   0.301  0.00  0.00     0.003 A 
HETATM   33  C   UNK N   1       0.387  -2.765   0.367  0.00  0.00     0.039 A 
BRANCH  29  34
HETATM   34  O   UNK N   1       2.845  -5.474  -0.223  0.00  0.00    -0.340 OA
BRANCH  34  35
HETATM   35  C   UNK N   1       4.058  -4.929  -0.590  0.00  0.00     0.293 C 
BRANCH  35  36
HETATM   36  C   UNK N   1       5.205  -5.569   0.179  0.00  0.00     0.408 C 
HETATM   37  F   UNK N   1       5.352  -4.954   1.408  0.00  0.00    -0.169 F 
HETATM   38  F   UNK N   1       4.972  -6.920   0.363  0.00  0.00    -0.169 F 
HETATM   39  F   UNK N   1       6.370  -5.413  -0.548  0.00  0.00    -0.169 F 
ENDBRANCH  35  36
ENDBRANCH  34  35
ENDBRANCH  29  34
ENDBRANCH  27  28
ENDBRANCH  26  27
ENDBRANCH  25  26
ENDBRANCH  23  25
ENDBRANCH  21  23
ENDBRANCH   1  21
TORSDOF 15
