REMARK  9 active torsions:
REMARK  status: ('A' for Active; 'I' for Inactive)
REMARK    1  A    between atoms: C_5  and  C_9 
REMARK    2  A    between atoms: C_9  and  C_8 
REMARK    3  A    between atoms: C_9  and  N_14 
REMARK    4  A    between atoms: N_17  and  C_21 
REMARK    5  A    between atoms: C_21  and  C_22 
REMARK    6  A    between atoms: C_22  and  O_23 
REMARK    7  A    between atoms: O_23  and  C_24 
REMARK    8  A    between atoms: C_24  and  C_25 
REMARK    9  A    between atoms: C_25  and  O_26 
ROOT
HETATM    1  N   UNK N   1      -0.409  -0.003   0.071  0.00  0.00     0.104 N 
HETATM    2  C   UNK N   1       0.803   0.688   0.480  0.00  0.00     0.293 C 
HETATM    3  C   UNK N   1       0.408   1.751   1.502  0.00  0.00     0.147 C 
HETATM    4  N   UNK N   1      -0.702   2.607   1.042  0.00  0.00    -0.407 N 
HETATM    5  C   UNK N   1      -1.711   2.033   0.132  0.00  0.00     0.147 C 
HETATM    6  C   UNK N   1      -1.147   0.933  -0.764  0.00  0.00     0.293 C 
ENDROOT
BRANCH   1   7
HETATM    7  C   UNK N   1      -0.267  -1.298  -0.627  0.00  0.00     0.289 C 
BRANCH   7   8
HETATM    8  C   UNK N   1       1.006  -2.058  -0.260  0.00  0.00    -0.021 A 
HETATM    9  C   UNK N   1       0.970  -3.246   0.490  0.00  0.00     0.010 A 
HETATM   10  C   UNK N   1       2.153  -3.924   0.803  0.00  0.00     0.001 A 
HETATM   11  C   UNK N   1       3.383  -3.425   0.365  0.00  0.00     0.000 A 
HETATM   12  C   UNK N   1       3.430  -2.252  -0.391  0.00  0.00     0.001 A 
HETATM   13  C   UNK N   1       2.248  -1.574  -0.704  0.00  0.00     0.010 A 
ENDBRANCH   7   8
BRANCH   7  14
HETATM   14  C   UNK N   1      -1.541  -2.107  -0.417  0.00  0.00    -0.021 A 
HETATM   15  C   UNK N   1      -1.746  -3.310  -1.110  0.00  0.00     0.011 A 
HETATM   16  C   UNK N   1      -2.932  -4.034  -0.931  0.00  0.00     0.024 A 
HETATM   17  C   UNK N   1      -3.923  -3.556  -0.065  0.00  0.00     0.034 A 
HETATM   18  C   UNK N   1      -3.728  -2.361   0.626  0.00  0.00     0.024 A 
HETATM   19 Cl   UNK N   1      -5.413  -4.447   0.152  0.00  0.00    -0.084 Cl
HETATM   20  C   UNK N   1      -2.547  -1.643   0.452  0.00  0.00     0.011 A 
ENDBRANCH   7  14
ENDBRANCH   1   7
BRANCH   4  21
HETATM   21  C   UNK N   1      -0.290   3.971   0.714  0.00  0.00     0.143 C 
BRANCH  21  22
HETATM   22  C   UNK N   1       0.299   4.127  -0.692  0.00  0.00     0.187 C 
BRANCH  22  23
HETATM   23  O   UNK N   1       1.404   3.294  -0.892  0.00  0.00    -0.379 OA
BRANCH  23  24
HETATM   24  C   UNK N   1       2.504   3.975  -0.356  0.00  0.00     0.277 C 
BRANCH  24  25
HETATM   25  C   UNK N   1       3.622   3.020  -0.062  0.00  0.00     0.164 C 
HETATM   26  O   UNK N   1       3.536   1.844  -0.371  0.00  0.00    -0.648 OA
BRANCH  25  27
HETATM   27  O   UNK N   1       4.737   3.471   0.542  0.00  0.00    -0.775 OA
HETATM   28  H   UNK N   1       5.397   2.956   0.963  0.00  0.00     0.167 HD
ENDBRANCH  25  27
ENDBRANCH  24  25
ENDBRANCH  23  24
ENDBRANCH  22  23
ENDBRANCH  21  22
ENDBRANCH   4  21
TORSDOF 9
