REMARK WARNING: 32 MAX_TORS EXCEEDED!!!
REMARK  38 active torsions:
REMARK  status: ('A' for Active; 'I' for Inactive)
REMARK    1  A    between atoms: C_3  and  C_2 
REMARK    2  A    between atoms: C_4  and  C_3 
REMARK    3  A    between atoms: C_5  and  C_4 
REMARK    4  A    between atoms: C_6  and  C_5 
REMARK    5  A    between atoms: C_7  and  C_6 
REMARK    6  A    between atoms: C_8  and  C_7 
REMARK    7  A    between atoms: C_9  and  C_8 
REMARK    8  A    between atoms: C_10  and  C_9 
REMARK    9  A    between atoms: C_11  and  C_10 
REMARK   10  A    between atoms: C_13  and  C_11 
REMARK   11  A    between atoms: C_14  and  C_12 
REMARK   12  A    between atoms: O_31  and  C_12 
REMARK   13  A    between atoms: O_32  and  C_13 
REMARK   14  A    between atoms: O_33  and  C_14 
REMARK   15  A    between atoms: C_17  and  C_15 
REMARK   16  A    between atoms: O_32  and  C_15 
REMARK   17  A    between atoms: C_18  and  C_16 
REMARK   18  A    between atoms: O_33  and  C_16 
REMARK   19  A    between atoms: O_34  and  C_17 
REMARK   20  A    between atoms: O_35  and  C_18 
REMARK   21  A    between atoms: C_21  and  C_19 
REMARK   22  A    between atoms: O_34  and  C_19 
REMARK   23  A    between atoms: C_22  and  C_20 
REMARK   24  A    between atoms: O_35  and  C_20 
REMARK   25  A    between atoms: O_36  and  C_21 
REMARK   26  A    between atoms: O_37  and  C_22 
REMARK   27  A    between atoms: C_25  and  C_23 
REMARK   28  A    between atoms: O_36  and  C_23 
REMARK   29  A    between atoms: C_26  and  C_24 
REMARK   30  A    between atoms: O_37  and  C_24 
REMARK   31  A    between atoms: O_38  and  C_25 
REMARK   32  A    between atoms: O_39  and  C_26 
REMARK   33  A    between atoms: C_29  and  C_27 
REMARK   34  A    between atoms: O_38  and  C_27 
REMARK   35  A    between atoms: C_30  and  C_28 
REMARK   36  A    between atoms: O_39  and  C_28 
REMARK   37  A    between atoms: O_40  and  C_29 
REMARK   38  A    between atoms: O_40  and  C_30 
ROOT
HETATM    1  C   UNK N   1      -0.367   6.642   0.142  0.00  0.00     0.193 C 
ENDROOT
BRANCH   1   2
HETATM    2  C   UNK N   1      -1.697   6.254   0.781  0.00  0.00     0.193 C 
BRANCH   2   3
HETATM    3  O   UNK N   1      -2.568   5.689  -0.162  0.00  0.00    -0.387 OA
BRANCH   3   4
HETATM    4  C   UNK N   1      -3.259   6.757  -0.742  0.00  0.00     0.193 C 
BRANCH   4   5
HETATM    5  C   UNK N   1      -4.573   7.020  -0.018  0.00  0.00     0.193 C 
BRANCH   5   6
HETATM    6  O   UNK N   1      -4.613   8.351   0.404  0.00  0.00    -0.387 OA
BRANCH   6   7
HETATM    7  C   UNK N   1      -5.249   9.046  -0.630  0.00  0.00     0.193 C 
BRANCH   7   8
HETATM    8  C   UNK N   1      -5.889  10.314  -0.090  0.00  0.00     0.193 C 
BRANCH   8   9
HETATM    9  O   UNK N   1      -6.944   9.992   0.768  0.00  0.00    -0.389 OA
BRANCH   9  10
HETATM   10  C   UNK N   1      -8.107  10.266   0.041  0.00  0.00     0.167 C 
BRANCH  10  11
HETATM   11  C   UNK N   1      -8.693   8.980  -0.521  0.00  0.00     0.026 C 
BRANCH  11  12
HETATM   12  C   UNK N   1      -9.188   8.085   0.603  0.00  0.00     0.002 C 
BRANCH  12  13
HETATM   13  C   UNK N   1      -9.666   6.756   0.040  0.00  0.00     0.000 C 
BRANCH  13  14
HETATM   14  C   UNK N   1     -10.973   6.933  -0.711  0.00  0.00     0.000 C 
BRANCH  14  15
HETATM   15  C   UNK N   1     -12.144   6.872   0.248  0.00  0.00     0.000 C 
BRANCH  15  16
HETATM   16  C   UNK N   1     -13.264   7.734  -0.294  0.00  0.00     0.000 C 
BRANCH  16  17
HETATM   17  C   UNK N   1     -14.580   7.318   0.324  0.00  0.00     0.000 C 
BRANCH  17  18
HETATM   18  C   UNK N   1     -15.655   8.289  -0.112  0.00  0.00     0.000 C 
BRANCH  18  19
HETATM   19  C   UNK N   1     -17.019   7.720   0.214  0.00  0.00    -0.000 C 
BRANCH  19  20
HETATM   20  C   UNK N   1     -18.083   8.734  -0.150  0.00  0.00    -0.005 C 
HETATM   21  C   UNK N   1     -19.453   8.120   0.045  0.00  0.00     0.005 C 
ENDBRANCH  19  20
ENDBRANCH  18  19
ENDBRANCH  17  18
ENDBRANCH  16  17
ENDBRANCH  15  16
ENDBRANCH  14  15
ENDBRANCH  13  14
ENDBRANCH  12  13
ENDBRANCH  11  12
ENDBRANCH  10  11
ENDBRANCH   9  10
ENDBRANCH   8   9
ENDBRANCH   7   8
ENDBRANCH   6   7
ENDBRANCH   5   6
ENDBRANCH   4   5
ENDBRANCH   3   4
ENDBRANCH   2   3
ENDBRANCH   1   2
BRANCH   1  22
HETATM   22  O   UNK N   1      -0.451   7.933  -0.390  0.00  0.00    -0.387 OA
BRANCH  22  23
HETATM   23  C   UNK N   1       0.130   8.757   0.578  0.00  0.00     0.193 C 
BRANCH  23  24
HETATM   24  C   UNK N   1       1.110   9.727  -0.066  0.00  0.00     0.193 C 
BRANCH  24  25
HETATM   25  O   UNK N   1       2.148   9.041  -0.703  0.00  0.00    -0.387 OA
BRANCH  25  26
HETATM   26  C   UNK N   1       3.180   8.997   0.236  0.00  0.00     0.193 C 
BRANCH  26  27
HETATM   27  C   UNK N   1       3.717   7.580   0.339  0.00  0.00     0.193 C 
BRANCH  27  28
HETATM   28  O   UNK N   1       4.815   7.426  -0.513  0.00  0.00    -0.387 OA
BRANCH  28  29
HETATM   29  C   UNK N   1       5.926   7.409   0.335  0.00  0.00     0.193 C 
BRANCH  29  30
HETATM   30  C   UNK N   1       6.567   8.786   0.379  0.00  0.00     0.193 C 
BRANCH  30  31
HETATM   31  O   UNK N   1       7.630   8.853  -0.524  0.00  0.00    -0.387 OA
BRANCH  31  32
HETATM   32  C   UNK N   1       8.711   9.276   0.252  0.00  0.00     0.193 C 
BRANCH  32  33
HETATM   33  C   UNK N   1       9.676   8.128   0.479  0.00  0.00     0.193 C 
BRANCH  33  34
HETATM   34  O   UNK N   1      10.624   8.106  -0.545  0.00  0.00    -0.387 OA
BRANCH  34  35
HETATM   35  C   UNK N   1      11.456   7.022  -0.253  0.00  0.00     0.193 C 
BRANCH  35  36
HETATM   36  C   UNK N   1      12.690   7.500   0.495  0.00  0.00     0.193 C 
BRANCH  36  37
HETATM   37  O   UNK N   1      13.822   6.859  -0.007  0.00  0.00    -0.387 OA
BRANCH  37  38
HETATM   38  C   UNK N   1      14.635   7.891  -0.478  0.00  0.00     0.193 C 
BRANCH  38  39
HETATM   39  C   UNK N   1      15.923   7.929   0.321  0.00  0.00     0.190 C 
BRANCH  39  40
HETATM   40  O   UNK N   1      16.708   8.997  -0.111  0.00  0.00    -0.399 OA
HETATM   41  H   UNK N   1      17.625   8.895  -0.412  0.00  0.00     0.209 HD
ENDBRANCH  39  40
ENDBRANCH  38  39
ENDBRANCH  37  38
ENDBRANCH  36  37
ENDBRANCH  35  36
ENDBRANCH  34  35
ENDBRANCH  33  34
ENDBRANCH  32  33
ENDBRANCH  31  32
ENDBRANCH  30  31
ENDBRANCH  29  30
ENDBRANCH  28  29
ENDBRANCH  27  28
ENDBRANCH  26  27
ENDBRANCH  25  26
ENDBRANCH  24  25
ENDBRANCH  23  24
ENDBRANCH  22  23
ENDBRANCH   1  22
TORSDOF 38
