REMARK  0 active torsions:
REMARK  status: ('A' for Active; 'I' for Inactive)
ROOT
HETATM    1  C   UNK N   1       3.442  -6.181   0.799  0.00  0.00     0.309 C 
HETATM    2  C   UNK N   1       7.197   1.416   0.199  0.00  0.00     0.001 A 
HETATM    3  C   UNK N   1       7.128   0.115  -0.270  0.00  0.00     0.001 A 
HETATM    4  C   UNK N   1       6.034   2.060   0.598  0.00  0.00     0.008 A 
HETATM    5  C   UNK N   1       5.897  -0.533  -0.340  0.00  0.00     0.013 A 
HETATM    6  C   UNK N   1       3.646   2.232   0.995  0.00  0.00     0.044 C 
HETATM    7  C   UNK N   1       2.717   2.406  -0.160  0.00  0.00     0.051 C 
HETATM    8  C   UNK N   1       2.173  -2.964  -0.551  0.00  0.00     0.065 C 
HETATM    9  C   UNK N   1       4.681  -2.918  -0.464  0.00  0.00     0.065 C 
HETATM   10  C   UNK N   1       0.756  -0.781   0.201  0.00  0.00     0.020 A 
HETATM   11  C   UNK N   1       2.236  -4.216   0.322  0.00  0.00     0.276 C 
HETATM   12  C   UNK N   1       4.603  -4.172   0.405  0.00  0.00     0.276 C 
HETATM   13  C   UNK N   1      -0.397   0.008   0.272  0.00  0.00     0.051 A 
HETATM   14  C   UNK N   1       4.789   1.420   0.534  0.00  0.00    -0.047 A 
HETATM   15  C   UNK N   1       3.406  -2.118  -0.336  0.00  0.00    -0.065 C 
HETATM   16  C   UNK N   1       4.683   0.072   0.051  0.00  0.00    -0.018 A 
HETATM   17  C   UNK N   1       1.986  -0.061   0.036  0.00  0.00    -0.011 A 
HETATM   18  C   UNK N   1       1.744   1.321  -0.020  0.00  0.00    -0.006 A 
HETATM   19  C   UNK N   1       3.362  -0.743  -0.075  0.00  0.00    -0.012 C 
HETATM   20  N   UNK N   1       3.447  -4.969   0.001  0.00  0.00     0.084 N 
HETATM   21  S   UNK N   1       0.120   1.568   0.131  0.00  0.00    -0.106 SA
ENDROOT
TORSDOF 0
