REMARK  3 active torsions:
REMARK  status: ('A' for Active; 'I' for Inactive)
REMARK    1  A    between atoms: O_6  and  C_15 
REMARK       I    between atoms: N_9  and  C_18 
REMARK    2  A    between atoms: N_9  and  C_20 
REMARK    3  A    between atoms: C_14  and  C_18 
ROOT
HETATM    1 Cl   UNK N   1      -6.342   1.499   0.098  0.00  0.00    -0.076 Cl
HETATM    2  S   UNK N   1      -0.938   3.061  -0.079  0.00  0.00     0.266 S 
HETATM    3  S   UNK N   1      -3.699   0.013  -0.042  0.00  0.00    -0.074 SA
HETATM    4  O   UNK N   1      -0.758   3.847  -1.386  0.00  0.00    -0.200 OA
HETATM    5  O   UNK N   1      -0.773   4.089   1.052  0.00  0.00    -0.200 OA
HETATM    6  N   UNK N   1       0.469   2.021   0.010  0.00  0.00    -0.268 N 
HETATM    7  C   UNK N   1      -2.352   2.048  -0.021  0.00  0.00     0.102 A 
HETATM    8  C   UNK N   1      -2.182   0.681  -0.072  0.00  0.00     0.065 A 
HETATM    9  C   UNK N   1       0.348   0.571  -0.089  0.00  0.00     0.147 C 
HETATM   10  C   UNK N   1      -0.893  -0.047  -0.137  0.00  0.00     0.117 C 
HETATM   11  C   UNK N   1      -3.704   2.485   0.043  0.00  0.00     0.058 A 
HETATM   12  C   UNK N   1      -4.595   1.407   0.041  0.00  0.00     0.076 A 
HETATM   13  C   UNK N   1       1.745   2.670   0.189  0.00  0.00     0.170 C 
ENDROOT
BRANCH   9  14
HETATM   14  C   UNK N   1       1.607  -0.283  -0.122  0.00  0.00     0.277 C 
HETATM   15  O   UNK N   1       2.705   0.247  -0.174  0.00  0.00    -0.266 OA
HETATM   16  N   UNK N   1       1.516  -1.643  -0.080  0.00  0.00    -0.308 N 
HETATM   17  H   UNK N   1       0.606  -2.021  -0.066  0.00  0.00     0.170 HD
BRANCH  16  18
HETATM   18  C   UNK N   1       2.590  -2.578  -0.056  0.00  0.00     0.107 A 
HETATM   19  N   UNK N   1       2.296  -3.908  -0.041  0.00  0.00    -0.352 N 
HETATM   20  C   UNK N   1       3.268  -4.859  -0.005  0.00  0.00     0.089 A 
ATOM     21  HN  UNK N   1       1.319  -4.200  -0.058  1.00  0.00     0.166 HD
HETATM   22  C   UNK N   1       4.612  -4.486   0.022  0.00  0.00     0.017 A 
HETATM   23  C   UNK N   1       4.944  -3.132   0.011  0.00  0.00     0.005 A 
HETATM   24  C   UNK N   1       3.933  -2.171  -0.027  0.00  0.00     0.048 A 
ENDBRANCH  16  18
ENDBRANCH   9  14
BRANCH  10  25
HETATM   25  O   UNK N   1      -0.981  -1.390  -0.238  0.00  0.00    -0.357 OA
HETATM   26  H   UNK N   1      -1.819  -1.803  -0.309  0.00  0.00     0.217 HD
ENDBRANCH  10  25
TORSDOF 3
