REMARK  7 active torsions:
REMARK  status: ('A' for Active; 'I' for Inactive)
REMARK    1  A    between atoms: C_1  and  O_2 
REMARK    2  A    between atoms: C_1  and  C_5 
REMARK    3  A    between atoms: C_4  and  C_3 
REMARK    4  A    between atoms: C_3  and  C_10 
REMARK    5  A    between atoms: C_5  and  C_4 
REMARK    6  A    between atoms: C_5  and  N_6 
REMARK       I    between atoms: N_6  and  C_8 
REMARK       I    between atoms: N_9  and  C_8 
REMARK    7  A    between atoms: C_10  and  O_13 
ROOT
HETATM    1  C   UNK N   1      -0.449   1.367  -0.000  0.00  0.00     0.184 C 
ENDROOT
BRANCH   1   2
HETATM    2  C   UNK N   1      -1.539   2.402  -0.000  0.00  0.00     0.163 C 
HETATM    3  O   UNK N   1      -1.259   3.590  -0.000  0.00  0.00    -0.648 OA
BRANCH   2   4
HETATM    4  O   UNK N   1      -2.833   2.025   0.000  0.00  0.00    -0.775 OA
HETATM    5  H   UNK N   1      -3.510   2.673   0.000  0.00  0.00     0.167 HD
ENDBRANCH   2   4
ENDBRANCH   1   2
BRANCH   1   6
HETATM    6  C   UNK N   1      -0.911  -0.104   0.000  0.00  0.00     0.046 C 
BRANCH   6   7
HETATM    7  C   UNK N   1       0.134  -1.191  -0.000  0.00  0.00     0.112 C 
BRANCH   7   8
HETATM    8  C   UNK N   1      -0.443  -2.566  -0.000  0.00  0.00     0.139 C 
HETATM    9  O   UNK N   1       0.309  -3.525  -0.000  0.00  0.00    -0.650 OA
BRANCH   8  10
HETATM   10  O   UNK N   1      -1.776  -2.761   0.000  0.00  0.00    -0.776 OA
HETATM   11  H   UNK N   1      -2.357  -2.026   0.000  0.00  0.00     0.167 HD
ENDBRANCH   8  10
ENDBRANCH   7   8
ENDBRANCH   6   7
ENDBRANCH   1   6
BRANCH   1  12
HETATM   12  N   UNK N   1       0.910   1.917  -0.000  0.00  0.00    -0.329 N 
HETATM   13  C   UNK N   1       2.146   1.347   0.000  0.00  0.00     0.314 C 
HETATM   14  N   UNK N   1       3.231   2.141   0.000  0.00  0.00    -0.352 N 
HETATM   15  O   UNK N   1       2.303   0.141  -0.000  0.00  0.00    -0.248 OA
HETATM   16  H   UNK N   1       4.132   1.744   0.000  0.00  0.00     0.160 HD
HETATM   17  H   UNK N   1       3.125   3.120   0.000  0.00  0.00     0.160 HD
HETATM   18  H   UNK N   1       0.933   2.901   0.000  0.00  0.00     0.165 HD
ENDBRANCH   1  12
TORSDOF 7
