REMARK  6 active torsions:
REMARK  status: ('A' for Active; 'I' for Inactive)
REMARK    1  A    between atoms: C_1  and  C_2 
REMARK    2  A    between atoms: C_1  and  N_17 
REMARK    3  A    between atoms: C_2  and  C_3 
REMARK    4  A    between atoms: C_2  and  C_10 
REMARK    5  A    between atoms: C_6  and  O_9 
REMARK    6  A    between atoms: C_10  and  O_16 
ROOT
HETATM    1  C   UNK N   1       2.536   1.193  -0.400  0.00  0.00     0.081 C 
ENDROOT
BRANCH   1   2
HETATM    2  C   UNK N   1       1.505   1.767   0.568  0.00  0.00     0.283 C 
BRANCH   2   3
HETATM    3  N   UNK N   1       0.189   1.726  -0.046  0.00  0.00     0.080 N 
HETATM    4  C   UNK N   1      -0.439   3.009   0.212  0.00  0.00     0.309 C 
HETATM    5  C   UNK N   1      -0.592   0.719   0.650  0.00  0.00     0.309 C 
ENDBRANCH   2   3
ENDBRANCH   1   2
BRANCH   1   6
HETATM    6  C   UNK N   1       2.802  -0.262  -0.116  0.00  0.00    -0.049 A 
HETATM    7  C   UNK N   1       3.455  -0.675   1.057  0.00  0.00     0.010 A 
HETATM    8  C   UNK N   1       3.687  -2.033   1.291  0.00  0.00     0.037 A 
HETATM    9  C   UNK N   1       3.260  -2.989   0.362  0.00  0.00     0.065 A 
HETATM   10  C   UNK N   1       2.603  -2.580  -0.803  0.00  0.00     0.037 A 
HETATM   11  C   UNK N   1       2.378  -1.223  -1.042  0.00  0.00     0.010 A 
BRANCH   9  12
HETATM   12  O   UNK N   1       3.480  -4.291   0.588  0.00  0.00    -0.361 OA
HETATM   13  H   UNK N   1       2.768  -4.879   0.746  0.00  0.00     0.217 HD
ENDBRANCH   9  12
ENDBRANCH   1   6
BRANCH   1  14
HETATM   14  C   UNK N   1       3.787   2.093  -0.511  0.00  0.00     0.067 C 
HETATM   15  C   UNK N   1       4.482   2.252   0.857  0.00  0.00     0.038 C 
HETATM   16  C   UNK N   1       5.891   2.813   0.686  0.00  0.00     0.003 C 
HETATM   17  C   UNK N   1       6.774   1.854  -0.127  0.00  0.00     0.000 C 
HETATM   18  C   UNK N   1       5.976   0.863  -0.987  0.00  0.00     0.003 C 
HETATM   19  C   UNK N   1       4.746   1.543  -1.587  0.00  0.00     0.038 C 
BRANCH  14  20
HETATM   20  O   UNK N   1       3.375   3.357  -0.938  0.00  0.00    -0.389 OA
HETATM   21  H   UNK N   1       3.992   4.044  -1.235  0.00  0.00     0.210 HD
ENDBRANCH  14  20
ENDBRANCH   1  14
TORSDOF 6
