REMARK  5 active torsions:
REMARK  status: ('A' for Active; 'I' for Inactive)
REMARK    1  A    between atoms: C_4  and  C_7 
REMARK    2  A    between atoms: C_7  and  C_9 
REMARK    3  A    between atoms: C_10  and  N_19 
REMARK    4  A    between atoms: C_11  and  C_15 
REMARK    5  A    between atoms: C_15  and  C_16 
REMARK       I    between atoms: C_16  and  N_18 
ROOT
HETATM    1  C   UNK N   1       3.931  -0.809  -0.030  0.00  0.00     0.042 A 
HETATM    2  C   UNK N   1       5.139  -0.062   0.081  0.00  0.00     0.046 A 
HETATM    3  C   UNK N   1       6.387  -0.729   0.077  0.00  0.00    -0.022 A 
HETATM    4  C   UNK N   1       6.420  -2.122  -0.041  0.00  0.00     0.010 A 
HETATM    5  C   UNK N   1       5.247  -2.856  -0.145  0.00  0.00     0.002 A 
HETATM    6  C   UNK N   1       4.022  -2.203  -0.140  0.00  0.00     0.018 A 
ENDROOT
BRANCH   1   7
HETATM    7  C   UNK N   1       2.574  -0.147  -0.041  0.00  0.00     0.194 C 
HETATM    8  O   UNK N   1       2.509   1.073  -0.065  0.00  0.00    -0.287 OA
BRANCH   7   9
HETATM    9  C   UNK N   1       1.285  -0.916  -0.016  0.00  0.00     0.015 A 
HETATM   10  C   UNK N   1       0.064  -0.220  -0.063  0.00  0.00     0.015 A 
HETATM   11  C   UNK N   1      -1.152  -0.910  -0.020  0.00  0.00     0.001 A 
HETATM   12  C   UNK N   1      -1.164  -2.304   0.075  0.00  0.00     0.000 A 
HETATM   13  C   UNK N   1       0.039  -3.007   0.125  0.00  0.00     0.001 A 
HETATM   14  C   UNK N   1       1.251  -2.317   0.081  0.00  0.00     0.015 A 
ENDBRANCH   7   9
ENDBRANCH   1   7
BRANCH   2  15
HETATM   15  N   UNK N   1       5.111   1.346   0.198  0.00  0.00    -0.398 N 
HETATM   16  H   UNK N   1       5.950   1.854   0.280  0.00  0.00     0.156 HD
HETATM   17  H   UNK N   1       4.248   1.821   0.198  0.00  0.00     0.156 HD
ENDBRANCH   2  15
BRANCH   3  18
HETATM   18  C   UNK N   1       7.663   0.080   0.191  0.00  0.00     0.143 C 
BRANCH  18  19
HETATM   19  C   UNK N   1       8.994  -0.612  -0.003  0.00  0.00     0.219 C 
HETATM   20  O   UNK N   1       9.958   0.053  -0.344  0.00  0.00    -0.273 OA
HETATM   21  N   UNK N   1       9.155  -1.930   0.234  0.00  0.00    -0.370 N 
HETATM   22  H   UNK N   1       8.380  -2.513   0.406  0.00  0.00     0.159 HD
HETATM   23  H   UNK N   1      10.061  -2.316   0.234  0.00  0.00     0.159 HD
ENDBRANCH  18  19
ENDBRANCH   3  18
TORSDOF 5
