REMARK  9 active torsions:
REMARK  status: ('A' for Active; 'I' for Inactive)
REMARK    1  A    between atoms: C_21  and  C_5 
REMARK    2  A    between atoms: C_19  and  C_16 
REMARK    3  A    between atoms: C_22  and  C_16 
REMARK    4  A    between atoms: C_18  and  C_17 
REMARK    5  A    between atoms: N_23  and  C_17 
REMARK    6  A    between atoms: C_22  and  C_18 
REMARK    7  A    between atoms: C_22  and  C_20 
REMARK    8  A    between atoms: O_25  and  C_21 
REMARK    9  A    between atoms: C_22  and  O_25 
ROOT
HETATM    1  C   UNK N   1       0.061   0.795  -0.018  0.00  0.00     0.106 C 
ENDROOT
BRANCH   1   2
HETATM    2  C   UNK N   1       0.842   0.180  -1.218  0.00  0.00     0.082 C 
BRANCH   2   3
HETATM    3  C   UNK N   1       1.588  -1.083  -0.912  0.00  0.00    -0.055 A 
HETATM    4  C   UNK N   1       2.635  -1.102   0.018  0.00  0.00     0.007 A 
HETATM    5  C   UNK N   1       3.269  -2.308   0.331  0.00  0.00     0.001 A 
HETATM    6  C   UNK N   1       2.859  -3.495  -0.284  0.00  0.00     0.000 A 
HETATM    7  C   UNK N   1       1.821  -3.476  -1.219  0.00  0.00     0.001 A 
HETATM    8  C   UNK N   1       1.186  -2.272  -1.531  0.00  0.00     0.007 A 
ENDBRANCH   2   3
ENDBRANCH   1   2
BRANCH   1   9
HETATM    9  C   UNK N   1      -0.739  -0.364   0.709  0.00  0.00     0.050 C 
HETATM   10  C   UNK N   1       0.069  -0.975   1.847  0.00  0.00     0.015 C 
BRANCH   9  11
HETATM   11  C   UNK N   1      -2.134  -0.031   1.269  0.00  0.00     0.279 C 
BRANCH  11  12
HETATM   12  N   UNK N   1      -3.174  -0.183   0.246  0.00  0.00     0.080 N 
HETATM   13  C   UNK N   1      -4.413   0.331   0.794  0.00  0.00     0.309 C 
HETATM   14  C   UNK N   1      -3.401  -1.598  -0.018  0.00  0.00     0.309 C 
ENDBRANCH  11  12
ENDBRANCH   9  11
ENDBRANCH   1   9
BRANCH   1  15
HETATM   15  C   UNK N   1      -0.893   1.868  -0.558  0.00  0.00    -0.022 A 
HETATM   16  C   UNK N   1      -1.812   1.582  -1.582  0.00  0.00     0.010 A 
HETATM   17  C   UNK N   1      -2.713   2.561  -2.018  0.00  0.00     0.001 A 
HETATM   18  C   UNK N   1      -2.709   3.832  -1.437  0.00  0.00     0.000 A 
HETATM   19  C   UNK N   1      -1.800   4.132  -0.423  0.00  0.00     0.001 A 
HETATM   20  C   UNK N   1      -0.901   3.158   0.012  0.00  0.00     0.010 A 
ENDBRANCH   1  15
BRANCH   1  21
HETATM   21  O   UNK N   1       0.942   1.412   0.883  0.00  0.00    -0.304 OA
BRANCH  21  22
HETATM   22  C   UNK N   1       1.950   2.272   0.528  0.00  0.00     0.259 C 
HETATM   23  O   UNK N   1       2.517   2.161  -0.550  0.00  0.00    -0.265 OA
BRANCH  22  24
HETATM   24  C   UNK N   1       2.333   3.384   1.460  0.00  0.00     0.106 C 
HETATM   25  C   UNK N   1       3.320   4.355   0.823  0.00  0.00     0.015 C 
ENDBRANCH  22  24
ENDBRANCH  21  22
ENDBRANCH   1  21
TORSDOF 9
