REMARK  7 active torsions:
REMARK  status: ('A' for Active; 'I' for Inactive)
REMARK    1  A    between atoms: C_3  and  C_23 
REMARK    2  A    between atoms: C_4  and  C_14 
REMARK    3  A    between atoms: C_5  and  C_10 
REMARK    4  A    between atoms: C_10  and  O_12 
REMARK    5  A    between atoms: C_16  and  N_20 
REMARK    6  A    between atoms: C_23  and  O_25 
REMARK    7  A    between atoms: O_25  and  C_26 
ROOT
HETATM    1  C   UNK N   1      -0.054   1.064   0.091  0.00  0.00     0.069 C 
HETATM    2  C   UNK N   1      -0.027  -0.400   0.420  0.00  0.00     0.019 C 
HETATM    3  C   UNK N   1       1.100  -1.147   0.328  0.00  0.00     0.052 C 
HETATM    4  C   UNK N   1       1.013  -2.642   0.752  0.00  0.00     0.102 C 
HETATM    5  C   UNK N   1      -0.318  -3.264   0.335  0.00  0.00     0.068 C 
HETATM    6  C   UNK N   1      -1.397  -2.447   0.276  0.00  0.00     0.127 C 
HETATM    7  N   UNK N   1      -1.272  -1.060   0.590  0.00  0.00    -0.350 N 
HETATM    8  C   UNK N   1      -2.674  -2.921  -0.192  0.00  0.00     0.118 C 
HETATM    9  N   UNK N   1      -3.708  -3.278  -0.566  0.00  0.00    -0.190 NA
HETATM   10  H   UNK N   1      -2.051  -0.560   0.926  0.00  0.00     0.166 HD
ENDROOT
BRANCH   5  11
HETATM   11  C   UNK N   1      -0.428  -4.724   0.003  0.00  0.00     0.292 C 
HETATM   12  O   UNK N   1      -1.195  -5.103  -0.871  0.00  0.00    -0.259 OA
BRANCH  11  13
HETATM   13  O   UNK N   1       0.363  -5.619   0.647  0.00  0.00    -0.323 OA
HETATM   14  C   UNK N   1       0.579  -6.895   0.179  0.00  0.00     0.213 C 
ENDBRANCH  11  13
ENDBRANCH   5  11
BRANCH   4  15
HETATM   15  C   UNK N   1       2.283  -3.427   0.446  0.00  0.00    -0.042 C 
HETATM   16  C   UNK N   1       3.505  -2.949   0.915  0.00  0.00     0.044 C 
HETATM   17  C   UNK N   1       4.696  -3.433   0.362  0.00  0.00     0.103 C 
HETATM   18  C   UNK N   1       4.673  -4.539  -0.495  0.00  0.00     0.036 C 
HETATM   19  C   UNK N   1       3.466  -5.071  -0.904  0.00  0.00     0.003 C 
HETATM   20  C   UNK N   1       2.296  -4.441  -0.521  0.00  0.00     0.008 C 
BRANCH  17  21
HETATM   21  N   UNK N   1       5.825  -2.579   0.334  0.00  0.00    -0.116 N 
HETATM   22  O   UNK N   1       6.726  -2.837  -0.406  0.00  0.00    -0.532 OA
HETATM   23  O   UNK N   1       5.684  -1.336   0.743  0.00  0.00    -0.532 OA
ENDBRANCH  17  21
ENDBRANCH   4  15
BRANCH   3  24
HETATM   24  C   UNK N   1       2.363  -0.542  -0.223  0.00  0.00     0.292 C 
HETATM   25  O   UNK N   1       3.097  -1.212  -0.939  0.00  0.00    -0.259 OA
BRANCH  24  26
HETATM   26  O   UNK N   1       2.684   0.748   0.029  0.00  0.00    -0.313 OA
BRANCH  26  27
HETATM   27  C   UNK N   1       3.981   1.189  -0.126  0.00  0.00     0.124 C 
HETATM   28  C   UNK N   1       4.066   2.331  -1.118  0.00  0.00     0.040 C 
HETATM   29  C   UNK N   1       4.557   1.587   1.222  0.00  0.00     0.040 C 
ENDBRANCH  26  27
ENDBRANCH  24  26
ENDBRANCH   3  24
TORSDOF 7
