REMARK  2 active torsions:
REMARK  status: ('A' for Active; 'I' for Inactive)
REMARK    1  A    between atoms: O_2  and  N_3 
REMARK    2  A    between atoms: C_5  and  C_16 
ROOT
HETATM    1  O   UNK N   1       9.741   1.164  -1.687  0.00  0.00    -0.377 OA
HETATM    2  N   UNK N   1       0.717  -2.168  -0.122  0.00  0.00    -0.273 N 
ATOM      3  HN  UNK N   1       0.523  -3.093  -0.505  1.00  0.00     0.193 HD
HETATM    4  C   UNK N   1       8.047   0.843   0.008  0.00  0.00     0.006 C 
HETATM    5  C   UNK N   1       7.840  -0.650  -0.432  0.00  0.00     0.002 C 
HETATM    6  C   UNK N   1       6.997  -1.549   0.541  0.00  0.00    -0.005 C 
HETATM    7  C   UNK N   1       5.730  -0.824   1.066  0.00  0.00    -0.002 C 
HETATM    8  C   UNK N   1       9.555   1.047  -0.299  0.00  0.00     0.128 C 
HETATM    9  C   UNK N   1       7.610   0.954   1.483  0.00  0.00     0.014 C 
HETATM   10  C   UNK N   1       9.246  -1.276  -0.474  0.00  0.00     0.010 C 
HETATM   11  C   UNK N   1       6.097   0.599   1.579  0.00  0.00     0.006 C 
HETATM   12  C   UNK N   1       4.635  -0.967  -0.022  0.00  0.00     0.019 C 
HETATM   13  C   UNK N   1      10.186  -0.248   0.128  0.00  0.00     0.052 C 
HETATM   14  C   UNK N   1       6.724  -2.891  -0.187  0.00  0.00     0.010 C 
HETATM   15  C   UNK N   1       5.332  -3.498  -0.006  0.00  0.00     0.035 C 
HETATM   16  C   UNK N   1       4.250  -2.456  -0.001  0.00  0.00    -0.073 C 
HETATM   17  C   UNK N   1       3.436   0.002   0.090  0.00  0.00     0.015 C 
HETATM   18  C   UNK N   1      10.208   2.206   0.324  0.00  0.00    -0.078 C 
HETATM   19  C   UNK N   1       2.256  -0.553   0.865  0.00  0.00     0.059 C 
HETATM   20  C   UNK N   1       2.980  -2.868   0.121  0.00  0.00     0.030 C 
HETATM   21  C   UNK N   1       1.905  -1.888   0.280  0.00  0.00     0.032 C 
HETATM   22  C   UNK N   1      10.803   3.139   0.804  0.00  0.00     0.015 C 
HETATM   23  H   UNK N   1       9.875   1.093  -2.645  0.00  0.00     0.211 HD
ENDROOT
BRANCH   4  24
HETATM   24  C   UNK N   1       7.318   1.947  -0.809  0.00  0.00     0.009 C 
HETATM   25  C   UNK N   1       5.823   1.832  -1.011  0.00  0.00     0.006 C 
ENDBRANCH   4  24
BRANCH   2  26
HETATM   26  O   UNK N   1      -0.254  -1.282  -0.050  0.00  0.00    -0.290 OA
HETATM   27  H   UNK N   1      -0.054  -0.368   0.001  0.00  0.00     0.244 HD
ENDBRANCH   2  26
TORSDOF 2
