REMARK  11 active torsions:
REMARK  status: ('A' for Active; 'I' for Inactive)
REMARK    1  A    between atoms: S_1  and  N_7 
REMARK    2  A    between atoms: S_1  and  C_21 
REMARK    3  A    between atoms: O_4  and  C_27 
REMARK    4  A    between atoms: O_4  and  C_35 
REMARK    5  A    between atoms: N_7  and  C_19 
REMARK    6  A    between atoms: C_14  and  C_18 
REMARK    7  A    between atoms: C_18  and  C_19 
REMARK    8  A    between atoms: C_23  and  C_26 
REMARK    9  A    between atoms: C_28  and  C_31 
REMARK   10  A    between atoms: C_31  and  C_33 
REMARK   11  A    between atoms: C_35  and  C_37 
ROOT
HETATM    1  C   UNK N   1       5.804   0.031  -0.051  0.00  0.00     0.080 A 
HETATM    2  C   UNK N   1       7.038  -0.644  -0.016  0.00  0.00     0.043 A 
HETATM    3  C   UNK N   1       8.258   0.012  -0.062  0.00  0.00     0.043 A 
HETATM    4  C   UNK N   1       5.824   1.430  -0.129  0.00  0.00     0.028 A 
HETATM    5  C   UNK N   1       8.275   1.424  -0.137  0.00  0.00     0.082 A 
HETATM    6  C   UNK N   1       7.045   2.119  -0.168  0.00  0.00     0.039 A 
ENDROOT
BRANCH   3   7
HETATM    7  C   UNK N   1       9.450  -0.861  -0.045  0.00  0.00     0.121 A 
HETATM    8  N   UNK N   1      10.721  -0.362  -0.164  0.00  0.00    -0.338 N 
HETATM    9  C   UNK N   1      11.750  -1.247  -0.179  0.00  0.00     0.092 A 
HETATM   10  H   UNK N   1      10.882   0.607  -0.237  0.00  0.00     0.167 HD
HETATM   11  C   UNK N   1      13.108  -1.056  -0.296  0.00  0.00     0.055 A 
HETATM   12  C   UNK N   1      11.572  -2.587  -0.080  0.00  0.00     0.147 A 
HETATM   13  N   UNK N   1      13.715  -2.269  -0.267  0.00  0.00    -0.300 N 
HETATM   14  N   UNK N   1      12.769  -3.195  -0.134  0.00  0.00    -0.289 N 
ATOM     15  HN  UNK N   1      14.718  -2.441  -0.335  1.00  0.00     0.187 HD
HETATM   16  C   UNK N   1      13.031  -4.623  -0.070  0.00  0.00     0.178 C 
HETATM   17  C   UNK N   1      10.298  -3.106   0.046  0.00  0.00     0.277 A 
HETATM   18  O   UNK N   1      10.097  -4.303   0.138  0.00  0.00    -0.265 OA
HETATM   19  N   UNK N   1       9.253  -2.221   0.058  0.00  0.00    -0.307 N 
ATOM     20  HN  UNK N   1       8.302  -2.579   0.147  1.00  0.00     0.170 HD
BRANCH  11  21
HETATM   21  C   UNK N   1      13.825   0.241  -0.447  0.00  0.00     0.061 C 
BRANCH  21  22
HETATM   22  C   UNK N   1      13.587   1.116   0.767  0.00  0.00     0.002 C 
HETATM   23  C   UNK N   1      14.201   2.478   0.530  0.00  0.00     0.005 C 
ENDBRANCH  21  22
ENDBRANCH  11  21
ENDBRANCH   3   7
BRANCH   5  24
HETATM   24  O   UNK N   1       9.454   2.095  -0.178  0.00  0.00    -0.350 OA
BRANCH  24  25
HETATM   25  C   UNK N   1       9.534   3.469  -0.252  0.00  0.00     0.175 C 
BRANCH  25  26
HETATM   26  C   UNK N   1      10.985   3.894  -0.306  0.00  0.00     0.022 C 
HETATM   27  C   UNK N   1      11.065   5.398  -0.472  0.00  0.00     0.007 C 
ENDBRANCH  25  26
ENDBRANCH  24  25
ENDBRANCH   5  24
BRANCH   1  28
HETATM   28  S   UNK N   1       4.179  -0.847   0.020  0.00  0.00     0.258 S 
HETATM   29  O   UNK N   1       4.876  -0.901   1.391  0.00  0.00    -0.201 OA
HETATM   30  O   UNK N   1       4.981  -1.808  -0.875  0.00  0.00    -0.201 OA
BRANCH  28  31
HETATM   31  N   UNK N   1       3.837  -2.421   0.764  0.00  0.00    -0.315 N 
HETATM   32  H   UNK N   1       4.485  -2.941   1.355  0.00  0.00     0.172 HD
BRANCH  31  33
HETATM   33  C   UNK N   1       2.495  -2.864   0.410  0.00  0.00     0.134 C 
BRANCH  33  34
HETATM   34  C   UNK N   1       1.444  -2.049   1.143  0.00  0.00     0.056 C 
BRANCH  34  35
HETATM   35  C   UNK N   1       1.029  -0.899   0.244  0.00  0.00     0.224 C 
HETATM   36  N   UNK N   1      -0.388  -0.921  -0.052  0.00  0.00     0.088 N 
HETATM   37  C   UNK N   1      -0.655   0.429  -0.529  0.00  0.00     0.272 C 
HETATM   38  C   UNK N   1      -0.607  -1.836  -1.160  0.00  0.00     0.310 C 
HETATM   39  C   UNK N   1       0.399   1.351   0.076  0.00  0.00     0.032 C 
HETATM   40  C   UNK N   1       1.298   0.440   0.874  0.00  0.00     0.037 C 
ENDBRANCH  34  35
ENDBRANCH  33  34
ENDBRANCH  31  33
ENDBRANCH  28  31
ENDBRANCH   1  28
TORSDOF 11
