REMARK  1 active torsions:
REMARK  status: ('A' for Active; 'I' for Inactive)
REMARK    1  A    between atoms: C_3  and  C_4 
ROOT
HETATM    1  C   UNK N   1      -0.310  -2.067   0.020  0.00  0.00     0.006 A 
HETATM    2  C   UNK N   1      -0.346  -0.540  -0.018  0.00  0.00     0.017 A 
HETATM    3  C   UNK N   1       0.992   0.192   0.005  0.00  0.00     0.086 A 
HETATM    4  C   UNK N   1       2.290  -0.571   0.002  0.00  0.00    -0.041 A 
HETATM    5  C   UNK N   1       3.514   0.116   0.003  0.00  0.00     0.008 A 
HETATM    6  C   UNK N   1       4.724  -0.576   0.001  0.00  0.00     0.001 A 
HETATM    7  C   UNK N   1       4.725  -1.968  -0.001  0.00  0.00     0.001 A 
HETATM    8  C   UNK N   1       3.514  -2.664  -0.003  0.00  0.00     0.007 A 
HETATM    9  C   UNK N   1       2.294  -1.977  -0.002  0.00  0.00    -0.051 A 
HETATM   10  C   UNK N   1       1.038  -2.792  -0.008  0.00  0.00     0.039 A 
ENDROOT
BRANCH   3  11
HETATM   11  C   UNK N   1       0.954   1.701   0.001  0.00  0.00     0.081 A 
HETATM   12  N   UNK N   1      -0.130   2.366  -0.000  0.00  0.00    -0.378 N 
HETATM   13  C   UNK N   1       0.129   3.787  -0.001  0.00  0.00     0.140 A 
ATOM     14  HN  UNK N   1      -1.061   1.950  -0.001  1.00  0.00     0.160 HD
HETATM   15  C   UNK N   1       1.675   3.889  -0.000  0.00  0.00     0.140 A 
HETATM   16  N   UNK N   1       2.085   2.514   0.001  0.00  0.00    -0.378 N 
HETATM   17  H   UNK N   1       3.017   2.196   0.002  0.00  0.00     0.160 HD
ENDBRANCH   3  11
TORSDOF 1
