REMARK  6 active torsions:
REMARK  status: ('A' for Active; 'I' for Inactive)
REMARK    1  A    between atoms: C_2  and  C_7 
REMARK    2  A    between atoms: C_7  and  N_8 
REMARK       I    between atoms: N_8  and  C_9 
REMARK    3  A    between atoms: C_9  and  C_11 
REMARK    4  A    between atoms: C_11  and  C_12 
REMARK    5  A    between atoms: C_11  and  N_15 
REMARK    6  A    between atoms: C_12  and  O_13 
REMARK       I    between atoms: N_15  and  C_16 
ROOT
HETATM    1  N   UNK N   1       5.764   2.493   0.113  0.00  0.00    -0.355 N 
HETATM    2  C   UNK N   1       4.443   2.775  -0.028  0.00  0.00     0.242 C 
HETATM    3  O   UNK N   1       4.113   3.915  -0.325  0.00  0.00    -0.271 OA
HETATM    4  H   UNK N   1       6.422   3.212  -0.024  0.00  0.00     0.162 HD
ENDROOT
BRANCH   2   5
HETATM    5  C   UNK N   1       3.375   1.712   0.175  0.00  0.00     0.200 C 
BRANCH   5   6
HETATM    6  C   UNK N   1       3.610   0.542  -0.782  0.00  0.00     0.202 C 
BRANCH   6   7
HETATM    7  O   UNK N   1       3.270  -0.663  -0.161  0.00  0.00    -0.393 OA
HETATM    8  C   UNK N   1       4.435  -1.430  -0.199  0.00  0.00     0.201 C 
ENDBRANCH   6   7
ENDBRANCH   5   6
BRANCH   5   9
HETATM    9  N   UNK N   1       2.054   2.277  -0.043  0.00  0.00    -0.346 N 
HETATM   10  C   UNK N   1       0.893   1.601   0.147  0.00  0.00     0.214 C 
HETATM   11  O   UNK N   1       0.893   0.446   0.544  0.00  0.00    -0.274 OA
HETATM   12  C   UNK N   1      -0.403   2.277  -0.134  0.00  0.00     0.117 C 
HETATM   13  H   UNK N   1       1.998   3.211  -0.349  0.00  0.00     0.163 HD
ENDBRANCH   5   9
ENDBRANCH   2   5
BRANCH   1  14
HETATM   14  C   UNK N   1       6.234   1.170   0.457  0.00  0.00     0.161 C 
BRANCH  14  15
HETATM   15  C   UNK N   1       7.704   0.994   0.239  0.00  0.00    -0.041 A 
HETATM   16  C   UNK N   1       8.564   2.084   0.037  0.00  0.00     0.009 A 
HETATM   17  C   UNK N   1       9.933   1.869  -0.159  0.00  0.00     0.001 A 
HETATM   18  C   UNK N   1      10.444   0.568  -0.159  0.00  0.00     0.000 A 
HETATM   19  C   UNK N   1       9.589  -0.519   0.038  0.00  0.00     0.001 A 
HETATM   20  C   UNK N   1       8.223  -0.305   0.240  0.00  0.00     0.009 A 
ENDBRANCH  14  15
ENDBRANCH   1  14
TORSDOF 6
