REMARK  6 active torsions:
REMARK  status: ('A' for Active; 'I' for Inactive)
REMARK    1  A    between atoms: O_1  and  C_8 
REMARK    2  A    between atoms: C_8  and  C_9 
REMARK    3  A    between atoms: C_8  and  C_10 
REMARK    4  A    between atoms: C_8  and  C_11 
REMARK    5  A    between atoms: C_9  and  C_12 
REMARK    6  A    between atoms: C_10  and  C_13 
ROOT
HETATM    1 Ga   UNK N   1       5.606   4.172   0.033  0.00  0.00     0.000 Ga
HETATM    2  H   UNK N   1       7.075   4.172   0.033  0.00  0.00     0.000 HD
HETATM    3  H   UNK N   1       4.871   5.444   0.033  0.00  0.00     0.000 HD
HETATM    4  H   UNK N   1       4.871   2.900   0.033  0.00  0.00     0.000 HD
ENDROOT
TORSDOF 6
