REMARK  7 active torsions:
REMARK  status: ('A' for Active; 'I' for Inactive)
REMARK    1  A    between atoms: C_18  and  O_2 
REMARK    2  A    between atoms: C_20  and  O_3 
REMARK    3  A    between atoms: O_4  and  C_22 
REMARK    4  A    between atoms: C_19  and  N_6 
REMARK       I    between atoms: N_13  and  C_27 
REMARK    5  A    between atoms: N_14  and  C_26 
REMARK       I    between atoms: N_17  and  C_31 
REMARK    6  A    between atoms: C_21  and  C_22 
REMARK    7  A    between atoms: C_29  and  C_31 
ROOT
HETATM    1  N   UNK N   1       7.780  -0.818  -0.278  0.00  0.00    -0.297 N 
HETATM    2  N   UNK N   1       7.960  -3.044   0.030  0.00  0.00    -0.346 N 
ATOM      3  HN  UNK N   1       8.352  -3.976   0.168  1.00  0.00     0.167 HD
HETATM    4  N   UNK N   1       5.398  -0.747  -0.336  0.00  0.00    -0.172 N 
ATOM      5  HN  UNK N   1       5.372   0.261  -0.494  1.00  0.00     0.186 HD
HETATM    6  N   UNK N   1       4.279  -2.811  -0.044  0.00  0.00    -0.173 N 
ATOM      7  HN  UNK N   1       3.410  -3.339   0.033  1.00  0.00     0.186 HD
HETATM    8  N   UNK N   1       3.029  -0.692  -0.207  0.00  0.00    -0.097 N 
HETATM    9  N   UNK N   1       1.803  -1.121   0.033  0.00  0.00    -0.290 N 
ATOM     10  HN  UNK N   1       1.519  -2.094   0.146  1.00  0.00     0.187 HD
HETATM   11  C   UNK N   1       6.570  -1.375  -0.233  0.00  0.00     0.157 A 
HETATM   12  C   UNK N   1       8.637  -1.862  -0.120  0.00  0.00     0.188 A 
HETATM   13  C   UNK N   1       6.660  -2.696  -0.046  0.00  0.00     0.123 A 
HETATM   14  C   UNK N   1       5.492  -3.462   0.037  0.00  0.00     0.145 A 
HETATM   15  C   UNK N   1       4.243  -1.445  -0.230  0.00  0.00     0.706 A 
HETATM   16  C   UNK N   1       3.045   0.646  -0.299  0.00  0.00     0.153 A 
HETATM   17  C   UNK N   1       1.775   1.093  -0.106  0.00  0.00     0.067 A 
HETATM   18  C   UNK N   1       0.990  -0.036   0.101  0.00  0.00     0.126 A 
ENDROOT
BRANCH   1  19
HETATM   19  C   UNK N   1       8.100   0.604  -0.528  0.00  0.00     0.262 C 
HETATM   20  O   UNK N   1       9.349   0.965   0.023  0.00  0.00    -0.353 OA
HETATM   21  C   UNK N   1       9.215   2.312   0.447  0.00  0.00     0.179 C 
HETATM   22  C   UNK N   1       7.871   2.818  -0.003  0.00  0.00     0.182 C 
HETATM   23  C   UNK N   1       7.070   1.581   0.028  0.00  0.00     0.198 C 
BRANCH  21  24
HETATM   24  C   UNK N   1      10.273   3.190  -0.196  0.00  0.00     0.198 C 
BRANCH  24  25
HETATM   25  O   UNK N   1      11.543   2.785   0.207  0.00  0.00    -0.398 OA
HETATM   26  H   UNK N   1      11.741   1.878   0.488  0.00  0.00     0.209 HD
ENDBRANCH  24  25
ENDBRANCH  21  24
BRANCH  22  27
HETATM   27  O   UNK N   1       7.357   3.784   0.864  0.00  0.00    -0.390 OA
HETATM   28  H   UNK N   1       7.759   4.429   1.467  0.00  0.00     0.210 HD
ENDBRANCH  22  27
BRANCH  23  29
HETATM   29  O   UNK N   1       5.983   1.739  -0.833  0.00  0.00    -0.388 OA
HETATM   30  H   UNK N   1       5.700   2.448  -1.432  0.00  0.00     0.210 HD
ENDBRANCH  23  29
ENDBRANCH   1  19
BRANCH  14  31
HETATM   31  N   UNK N   1       5.546  -4.859   0.222  0.00  0.00    -0.383 N 
HETATM   32  H   UNK N   1       4.721  -5.379   0.351  0.00  0.00     0.157 HD
HETATM   33  H   UNK N   1       6.417  -5.318   0.222  0.00  0.00     0.157 HD
ENDBRANCH  14  31
BRANCH  17  34
HETATM   34  C   UNK N   1       1.427   2.523  -0.065  0.00  0.00     0.254 C 
HETATM   35  O   UNK N   1       2.296   3.356  -0.292  0.00  0.00    -0.268 OA
HETATM   36  N   UNK N   1       0.175   2.919   0.259  0.00  0.00    -0.361 N 
HETATM   37  C   UNK N   1      -0.164   4.317   0.355  0.00  0.00     0.149 C 
HETATM   38  H   UNK N   1      -0.516   2.240   0.434  0.00  0.00     0.162 HD
ENDBRANCH  17  34
TORSDOF 7
