REMARK  3 active torsions:
REMARK  status: ('A' for Active; 'I' for Inactive)
REMARK    1  A    between atoms: N_2  and  C_3 
REMARK    2  A    between atoms: C_3  and  C_4 
REMARK    3  A    between atoms: C_4  and  C_5 
ROOT
HETATM    1  C   UNK N   1       1.035   1.193  -0.000  0.00  0.00     0.010 A 
HETATM    2  C   UNK N   1       2.234   0.475  -0.000  0.00  0.00     0.025 A 
HETATM    3  C   UNK N   1       2.194  -0.921  -0.000  0.00  0.00     0.003 A 
HETATM    4  C   UNK N   1       0.965  -1.581   0.000  0.00  0.00     0.017 A 
HETATM    5  C   UNK N   1      -0.212  -0.833   0.000  0.00  0.00     0.088 A 
HETATM    6  N   UNK N   1      -0.154   0.526  -0.000  0.00  0.00    -0.369 N 
ATOM      7  HN  UNK N   1      -1.023   1.060  -0.000  1.00  0.00     0.165 HD
ENDROOT
BRANCH   1   8
HETATM    8  C   UNK N   1       1.073   2.692  -0.000  0.00  0.00     0.076 C 
BRANCH   8   9
HETATM    9  C   UNK N   1      -0.328   3.281   0.000  0.00  0.00     0.119 C 
BRANCH   9  10
HETATM   10  N   UNK N   1      -0.270   4.728  -0.000  0.00  0.00    -0.425 N 
HETATM   11  C   UNK N   1      -1.649   5.181  -0.000  0.00  0.00     0.139 C 
HETATM   12  H   UNK N   1       0.568   5.310  -0.000  0.00  0.00     0.152 HD
ENDBRANCH   9  10
ENDBRANCH   8   9
ENDBRANCH   1   8
TORSDOF 3
