REMARK  5 active torsions:
REMARK  status: ('A' for Active; 'I' for Inactive)
REMARK    1  A    between atoms: O_4  and  C_34 
REMARK    2  A    between atoms: N_5  and  C_20 
REMARK    3  A    between atoms: N_6  and  C_21 
REMARK    4  A    between atoms: N_7  and  C_28 
REMARK       I    between atoms: N_10  and  C_29 
REMARK    5  A    between atoms: C_23  and  C_29 
ROOT
HETATM    1  O   UNK N   1       6.799   0.620   0.078  0.00  0.00    -0.265 OA
HETATM    2  N   UNK N   1       5.625  -1.290   0.013  0.00  0.00    -0.312 N 
HETATM    3  N   UNK N   1       9.389  -0.738   0.004  0.00  0.00    -0.250 N 
HETATM    4  N   UNK N   1      10.245  -1.752  -0.003  0.00  0.00    -0.287 N 
ATOM      5  HN  UNK N   1      11.262  -1.672  -0.008  1.00  0.00     0.188 HD
HETATM    6  C   UNK N   1       6.988  -3.505   0.008  0.00  0.00     0.064 A 
HETATM    7  C   UNK N   1       5.615  -2.762  -0.009  0.00  0.00     0.137 A 
HETATM    8  C   UNK N   1       8.190  -2.612   0.004  0.00  0.00     0.011 A 
HETATM    9  C   UNK N   1       8.117  -1.259   0.012  0.00  0.00     0.133 A 
HETATM   10  C   UNK N   1       6.816  -0.586   0.032  0.00  0.00     0.277 A 
HETATM   11  C   UNK N   1       9.544  -2.909  -0.003  0.00  0.00     0.125 A 
ENDROOT
BRANCH   2  12
HETATM   12  C   UNK N   1       4.357  -0.567   0.008  0.00  0.00     0.037 A 
HETATM   13  C   UNK N   1       4.360   0.831  -0.025  0.00  0.00     0.032 A 
HETATM   14  C   UNK N   1       3.224   1.586  -0.029  0.00  0.00     0.032 A 
HETATM   15  C   UNK N   1       1.971   1.001  -0.002  0.00  0.00     0.037 A 
HETATM   16  C   UNK N   1       1.907  -0.420   0.028  0.00  0.00     0.032 A 
HETATM   17  C   UNK N   1       3.096  -1.202   0.032  0.00  0.00     0.032 A 
BRANCH  15  18
HETATM   18  N   UNK N   1       0.790   1.836  -0.000  0.00  0.00    -0.318 N 
HETATM   19  C   UNK N   1      -0.508   1.173   0.059  0.00  0.00     0.132 C 
HETATM   20  C   UNK N   1      -1.667   2.063  -0.374  0.00  0.00     0.021 C 
HETATM   21  C   UNK N   1      -1.606   3.357   0.398  0.00  0.00     0.011 C 
HETATM   22  C   UNK N   1      -0.351   4.104   0.004  0.00  0.00     0.103 C 
HETATM   23  C   UNK N   1       0.871   3.227  -0.041  0.00  0.00     0.224 C 
HETATM   24  O   UNK N   1       1.948   3.799  -0.124  0.00  0.00    -0.273 OA
ENDBRANCH  15  18
ENDBRANCH   2  12
BRANCH   3  25
HETATM   25  C   UNK N   1       9.857   0.649  -0.002  0.00  0.00     0.057 A 
HETATM   26  C   UNK N   1       8.974   1.730  -0.029  0.00  0.00     0.034 A 
HETATM   27  C   UNK N   1       9.396   3.050  -0.030  0.00  0.00     0.039 A 
HETATM   28  C   UNK N   1      10.749   3.341  -0.009  0.00  0.00     0.068 A 
HETATM   29  C   UNK N   1      11.679   2.279   0.012  0.00  0.00     0.039 A 
HETATM   30  C   UNK N   1      11.233   0.942   0.015  0.00  0.00     0.034 A 
BRANCH  28  31
HETATM   31  O   UNK N   1      11.125   4.641  -0.010  0.00  0.00    -0.356 OA
HETATM   32  C   UNK N   1      12.435   5.052   0.009  0.00  0.00     0.210 C 
ENDBRANCH  28  31
ENDBRANCH   3  25
BRANCH  11  33
HETATM   33  C   UNK N   1      10.179  -4.240  -0.007  0.00  0.00     0.268 C 
HETATM   34  O   UNK N   1       9.496  -5.251  -0.005  0.00  0.00    -0.266 OA
HETATM   35  N   UNK N   1      11.523  -4.344  -0.010  0.00  0.00    -0.365 N 
HETATM   36  H   UNK N   1      11.948  -5.232  -0.012  0.00  0.00     0.159 HD
HETATM   37  H   UNK N   1      12.080  -3.532  -0.010  0.00  0.00     0.159 HD
ENDBRANCH  11  33
TORSDOF 5
