REMARK  4 active torsions:
REMARK  status: ('A' for Active; 'I' for Inactive)
REMARK    1  A    between atoms: C_3  and  N_11 
REMARK    2  A    between atoms: C_6  and  N_7 
REMARK       I    between atoms: N_11  and  C_12 
REMARK    3  A    between atoms: C_12  and  C_14 
REMARK    4  A    between atoms: C_15  and  O_21 
ROOT
HETATM    1  N   UNK N   1       1.470  -5.137   0.000  0.00  0.00    -0.321 N 
HETATM    2  C   UNK N   1       2.597  -5.904   0.000  0.00  0.00     0.259 C 
HETATM    3  O   UNK N   1       3.706  -5.391   0.000  0.00  0.00    -0.267 OA
HETATM    4  H   UNK N   1       0.608  -5.613   0.000  0.00  0.00     0.169 HD
ENDROOT
BRANCH   1   5
HETATM    5  C   UNK N   1       1.422  -3.717   0.000  0.00  0.00     0.057 A 
HETATM    6  C   UNK N   1       2.594  -2.951  -0.000  0.00  0.00     0.034 A 
HETATM    7  C   UNK N   1       2.535  -1.563  -0.000  0.00  0.00     0.038 A 
HETATM    8  C   UNK N   1       1.299  -0.911  -0.000  0.00  0.00     0.104 A 
HETATM    9  C   UNK N   1       0.117  -1.670   0.000  0.00  0.00     0.062 A 
HETATM   10  C   UNK N   1       0.175  -3.067   0.000  0.00  0.00     0.063 A 
HETATM   11 Cl   UNK N   1      -1.323  -3.988   0.000  0.00  0.00    -0.082 Cl
BRANCH   8  12
HETATM   12  N   UNK N   1       1.254   0.508  -0.000  0.00  0.00    -0.116 N 
HETATM   13  O   UNK N   1       0.207   1.080   0.000  0.00  0.00    -0.532 OA
HETATM   14  O   UNK N   1       2.373   1.203  -0.000  0.00  0.00    -0.532 OA
ENDBRANCH   8  12
ENDBRANCH   1   5
BRANCH   2  15
HETATM   15  C   UNK N   1       2.455  -7.374   0.000  0.00  0.00     0.067 A 
HETATM   16  C   UNK N   1       3.566  -8.249   0.000  0.00  0.00     0.081 A 
HETATM   17  C   UNK N   1       3.359  -9.632  -0.000  0.00  0.00     0.039 A 
HETATM   18  C   UNK N   1       2.061 -10.152  -0.000  0.00  0.00     0.026 A 
HETATM   19  C   UNK N   1       0.964  -9.289  -0.000  0.00  0.00     0.035 A 
HETATM   20  C   UNK N   1       1.163  -7.913   0.000  0.00  0.00     0.043 A 
HETATM   21 Cl   UNK N   1      -0.666  -9.922  -0.000  0.00  0.00    -0.084 Cl
BRANCH  16  22
HETATM   22  O   UNK N   1       4.825  -7.776   0.000  0.00  0.00    -0.360 OA
HETATM   23  H   UNK N   1       5.549  -8.370   0.000  0.00  0.00     0.217 HD
ENDBRANCH  16  22
ENDBRANCH   2  15
TORSDOF 4
