REMARK  6 active torsions:
REMARK  status: ('A' for Active; 'I' for Inactive)
REMARK    1  A    between atoms: C_15  and  C_9 
REMARK    2  A    between atoms: C_19  and  C_12 
REMARK    3  A    between atoms: S_31  and  C_16 
REMARK    4  A    between atoms: C_22  and  C_18 
REMARK    5  A    between atoms: S_31  and  C_21 
REMARK    6  A    between atoms: O_30  and  C_22 
ROOT
HETATM    1  C   UNK N   1       4.595   1.059   0.597  0.00  0.00     0.020 A 
HETATM    2  C   UNK N   1       3.426   1.755   0.247  0.00  0.00     0.017 A 
HETATM    3  C   UNK N   1       3.385  -1.067   0.519  0.00  0.00     0.050 A 
HETATM    4  C   UNK N   1       4.584  -0.349   0.741  0.00  0.00     0.007 A 
HETATM    5  C   UNK N   1       2.270   1.010   0.051  0.00  0.00     0.020 A 
HETATM    6  C   UNK N   1       0.972   1.375  -0.193  0.00  0.00     0.060 A 
HETATM    7  C   UNK N   1       2.250  -0.344   0.159  0.00  0.00     0.061 A 
HETATM    8  N   UNK N   1       0.211   0.257  -0.251  0.00  0.00    -0.299 N 
HETATM    9  N   UNK N   1       0.999  -0.800  -0.040  0.00  0.00    -0.299 N 
ATOM     10  HN  UNK N   1       0.706  -1.777  -0.030  1.00  0.00     0.187 HD
HETATM   11  H   UNK N   1      -0.759   0.228  -0.420  0.00  0.00     0.187 HD
ENDROOT
BRANCH   4  12
HETATM   12  S   UNK N   1       6.051  -1.137   1.443  0.00  0.00    -0.090 SA
BRANCH  12  13
HETATM   13  C   UNK N   1       6.107  -2.676   0.501  0.00  0.00     0.020 A 
HETATM   14  C   UNK N   1       4.987  -3.515   0.583  0.00  0.00     0.020 A 
HETATM   15  C   UNK N   1       4.996  -4.791   0.028  0.00  0.00     0.001 A 
HETATM   16  C   UNK N   1       6.151  -5.272  -0.576  0.00  0.00     0.001 A 
HETATM   17  C   UNK N   1       7.288  -4.470  -0.642  0.00  0.00     0.017 A 
HETATM   18  C   UNK N   1       7.293  -3.159  -0.136  0.00  0.00     0.032 A 
BRANCH  18  19
HETATM   19  C   UNK N   1       8.600  -2.427  -0.230  0.00  0.00     0.147 C 
HETATM   20  N   UNK N   1       8.724  -1.170  -0.513  0.00  0.00    -0.375 N 
HETATM   21  C   UNK N   1       7.648  -0.287  -0.876  0.00  0.00     0.148 C 
ATOM     22  HN  UNK N   1       9.663  -0.773  -0.476  1.00  0.00     0.161 HD
BRANCH  19  23
HETATM   23  O   UNK N   1       9.729  -3.152  -0.099  0.00  0.00    -0.346 OA
HETATM   24  H   UNK N   1       9.685  -4.084  -0.008  0.00  0.00     0.219 HD
ENDBRANCH  19  23
ENDBRANCH  18  19
ENDBRANCH  12  13
ENDBRANCH   4  12
BRANCH   6  25
HETATM   25  C   UNK N   1       0.489   2.766  -0.244  0.00  0.00     0.034 C 
HETATM   26  C   UNK N   1      -0.814   3.087  -0.258  0.00  0.00     0.032 C 
BRANCH  26  27
HETATM   27  C   UNK N   1      -1.243   4.502  -0.182  0.00  0.00     0.031 A 
HETATM   28  C   UNK N   1      -2.604   4.817  -0.113  0.00  0.00     0.029 A 
HETATM   29  C   UNK N   1      -2.993   6.153   0.010  0.00  0.00     0.004 A 
HETATM   30  C   UNK N   1      -2.026   7.157   0.067  0.00  0.00     0.017 A 
HETATM   31  C   UNK N   1      -0.677   6.809  -0.004  0.00  0.00     0.088 A 
HETATM   32  N   UNK N   1      -0.317   5.503  -0.122  0.00  0.00    -0.366 N 
ATOM     33  HN  UNK N   1       0.674   5.265  -0.167  1.00  0.00     0.165 HD
ENDBRANCH  26  27
ENDBRANCH   6  25
TORSDOF 6
