REMARK  4 active torsions:
REMARK  status: ('A' for Active; 'I' for Inactive)
REMARK    1  A    between atoms: O_3  and  C_27 
REMARK    2  A    between atoms: O_4  and  C_28 
REMARK    3  A    between atoms: C_25  and  C_27 
REMARK    4  A    between atoms: C_26  and  C_28 
ROOT
HETATM    1  C   UNK N   1       3.960   8.280   0.007  0.00  0.00     0.088 C 
HETATM    2  C   UNK N   1       2.620   8.139   0.013  0.00  0.00     0.088 C 
ENDROOT
BRANCH   1   3
HETATM    3  C   UNK N   1       4.784   9.510  -0.003  0.00  0.00     0.165 C 
HETATM    4  O   UNK N   1       4.284  10.621   0.001  0.00  0.00    -0.647 OA
BRANCH   3   5
HETATM    5  O   UNK N   1       6.124   9.392  -0.014  0.00  0.00    -0.773 OA
HETATM    6  H   UNK N   1       6.519   8.543  -0.021  0.00  0.00     0.167 HD
ENDBRANCH   3   5
ENDBRANCH   1   3
BRANCH   2   7
HETATM    7  C   UNK N   1       1.546   9.159   0.007  0.00  0.00     0.165 C 
HETATM    8  O   UNK N   1       1.788  10.352  -0.021  0.00  0.00    -0.647 OA
BRANCH   7   9
HETATM    9  O   UNK N   1       0.264   8.750   0.028  0.00  0.00    -0.773 OA
HETATM   10  H   UNK N   1      -0.429   9.381   0.043  0.00  0.00     0.167 HD
ENDBRANCH   7   9
ENDBRANCH   2   7
TORSDOF 4
