REMARK  9 active torsions:
REMARK  status: ('A' for Active; 'I' for Inactive)
REMARK    1  A    between atoms: C_3  and  C_1 
REMARK    2  A    between atoms: N_7  and  C_1 
REMARK    3  A    between atoms: C_4  and  C_2 
REMARK    4  A    between atoms: N_8  and  C_2 
REMARK    5  A    between atoms: N_9  and  C_3 
REMARK    6  A    between atoms: N_10  and  C_4 
REMARK    7  A    between atoms: C_6  and  C_5 
REMARK    8  A    between atoms: N_9  and  C_5 
REMARK    9  A    between atoms: N_10  and  C_6 
ROOT
HETATM    1  C   UNK N   1       3.649   1.194   0.000  0.00  0.00     0.133 C 
ENDROOT
BRANCH   1   2
HETATM    2  C   UNK N   1       4.873   2.076   0.000  0.00  0.00     0.133 C 
BRANCH   2   3
HETATM    3  N   UNK N   1       6.061   1.248   0.000  0.00  0.00    -0.418 N 
HETATM    4  H   UNK N   1       6.099   0.229   0.000  0.00  0.00     0.153 HD
BRANCH   3   5
HETATM    5  C   UNK N   1       7.184   2.162  -0.000  0.00  0.00     0.133 C 
BRANCH   5   6
HETATM    6  C   UNK N   1       8.476   1.380  -0.000  0.00  0.00     0.130 C 
BRANCH   6   7
HETATM    7  N   UNK N   1       9.591   2.307   0.000  0.00  0.00    -0.429 N 
HETATM    8  H   UNK N   1      10.548   1.954   0.000  0.00  0.00     0.149 HD
HETATM    9  H   UNK N   1       9.418   3.313   0.000  0.00  0.00     0.149 HD
ENDBRANCH   6   7
ENDBRANCH   5   6
ENDBRANCH   3   5
ENDBRANCH   2   3
ENDBRANCH   1   2
BRANCH   1  10
HETATM   10  N   UNK N   1       2.462   2.022   0.000  0.00  0.00    -0.418 N 
HETATM   11  H   UNK N   1       2.424   3.042   0.000  0.00  0.00     0.153 HD
BRANCH  10  12
HETATM   12  C   UNK N   1       1.339   1.108  -0.000  0.00  0.00     0.133 C 
BRANCH  12  13
HETATM   13  C   UNK N   1       0.046   1.890  -0.000  0.00  0.00     0.130 C 
BRANCH  13  14
HETATM   14  N   UNK N   1      -1.068   0.963   0.000  0.00  0.00    -0.429 N 
HETATM   15  H   UNK N   1      -2.025   1.316   0.000  0.00  0.00     0.149 HD
HETATM   16  H   UNK N   1      -0.896  -0.042   0.000  0.00  0.00     0.149 HD
ENDBRANCH  13  14
ENDBRANCH  12  13
ENDBRANCH  10  12
ENDBRANCH   1  10
TORSDOF 9
