REMARK  13 active torsions:
REMARK  status: ('A' for Active; 'I' for Inactive)
REMARK    1  A    between atoms: C_3  and  C_24 
REMARK    2  A    between atoms: C_4  and  S_14 
REMARK    3  A    between atoms: C_7  and  N_9 
REMARK       I    between atoms: N_9  and  C_10 
REMARK    4  A    between atoms: C_10  and  C_13 
REMARK    5  A    between atoms: C_13  and  C_15 
REMARK    6  A    between atoms: S_14  and  C_35 
REMARK    7  A    between atoms: C_19  and  N_27 
REMARK    8  A    between atoms: N_22  and  O_28 
REMARK    9  A    between atoms: N_27  and  P_31 
REMARK   10  A    between atoms: O_28  and  C_29 
REMARK   11  A    between atoms: P_31  and  O_32 
REMARK   12  A    between atoms: P_31  and  O_33 
REMARK   13  A    between atoms: C_38  and  C_41 
ROOT
HETATM    1  C   UNK N   1       0.808  -0.633  -1.272  0.00  0.00     0.187 C 
HETATM    2  N   UNK N   1       0.757  -2.038  -1.056  0.00  0.00    -0.292 N 
HETATM    3  C   UNK N   1       1.813  -2.984  -1.061  0.00  0.00     0.129 C 
HETATM    4  C   UNK N   1       3.011  -2.545  -0.596  0.00  0.00     0.028 C 
HETATM    5  C   UNK N   1       3.010  -1.256   0.217  0.00  0.00     0.124 C 
HETATM    6  S   UNK N   1       2.121   0.227  -0.365  0.00  0.00    -0.135 SA
HETATM    7  C   UNK N   1      -0.711  -0.582  -0.703  0.00  0.00     0.211 C 
HETATM    8  C   UNK N   1      -0.498  -2.060  -0.745  0.00  0.00     0.251 C 
HETATM    9  O   UNK N   1      -1.158  -3.005  -0.345  0.00  0.00    -0.271 OA
ENDROOT
BRANCH   7  10
HETATM   10  N   UNK N   1      -0.723  -0.313   0.717  0.00  0.00    -0.339 N 
HETATM   11  C   UNK N   1      -1.749   0.304   1.335  0.00  0.00     0.274 C 
HETATM   12  O   UNK N   1      -1.840   0.234   2.552  0.00  0.00    -0.266 OA
HETATM   13  H   UNK N   1       0.052  -0.592   1.255  0.00  0.00     0.163 HD
BRANCH  11  14
HETATM   14  C   UNK N   1      -2.780   1.026   0.572  0.00  0.00     0.166 C 
HETATM   15  N   UNK N   1      -2.503   2.109  -0.093  0.00  0.00    -0.258 N 
ATOM     16  HN  UNK N   1      -3.241   2.521  -0.663  1.00  0.00     0.194 HD
BRANCH  14  17
HETATM   17  C   UNK N   1      -4.096   0.404   0.386  0.00  0.00     0.148 A 
HETATM   18  N   UNK N   1      -5.134   1.077  -0.204  0.00  0.00    -0.307 N 
HETATM   19  S   UNK N   1      -6.291  -0.068  -0.376  0.00  0.00     0.024 SA
ATOM     20  HN  UNK N   1      -5.175   2.061  -0.473  1.00  0.00     0.176 HD
HETATM   21  C   UNK N   1      -5.517  -1.357   0.252  0.00  0.00     0.171 A 
HETATM   22  N   UNK N   1      -4.288  -0.953   0.645  0.00  0.00    -0.319 N 
ATOM     23  HN  UNK N   1      -3.592  -1.561   1.075  1.00  0.00     0.169 HD
BRANCH  21  24
HETATM   24  N   UNK N   1      -5.932  -2.709   0.219  0.00  0.00    -0.278 N 
HETATM   25  H   UNK N   1      -5.359  -3.400   0.624  0.00  0.00     0.173 HD
BRANCH  24  26
HETATM   26  P   UNK N   1      -7.473  -3.186  -0.543  0.00  0.00     0.349 P 
HETATM   27  O   UNK N   1      -7.522  -4.736  -0.541  0.00  0.00    -0.637 OA
BRANCH  26  28
HETATM   28  O   UNK N   1      -8.814  -2.592   0.383  0.00  0.00    -0.313 OA
HETATM   29  H   UNK N   1      -8.902  -1.777   0.900  0.00  0.00     0.221 HD
ENDBRANCH  26  28
BRANCH  26  30
HETATM   30  O   UNK N   1      -7.522  -2.647  -2.194  0.00  0.00    -0.313 OA
HETATM   31  H   UNK N   1      -7.275  -2.472  -3.115  0.00  0.00     0.221 HD
ENDBRANCH  26  30
ENDBRANCH  24  26
ENDBRANCH  21  24
ENDBRANCH  14  17
BRANCH  15  32
HETATM   32  O   UNK N   1      -1.322   2.714  -0.077  0.00  0.00    -0.280 OA
BRANCH  32  33
HETATM   33  C   UNK N   1      -0.588   2.921   1.071  0.00  0.00     0.196 C 
HETATM   34  C   UNK N   1       0.752   3.527   0.711  0.00  0.00     0.036 C 
ENDBRANCH  32  33
ENDBRANCH  15  32
ENDBRANCH  11  14
ENDBRANCH   7  10
BRANCH   3  35
HETATM   35  C   UNK N   1       1.549  -4.386  -1.506  0.00  0.00     0.228 C 
HETATM   36  O   UNK N   1       2.485  -5.347  -1.397  0.00  0.00    -0.643 OA
HETATM   37  O   UNK N   1       0.438  -4.694  -1.906  0.00  0.00    -0.643 OA
ENDBRANCH   3  35
BRANCH   4  38
HETATM   38  S   UNK N   1       4.533  -3.565  -0.635  0.00  0.00    -0.066 SA
BRANCH  38  39
HETATM   39  C   UNK N   1       5.708  -2.373   0.035  0.00  0.00     0.117 A 
HETATM   40  S   UNK N   1       6.999  -2.704   1.003  0.00  0.00    -0.074 SA
HETATM   41  C   UNK N   1       7.517  -1.139   1.251  0.00  0.00     0.082 A 
HETATM   42  C   UNK N   1       6.594  -0.345   0.536  0.00  0.00     0.050 A 
HETATM   43  N   UNK N   1       5.623  -1.040  -0.140  0.00  0.00    -0.344 N 
ATOM     44  HN  UNK N   1       4.910  -0.593  -0.717  1.00  0.00     0.167 HD
BRANCH  42  45
HETATM   45  C   UNK N   1       6.614   1.124   0.479  0.00  0.00    -0.006 A 
HETATM   46  C   UNK N   1       7.720   1.863   0.907  0.00  0.00     0.031 A 
HETATM   47  C   UNK N   1       7.712   3.253   0.751  0.00  0.00     0.090 A 
HETATM   48  N   UNK N   1       6.630   3.880   0.209  0.00  0.00    -0.371 N 
HETATM   49  C   UNK N   1       5.532   3.181  -0.179  0.00  0.00     0.090 A 
HETATM   50  C   UNK N   1       6.655   5.317   0.020  0.00  0.00     0.154 C 
HETATM   51  C   UNK N   1       5.509   1.795  -0.059  0.00  0.00     0.031 A 
ENDBRANCH  42  45
ENDBRANCH  38  39
ENDBRANCH   4  38
TORSDOF 13
