REMARK  8 active torsions:
REMARK  status: ('A' for Active; 'I' for Inactive)
REMARK    1  A    between atoms: C_10  and  C_8 
REMARK    2  A    between atoms: C_15  and  C_8 
REMARK    3  A    between atoms: C_14  and  C_9 
REMARK    4  A    between atoms: O_23  and  C_9 
REMARK    5  A    between atoms: N_19  and  C_13 
REMARK    6  A    between atoms: O_21  and  C_14 
REMARK    7  A    between atoms: O_23  and  C_15 
REMARK    8  A    between atoms: N_19  and  C_16 
ROOT
HETATM    1  C   UNK N   1       1.497   5.351   0.449  0.00  0.00     0.001 A 
HETATM    2  C   UNK N   1       0.537   4.480   0.966  0.00  0.00     0.002 A 
HETATM    3  C   UNK N   1       2.572   4.847  -0.283  0.00  0.00     0.010 A 
HETATM    4  C   UNK N   1       0.639   3.105   0.730  0.00  0.00     0.030 A 
HETATM    5  C   UNK N   1       2.679   3.471  -0.523  0.00  0.00    -0.022 A 
HETATM    6  C   UNK N   1       1.693   2.591  -0.041  0.00  0.00     0.039 A 
ENDROOT
BRANCH   6   7
HETATM    7  N   UNK N   1       1.837   1.195  -0.284  0.00  0.00    -0.353 N 
HETATM    8  H   UNK N   1       2.724   0.915  -0.607  0.00  0.00     0.166 HD
BRANCH   7   9
HETATM    9  C   UNK N   1       0.887   0.139  -0.130  0.00  0.00     0.076 A 
HETATM   10  C   UNK N   1       1.377  -1.128   0.249  0.00  0.00     0.062 A 
HETATM   11  C   UNK N   1       0.511  -2.213   0.395  0.00  0.00     0.026 A 
HETATM   12 Cl   UNK N   1       3.093  -1.379   0.540  0.00  0.00    -0.082 Cl
HETATM   13  C   UNK N   1      -0.851  -2.060   0.158  0.00  0.00     0.003 A 
HETATM   14  C   UNK N   1      -1.351  -0.826  -0.249  0.00  0.00     0.026 A 
HETATM   15  C   UNK N   1      -0.505   0.278  -0.402  0.00  0.00     0.062 A 
HETATM   16 Cl   UNK N   1      -1.244   1.740  -1.036  0.00  0.00    -0.082 Cl
ENDBRANCH   7   9
ENDBRANCH   6   7
BRANCH   5  17
HETATM   17  C   UNK N   1       3.860   2.937  -1.271  0.00  0.00     0.151 C 
BRANCH  17  18
HETATM   18  C   UNK N   1       5.091   3.045  -0.427  0.00  0.00     0.263 C 
HETATM   19  O   UNK N   1       5.544   4.146  -0.147  0.00  0.00    -0.265 OA
BRANCH  18  20
HETATM   20  O   UNK N   1       5.682   1.915   0.029  0.00  0.00    -0.311 OA
BRANCH  20  21
HETATM   21  C   UNK N   1       6.770   1.950   0.870  0.00  0.00     0.288 C 
BRANCH  21  22
HETATM   22  C   UNK N   1       7.964   1.404   0.167  0.00  0.00     0.165 C 
HETATM   23  O   UNK N   1       8.934   2.117  -0.024  0.00  0.00    -0.648 OA
BRANCH  22  24
HETATM   24  O   UNK N   1       7.971   0.129  -0.264  0.00  0.00    -0.775 OA
HETATM   25  H   UNK N   1       7.205  -0.319  -0.564  0.00  0.00     0.167 HD
ENDBRANCH  22  24
ENDBRANCH  21  22
ENDBRANCH  20  21
ENDBRANCH  18  20
ENDBRANCH  17  18
ENDBRANCH   5  17
TORSDOF 8
