REMARK  6 active torsions:
REMARK  status: ('A' for Active; 'I' for Inactive)
REMARK    1  A    between atoms: C_22  and  C_16 
REMARK    2  A    between atoms: C_23  and  C_17 
REMARK    3  A    between atoms: C_24  and  C_18 
REMARK    4  A    between atoms: C_25  and  C_19 
REMARK    5  A    between atoms: C_26  and  C_20 
REMARK    6  A    between atoms: C_27  and  C_21 
ROOT
HETATM    1  C   UNK N   1       8.007   1.771  -0.358  0.00  0.00     0.153 C 
HETATM    2  C   UNK N   1       0.426   1.855  -1.083  0.00  0.00     0.153 C 
HETATM    3  C   UNK N   1       1.158  -4.295   0.848  0.00  0.00     0.153 C 
HETATM    4  C   UNK N   1       5.567   1.846   0.305  0.00  0.00     0.190 C 
HETATM    5  C   UNK N   1       2.992  -2.884  -0.196  0.00  0.00     0.190 C 
HETATM    6  C   UNK N   1      -0.615   0.461   0.752  0.00  0.00     0.190 C 
HETATM    7  C   UNK N   1       5.678  -1.350  -0.205  0.00  0.00     0.227 C 
HETATM    8  C   UNK N   1       2.582   2.711   0.702  0.00  0.00     0.227 C 
HETATM    9  C   UNK N   1      -0.900  -2.444  -0.161  0.00  0.00     0.227 C 
HETATM   10  C   UNK N   1       6.791  -0.300  -0.422  0.00  0.00     0.250 C 
HETATM   11  C   UNK N   1       1.459   1.774   1.127  0.00  0.00     0.250 C 
HETATM   12  C   UNK N   1       0.602  -2.341  -0.506  0.00  0.00     0.250 C 
HETATM   13  C   UNK N   1       4.406   1.747  -0.697  0.00  0.00     0.283 C 
HETATM   14  C   UNK N   1       3.364  -1.596   0.586  0.00  0.00     0.283 C 
HETATM   15  C   UNK N   1      -1.494  -0.056  -0.397  0.00  0.00     0.283 C 
HETATM   16  N   UNK N   1       6.749   1.063  -0.156  0.00  0.00    -0.340 N 
HETATM   17  N   UNK N   1       0.427   1.406   0.294  0.00  0.00    -0.340 N 
HETATM   18  N   UNK N   1       1.555  -3.186   0.013  0.00  0.00    -0.340 N 
HETATM   19  O   UNK N   1       7.830  -0.748  -0.895  0.00  0.00    -0.270 OA
HETATM   20  O   UNK N   1       1.535   1.294   2.248  0.00  0.00    -0.270 OA
HETATM   21  O   UNK N   1       0.958  -1.425  -1.236  0.00  0.00    -0.270 OA
HETATM   22  O   UNK N   1       4.609   1.195  -1.767  0.00  0.00    -0.263 OA
HETATM   23  O   UNK N   1       2.540  -1.141   1.361  0.00  0.00    -0.263 OA
HETATM   24  O   UNK N   1      -2.167   0.741  -1.033  0.00  0.00    -0.263 OA
HETATM   25  O   UNK N   1       3.155   2.251  -0.475  0.00  0.00    -0.304 OA
HETATM   26  O   UNK N   1       4.539  -0.897   0.429  0.00  0.00    -0.304 OA
HETATM   27  O   UNK N   1      -1.589  -1.378  -0.723  0.00  0.00    -0.304 OA
ENDROOT
BRANCH   4  28
HETATM   28  C   UNK N   1       5.979   3.360   0.473  0.00  0.00     0.010 C 
HETATM   29  C   UNK N   1       5.143   4.264   1.350  0.00  0.00     0.012 C 
HETATM   30  C   UNK N   1       6.251   4.069  -0.853  0.00  0.00     0.012 C 
ENDBRANCH   4  28
BRANCH   8  31
HETATM   31  C   UNK N   1       2.157   4.198   0.573  0.00  0.00     0.016 C 
HETATM   32  C   UNK N   1       1.316   4.561  -0.637  0.00  0.00     0.012 C 
HETATM   33  C   UNK N   1       1.492   4.723   1.837  0.00  0.00     0.012 C 
ENDBRANCH   8  31
BRANCH   7  34
HETATM   34  C   UNK N   1       6.249  -2.533   0.616  0.00  0.00     0.016 C 
HETATM   35  C   UNK N   1       6.732  -2.138   2.001  0.00  0.00     0.012 C 
HETATM   36  C   UNK N   1       7.298  -3.359  -0.115  0.00  0.00     0.012 C 
ENDBRANCH   7  34
BRANCH   6  37
HETATM   37  C   UNK N   1      -1.561   1.069   1.821  0.00  0.00     0.010 C 
HETATM   38  C   UNK N   1      -0.977   1.217   3.214  0.00  0.00     0.012 C 
HETATM   39  C   UNK N   1      -2.200   2.378   1.389  0.00  0.00     0.012 C 
ENDBRANCH   6  37
BRANCH   5  40
HETATM   40  C   UNK N   1       3.921  -4.083   0.135  0.00  0.00     0.010 C 
HETATM   41  C   UNK N   1       3.662  -5.291  -0.754  0.00  0.00     0.012 C 
HETATM   42  C   UNK N   1       3.949  -4.495   1.602  0.00  0.00     0.012 C 
ENDBRANCH   5  40
BRANCH   9  43
HETATM   43  C   UNK N   1      -1.636  -3.715  -0.633  0.00  0.00     0.016 C 
HETATM   44  C   UNK N   1      -1.555  -4.934   0.268  0.00  0.00     0.012 C 
HETATM   45  C   UNK N   1      -1.419  -4.064  -2.092  0.00  0.00     0.012 C 
ENDBRANCH   9  43
TORSDOF 6
