REMARK  7 active torsions:
REMARK  status: ('A' for Active; 'I' for Inactive)
REMARK    1  A    between atoms: C_17  and  C_14 
REMARK    2  A    between atoms: N_25  and  C_14 
REMARK    3  A    between atoms: C_20  and  C_15 
REMARK    4  A    between atoms: N_25  and  C_15 
REMARK    5  A    between atoms: C_21  and  C_16 
REMARK    6  A    between atoms: N_23  and  C_19 
REMARK       I    between atoms: N_26  and  C_20 
REMARK    7  A    between atoms: O_28  and  C_21 
ROOT
HETATM    1  C   UNK N   1      -5.672   0.218  -0.373  0.00  0.00     0.004 A 
HETATM    2  C   UNK N   1      -4.584  -0.541   0.059  0.00  0.00     0.024 A 
HETATM    3  C   UNK N   1      -5.606   1.611  -0.345  0.00  0.00     0.030 A 
HETATM    4  C   UNK N   1      -3.343   1.491   0.535  0.00  0.00     0.018 A 
HETATM    5  C   UNK N   1      -3.423   0.085   0.516  0.00  0.00     0.044 A 
HETATM    6  C   UNK N   1      -4.448   2.262   0.111  0.00  0.00     0.043 A 
HETATM    7 Cl   UNK N   1      -2.088  -0.917   1.065  0.00  0.00    -0.084 Cl
ENDROOT
BRANCH   4   8
HETATM    8  C   UNK N   1      -2.096   2.187   1.042  0.00  0.00     0.315 C 
BRANCH   8   9
HETATM    9  N   UNK N   1      -1.116   2.566   0.010  0.00  0.00     0.097 N 
HETATM   10  C   UNK N   1      -1.723   2.986  -1.248  0.00  0.00     0.310 C 
BRANCH   9  11
HETATM   11  C   UNK N   1      -0.221   1.455  -0.271  0.00  0.00     0.374 C 
BRANCH  11  12
HETATM   12  C   UNK N   1       1.100   1.629   0.432  0.00  0.00     0.248 C 
HETATM   13  N   UNK N   1       1.910   2.706   0.190  0.00  0.00    -0.347 N 
HETATM   14  C   UNK N   1       3.200   2.790   0.868  0.00  0.00     0.152 C 
HETATM   15  C   UNK N   1       1.461   3.759  -0.722  0.00  0.00     0.152 C 
HETATM   16  C   UNK N   1       4.044   3.961   0.369  0.00  0.00     0.187 C 
HETATM   17  O   UNK N   1       3.230   5.086   0.220  0.00  0.00    -0.388 OA
HETATM   18  C   UNK N   1       2.518   4.840  -0.957  0.00  0.00     0.187 C 
HETATM   19  O   UNK N   1       1.459   0.758   1.215  0.00  0.00    -0.271 OA
ENDBRANCH  11  12
ENDBRANCH   9  11
ENDBRANCH   8   9
ENDBRANCH   4   8
BRANCH   6  20
HETATM   20  N   UNK N   1      -4.341   3.686   0.136  0.00  0.00    -0.336 N 
HETATM   21  C   UNK N   1      -5.272   4.553  -0.098  0.00  0.00     0.150 C 
ATOM     22  HN  UNK N   1      -3.422   4.064   0.365  1.00  0.00     0.168 HD
BRANCH  21  23
HETATM   23  C   UNK N   1      -4.933   5.991  -0.073  0.00  0.00     0.015 A 
HETATM   24  C   UNK N   1      -5.918   6.960  -0.309  0.00  0.00     0.016 A 
HETATM   25  C   UNK N   1      -5.585   8.319  -0.301  0.00  0.00     0.001 A 
HETATM   26  C   UNK N   1      -4.267   8.717  -0.060  0.00  0.00     0.000 A 
HETATM   27  C   UNK N   1      -3.280   7.757   0.176  0.00  0.00     0.001 A 
HETATM   28  C   UNK N   1      -3.611   6.400   0.169  0.00  0.00     0.016 A 
ENDBRANCH  21  23
BRANCH  21  29
HETATM   29  O   UNK N   1      -6.539   4.169  -0.366  0.00  0.00    -0.345 OA
HETATM   30  H   UNK N   1      -7.209   4.797  -0.552  0.00  0.00     0.219 HD
ENDBRANCH  21  29
ENDBRANCH   6  20
TORSDOF 7
