REMARK  8 active torsions:
REMARK  status: ('A' for Active; 'I' for Inactive)
REMARK    1  A    between atoms: N_1  and  C_8 
REMARK    2  A    between atoms: C_8  and  C_9 
REMARK    3  A    between atoms: C_10  and  C_15 
REMARK    4  A    between atoms: C_12  and  N_19 
REMARK       I    between atoms: N_19  and  C_20 
REMARK    5  A    between atoms: C_20  and  C_21 
REMARK    6  A    between atoms: C_24  and  C_29 
REMARK    7  A    between atoms: C_29  and  C_30 
REMARK    8  A    between atoms: C_30  and  C_31 
ROOT
HETATM    1  N   UNK N   1      15.652 -19.368  -0.973  0.00  0.00    -0.323 N 
HETATM    2  C   UNK N   1      14.518 -18.886  -1.509  0.00  0.00     0.256 C 
HETATM    3  O   UNK N   1      14.517 -17.805  -2.102  0.00  0.00    -0.267 OA
HETATM    4  H   UNK N   1      15.794 -20.337  -0.876  0.00  0.00     0.169 HD
ENDROOT
BRANCH   2   5
HETATM    5  C   UNK N   1      13.330 -19.317  -0.860  0.00  0.00     0.033 A 
HETATM    6  C   UNK N   1      12.557 -18.308  -0.362  0.00  0.00     0.037 A 
HETATM    7  C   UNK N   1      11.526 -18.563   0.484  0.00  0.00     0.016 A 
HETATM    8  C   UNK N   1      11.214 -19.885   0.846  0.00  0.00    -0.044 A 
HETATM    9  C   UNK N   1      12.030 -20.926   0.377  0.00  0.00     0.009 A 
HETATM   10  C   UNK N   1      10.019 -20.210   1.668  0.00  0.00     0.049 C 
HETATM   11  C   UNK N   1      13.119 -20.635  -0.452  0.00  0.00     0.017 A 
BRANCH   7  12
HETATM   12  C   UNK N   1      10.744 -17.432   0.712  0.00  0.00    -0.114 C 
BRANCH  12  13
HETATM   13  C   UNK N   1      10.250 -16.361   0.818  0.00  0.00     0.089 C 
BRANCH  13  14
HETATM   14  C   UNK N   1       9.115 -15.564   0.679  0.00  0.00     0.081 A 
HETATM   15  C   UNK N   1       8.923 -14.195   0.757  0.00  0.00     0.122 A 
HETATM   16  N   UNK N   1       7.677 -13.931   0.260  0.00  0.00    -0.349 N 
HETATM   17  C   UNK N   1       7.183 -15.138  -0.103  0.00  0.00     0.127 A 
ATOM     18  HN  UNK N   1       7.219 -13.023   0.179  1.00  0.00     0.167 HD
HETATM   19  N   UNK N   1       8.033 -16.115   0.156  0.00  0.00    -0.239 N 
HETATM   20  C   UNK N   1       5.975 -15.422  -0.723  0.00  0.00     0.052 A 
HETATM   21  N   UNK N   1       7.831 -17.399  -0.138  0.00  0.00    -0.303 N 
HETATM   22  C   UNK N   1       6.667 -17.764  -0.731  0.00  0.00     0.108 A 
ATOM     23  HN  UNK N   1       8.541 -18.098   0.079  1.00  0.00     0.186 HD
HETATM   24  C   UNK N   1       5.715 -16.773  -1.038  0.00  0.00     0.022 A 
ENDBRANCH  13  14
ENDBRANCH  12  13
ENDBRANCH   7  12
ENDBRANCH   2   5
BRANCH   1  25
HETATM   25  C   UNK N   1      16.625 -18.452  -0.554  0.00  0.00     0.035 A 
HETATM   26  C   UNK N   1      16.227 -17.170  -0.120  0.00  0.00     0.046 A 
HETATM   27  C   UNK N   1      17.155 -16.165   0.071  0.00  0.00     0.058 A 
HETATM   28  C   UNK N   1      18.506 -16.464  -0.165  0.00  0.00    -0.015 A 
HETATM   29  C   UNK N   1      18.897 -17.771  -0.496  0.00  0.00     0.012 A 
HETATM   30  C   UNK N   1      17.958 -18.771  -0.678  0.00  0.00     0.030 A 
BRANCH  27  31
HETATM   31  C   UNK N   1      16.686 -14.769   0.412  0.00  0.00     0.418 C 
HETATM   32  F   UNK N   1      16.949 -13.937  -0.660  0.00  0.00    -0.166 F 
HETATM   33  F   UNK N   1      15.323 -14.732   0.670  0.00  0.00    -0.166 F 
HETATM   34  F   UNK N   1      17.353 -14.300   1.529  0.00  0.00    -0.166 F 
ENDBRANCH  27  31
BRANCH  28  35
HETATM   35  C   UNK N   1      19.528 -15.379  -0.190  0.00  0.00     0.311 C 
BRANCH  35  36
HETATM   36  N   UNK N   1      20.520 -15.380   0.886  0.00  0.00     0.096 N 
HETATM   37  C   UNK N   1      20.609 -16.597   1.715  0.00  0.00     0.303 C 
HETATM   38  C   UNK N   1      21.467 -17.708   1.090  0.00  0.00     0.302 C 
HETATM   39  N   UNK N   1      21.841 -17.388  -0.282  0.00  0.00     0.087 N 
HETATM   40  C   UNK N   1      22.615 -16.153  -0.267  0.00  0.00     0.302 C 
HETATM   41  C   UNK N   1      22.727 -18.444  -0.735  0.00  0.00     0.310 C 
HETATM   42  C   UNK N   1      21.804 -14.977   0.305  0.00  0.00     0.303 C 
ENDBRANCH  35  36
ENDBRANCH  28  35
ENDBRANCH   1  25
TORSDOF 8
