REMARK  3 active torsions:
REMARK  status: ('A' for Active; 'I' for Inactive)
REMARK       I    between atoms: N_2  and  C_1 
REMARK    1  A    between atoms: C_3  and  C_1 
REMARK    2  A    between atoms: C_4  and  N_2 
REMARK    3  A    between atoms: O_14  and  C_10 
ROOT
HETATM    1  C   UNK N   1       0.093   1.232  -0.065  0.00  0.00     0.036 A 
HETATM    2  C   UNK N   1      -0.453   2.511  -0.290  0.00  0.00     0.032 A 
HETATM    3  C   UNK N   1      -0.796   0.181   0.224  0.00  0.00     0.032 A 
HETATM    4  C   UNK N   1      -2.696   1.651   0.023  0.00  0.00     0.065 A 
HETATM    5  C   UNK N   1      -2.174   0.383   0.264  0.00  0.00     0.039 A 
HETATM    6  C   UNK N   1      -1.837   2.718  -0.251  0.00  0.00     0.039 A 
ENDROOT
BRANCH   1   7
HETATM    7  N   UNK N   1       1.525   1.038  -0.101  0.00  0.00    -0.320 N 
HETATM    8  C   UNK N   1       2.148  -0.191  -0.011  0.00  0.00     0.257 C 
HETATM    9  O   UNK N   1       3.370  -0.245   0.021  0.00  0.00    -0.270 OA
HETATM   10  C   UNK N   1       2.367   2.215  -0.214  0.00  0.00     0.159 C 
BRANCH   8  11
HETATM   11  C   UNK N   1       1.379  -1.495   0.030  0.00  0.00     0.270 C 
HETATM   12 Cl   UNK N   1       2.345  -2.881   0.603  0.00  0.00    -0.098 Cl
HETATM   13 Cl   UNK N   1       0.721  -1.872  -1.588  0.00  0.00    -0.098 Cl
ENDBRANCH   8  11
ENDBRANCH   1   7
BRANCH   4  14
HETATM   14  O   UNK N   1      -4.024   1.843   0.055  0.00  0.00    -0.361 OA
HETATM   15  H   UNK N   1      -4.371   2.713   0.077  0.00  0.00     0.217 HD
ENDBRANCH   4  14
TORSDOF 3
