REMARK  4 active torsions:
REMARK  status: ('A' for Active; 'I' for Inactive)
REMARK    1  A    between atoms: C_14  and  C_9 
REMARK    2  A    between atoms: C_15  and  C_9 
REMARK    3  A    between atoms: N_21  and  C_14 
REMARK    4  A    between atoms: N_22  and  C_15 
ROOT
HETATM    1  C   UNK N   1       8.192   0.686  -1.000  0.00  0.00     0.025 C 
HETATM    2  C   UNK N   1       7.890   0.565   1.454  0.00  0.00     0.025 C 
HETATM    3  C   UNK N   1       4.712   3.026  -0.031  0.00  0.00     0.001 A 
HETATM    4  C   UNK N   1       8.274  -3.479   0.092  0.00  0.00     0.001 A 
HETATM    5  C   UNK N   1       3.522   2.336  -0.247  0.00  0.00     0.002 A 
HETATM    6  C   UNK N   1       7.056  -4.117  -0.124  0.00  0.00     0.002 A 
HETATM    7  C   UNK N   1       5.912   2.325   0.081  0.00  0.00     0.010 A 
HETATM    8  C   UNK N   1       8.329  -2.087   0.163  0.00  0.00     0.010 A 
HETATM    9  C   UNK N   1       3.532   0.945  -0.352  0.00  0.00     0.030 A 
HETATM   10  C   UNK N   1       5.893  -3.363  -0.273  0.00  0.00     0.030 A 
HETATM   11  C   UNK N   1       5.940   0.920  -0.015  0.00  0.00    -0.019 A 
HETATM   12  C   UNK N   1       7.163  -1.310   0.023  0.00  0.00    -0.019 A 
HETATM   13  C   UNK N   1       4.733   0.219  -0.235  0.00  0.00     0.042 A 
HETATM   14  C   UNK N   1       5.929  -1.957  -0.201  0.00  0.00     0.042 A 
HETATM   15  C   UNK N   1       7.268   0.200   0.111  0.00  0.00     0.011 A 
HETATM   16  N   UNK N   1       4.724  -1.207  -0.351  0.00  0.00    -0.346 N 
ENDROOT
BRANCH  16  17
HETATM   17  C   UNK N   1       3.499  -1.902  -0.697  0.00  0.00     0.131 C 
BRANCH  17  18
HETATM   18  C   UNK N   1       2.586  -2.032   0.505  0.00  0.00     0.050 C 
BRANCH  18  19
HETATM   19  C   UNK N   1       1.205  -2.434   0.017  0.00  0.00     0.273 C 
BRANCH  19  20
HETATM   20  N   UNK N   1       0.208  -1.477   0.472  0.00  0.00     0.080 N 
HETATM   21  C   UNK N   1      -1.092  -2.042   0.165  0.00  0.00     0.309 C 
HETATM   22  C   UNK N   1       0.334  -0.268  -0.327  0.00  0.00     0.309 C 
ENDBRANCH  19  20
ENDBRANCH  18  19
ENDBRANCH  17  18
ENDBRANCH  16  17
TORSDOF 4
