REMARK  24 active torsions:
REMARK  status: ('A' for Active; 'I' for Inactive)
REMARK    1  A    between atoms: C_28  and  O_1 
REMARK    2  A    between atoms: C_30  and  O_1 
REMARK    3  A    between atoms: O_3  and  C_26 
REMARK    4  A    between atoms: C_39  and  O_3 
REMARK    5  A    between atoms: O_4  and  C_34 
REMARK    6  A    between atoms: C_35  and  O_4 
REMARK    7  A    between atoms: C_29  and  O_7 
REMARK    8  A    between atoms: C_32  and  O_9 
REMARK    9  A    between atoms: C_33  and  O_10 
REMARK   10  A    between atoms: C_38  and  O_11 
REMARK   11  A    between atoms: C_41  and  O_12 
REMARK   12  A    between atoms: C_42  and  O_13 
REMARK   13  A    between atoms: O_14  and  C_43 
REMARK   14  A    between atoms: C_44  and  O_15 
REMARK   15  A    between atoms: C_45  and  O_16 
REMARK   16  A    between atoms: O_17  and  C_47 
REMARK   17  A    between atoms: O_18  and  C_48 
REMARK   18  A    between atoms: O_21  and  C_50 
REMARK   19  A    between atoms: C_27  and  N_24 
REMARK       I    between atoms: N_24  and  C_49 
REMARK   20  A    between atoms: C_37  and  N_25 
REMARK       I    between atoms: N_25  and  C_51 
REMARK   21  A    between atoms: C_31  and  C_43 
REMARK   22  A    between atoms: C_36  and  C_47 
REMARK   23  A    between atoms: C_40  and  C_48 
REMARK   24  A    between atoms: C_46  and  C_50 
ROOT
HETATM    1  O   UNK N   1      17.780  -5.179   1.266  0.00  0.00    -0.348 OA
ENDROOT
BRANCH   1   2
HETATM    2  C   UNK N   1      16.716  -5.889   0.660  0.00  0.00     0.286 C 
HETATM    3  O   UNK N   1      17.093  -6.960  -0.191  0.00  0.00    -0.349 OA
HETATM    4  C   UNK N   1      15.977  -7.618  -0.785  0.00  0.00     0.179 C 
HETATM    5  C   UNK N   1      14.618  -7.306  -0.138  0.00  0.00     0.180 C 
HETATM    6  C   UNK N   1      14.402  -5.775  -0.090  0.00  0.00     0.183 C 
HETATM    7  C   UNK N   1      15.710  -4.983  -0.050  0.00  0.00     0.171 C 
BRANCH   4   8
HETATM    8  C   UNK N   1      16.228  -9.118  -0.890  0.00  0.00     0.198 C 
BRANCH   8   9
HETATM    9  O   UNK N   1      16.446  -9.678   0.371  0.00  0.00    -0.398 OA
HETATM   10  H   UNK N   1      16.184 -10.004   1.246  0.00  0.00     0.209 HD
ENDBRANCH   8   9
ENDBRANCH   4   8
BRANCH   5  11
HETATM   11  O   UNK N   1      14.576  -7.803   1.169  0.00  0.00    -0.390 OA
HETATM   12  H   UNK N   1      14.263  -7.949   2.075  0.00  0.00     0.210 HD
ENDBRANCH   5  11
BRANCH   6  13
HETATM   13  O   UNK N   1      13.515  -5.321  -1.078  0.00  0.00    -0.348 OA
BRANCH  13  14
HETATM   14  C   UNK N   1      12.286  -5.739  -0.563  0.00  0.00     0.292 C 
HETATM   15  O   UNK N   1      11.923  -6.987  -1.077  0.00  0.00    -0.340 OA
HETATM   16  C   UNK N   1      11.214  -7.564  -0.020  0.00  0.00     0.253 C 
HETATM   17  C   UNK N   1       9.828  -6.903   0.049  0.00  0.00     0.189 C 
HETATM   18  C   UNK N   1      10.039  -5.387   0.273  0.00  0.00     0.183 C 
HETATM   19  C   UNK N   1      11.110  -4.781  -0.657  0.00  0.00     0.204 C 
BRANCH  16  20
HETATM   20  C   UNK N   1      11.210  -9.052  -0.155  0.00  0.00     0.172 C 
HETATM   21  O   UNK N   1      11.759  -9.734   0.695  0.00  0.00    -0.648 OA
BRANCH  20  22
HETATM   22  O   UNK N   1      10.645  -9.640  -1.226  0.00  0.00    -0.774 OA
HETATM   23  H   UNK N   1      10.094  -9.504  -1.971  0.00  0.00     0.167 HD
ENDBRANCH  20  22
ENDBRANCH  16  20
BRANCH  17  24
HETATM   24  O   UNK N   1       9.101  -7.432   1.117  0.00  0.00    -0.390 OA
HETATM   25  H   UNK N   1       8.530  -7.177   1.859  0.00  0.00     0.210 HD
ENDBRANCH  17  24
BRANCH  18  26
HETATM   26  O   UNK N   1       8.833  -4.696   0.162  0.00  0.00    -0.390 OA
HETATM   27  H   UNK N   1       8.831  -3.729   0.084  0.00  0.00     0.210 HD
ENDBRANCH  18  26
BRANCH  19  28
HETATM   28  O   UNK N   1      11.478  -3.522  -0.181  0.00  0.00    -0.388 OA
HETATM   29  H   UNK N   1      12.364  -3.306   0.149  0.00  0.00     0.210 HD
ENDBRANCH  19  28
ENDBRANCH  13  14
ENDBRANCH   6  13
BRANCH   7  30
HETATM   30  N   UNK N   1      15.510  -3.731   0.639  0.00  0.00    -0.349 N 
HETATM   31  C   UNK N   1      15.736  -2.545   0.029  0.00  0.00     0.214 C 
HETATM   32  O   UNK N   1      16.114  -2.505  -1.137  0.00  0.00    -0.274 OA
HETATM   33  C   UNK N   1      15.534  -1.276   0.776  0.00  0.00     0.117 C 
HETATM   34  H   UNK N   1      15.202  -3.741   1.574  0.00  0.00     0.163 HD
ENDBRANCH   7  30
ENDBRANCH   1   2
BRANCH   1  35
HETATM   35  C   UNK N   1      19.098  -5.589   0.944  0.00  0.00     0.195 C 
HETATM   36  C   UNK N   1      19.541  -7.055   1.166  0.00  0.00     0.183 C 
HETATM   37  C   UNK N   1      19.606  -7.839  -0.155  0.00  0.00     0.204 C 
HETATM   38  C   UNK N   1      20.214  -6.973  -1.292  0.00  0.00     0.292 C 
HETATM   39  O   UNK N   1      19.481  -5.770  -1.461  0.00  0.00    -0.340 OA
HETATM   40  C   UNK N   1      19.720  -4.982  -0.322  0.00  0.00     0.253 C 
BRANCH  36  41
HETATM   41  O   UNK N   1      18.758  -7.707   2.121  0.00  0.00    -0.390 OA
HETATM   42  H   UNK N   1      18.094  -7.462   2.784  0.00  0.00     0.210 HD
ENDBRANCH  36  41
BRANCH  37  43
HETATM   43  O   UNK N   1      20.273  -9.056  -0.010  0.00  0.00    -0.388 OA
HETATM   44  H   UNK N   1      19.772  -9.880   0.091  0.00  0.00     0.210 HD
ENDBRANCH  37  43
BRANCH  38  45
HETATM   45  O   UNK N   1      21.628  -6.769  -1.356  0.00  0.00    -0.348 OA
BRANCH  45  46
HETATM   46  C   UNK N   1      22.232  -6.825  -0.083  0.00  0.00     0.183 C 
HETATM   47  C   UNK N   1      23.507  -7.684  -0.151  0.00  0.00     0.171 C 
HETATM   48  C   UNK N   1      24.743  -6.880   0.236  0.00  0.00     0.282 C 
HETATM   49  O   UNK N   1      24.684  -5.641  -0.415  0.00  0.00    -0.349 OA
HETATM   50  C   UNK N   1      23.868  -4.864   0.420  0.00  0.00     0.179 C 
HETATM   51  C   UNK N   1      22.438  -5.408   0.508  0.00  0.00     0.180 C 
BRANCH  47  52
HETATM   52  N   UNK N   1      23.373  -8.851   0.685  0.00  0.00    -0.349 N 
HETATM   53  C   UNK N   1      23.671 -10.095   0.239  0.00  0.00     0.214 C 
HETATM   54  O   UNK N   1      23.503 -11.054   0.974  0.00  0.00    -0.274 OA
HETATM   55  C   UNK N   1      24.232 -10.316  -1.131  0.00  0.00     0.117 C 
HETATM   56  H   UNK N   1      23.054  -8.740   1.610  0.00  0.00     0.163 HD
ENDBRANCH  47  52
BRANCH  48  57
HETATM   57  O   UNK N   1      25.908  -7.559  -0.116  0.00  0.00    -0.369 OA
HETATM   58  H   UNK N   1      25.904  -8.498  -0.361  0.00  0.00     0.212 HD
ENDBRANCH  48  57
BRANCH  50  59
HETATM   59  C   UNK N   1      23.831  -3.416  -0.034  0.00  0.00     0.198 C 
BRANCH  59  60
HETATM   60  O   UNK N   1      25.085  -2.832   0.134  0.00  0.00    -0.398 OA
HETATM   61  H   UNK N   1      25.873  -3.385   0.250  0.00  0.00     0.209 HD
ENDBRANCH  59  60
ENDBRANCH  50  59
BRANCH  51  62
HETATM   62  O   UNK N   1      22.038  -5.384   1.844  0.00  0.00    -0.390 OA
HETATM   63  H   UNK N   1      21.913  -5.135   2.773  0.00  0.00     0.210 HD
ENDBRANCH  51  62
ENDBRANCH  45  46
ENDBRANCH  38  45
BRANCH  40  64
HETATM   64  C   UNK N   1      19.514  -3.515  -0.560  0.00  0.00     0.172 C 
HETATM   65  O   UNK N   1      18.821  -2.849   0.191  0.00  0.00    -0.648 OA
BRANCH  64  66
HETATM   66  O   UNK N   1      20.154  -2.915  -1.581  0.00  0.00    -0.774 OA
HETATM   67  H   UNK N   1      20.738  -3.092  -2.292  0.00  0.00     0.167 HD
ENDBRANCH  64  66
ENDBRANCH  40  64
ENDBRANCH   1  35
TORSDOF 24
