REMARK  1 active torsions:
REMARK  status: ('A' for Active; 'I' for Inactive)
REMARK    1  A    between atoms: C_5  and  O_8 
ROOT
HETATM    1  N   UNK N   1       5.439  -3.367  -0.000  0.00  0.00    -0.362 N 
HETATM    2  C   UNK N   1       4.244  -2.714   0.000  0.00  0.00     0.094 A 
HETATM    3  C   UNK N   1       4.197  -1.321   0.000  0.00  0.00     0.075 A 
HETATM    4  C   UNK N   1       6.623  -2.675  -0.000  0.00  0.00     0.044 A 
HETATM    5  C   UNK N   1       6.611  -1.269  -0.000  0.00  0.00     0.138 A 
HETATM    6  C   UNK N   1       5.385  -0.596   0.000  0.00  0.00     0.208 A 
HETATM    7  O   UNK N   1       5.350   0.622   0.000  0.00  0.00    -0.285 OA
HETATM    8  C   UNK N   1       7.938  -3.395  -0.000  0.00  0.00     0.071 C 
HETATM    9  C   UNK N   1       5.414  -4.823  -0.000  0.00  0.00     0.155 C 
ENDROOT
BRANCH   5  10
HETATM   10  O   UNK N   1       7.764  -0.574  -0.000  0.00  0.00    -0.355 OA
HETATM   11  H   UNK N   1       8.584  -1.027  -0.000  0.00  0.00     0.218 HD
ENDBRANCH   5  10
TORSDOF 1
