REMARK  9 active torsions:
REMARK  status: ('A' for Active; 'I' for Inactive)
REMARK    1  A    between atoms: C_2  and  C_3 
REMARK    2  A    between atoms: C_2  and  N_11 
REMARK    3  A    between atoms: C_3  and  O_4 
REMARK    4  A    between atoms: O_4  and  C_5 
REMARK    5  A    between atoms: N_11  and  C_12 
REMARK    6  A    between atoms: C_12  and  C_14 
REMARK    7  A    between atoms: C_14  and  O_15 
REMARK    8  A    between atoms: C_14  and  C_16 
REMARK    9  A    between atoms: C_19  and  O_20 
ROOT
HETATM    1  C   UNK N   1       0.394  -0.347  -0.559  0.00  0.00     0.106 C 
HETATM    2  C   UNK N   1       0.808  -0.852  -1.937  0.00  0.00     0.035 C 
ENDROOT
BRANCH   1   3
HETATM    3  N   UNK N   1      -0.048  -1.445   0.290  0.00  0.00    -0.409 N 
HETATM    4  H   UNK N   1       0.518  -1.932   0.985  0.00  0.00     0.154 HD
BRANCH   3   5
HETATM    5  C   UNK N   1      -1.445  -1.726  -0.029  0.00  0.00     0.097 C 
HETATM    6  C   UNK N   1      -1.697  -3.211   0.111  0.00  0.00     0.034 C 
BRANCH   5   7
HETATM    7  C   UNK N   1      -2.377  -0.982   0.920  0.00  0.00     0.200 C 
BRANCH   7   8
HETATM    8  O   UNK N   1      -2.442   0.358   0.598  0.00  0.00    -0.349 OA
BRANCH   8   9
HETATM    9  C   UNK N   1      -3.602   0.985   0.283  0.00  0.00     0.068 A 
HETATM   10  C   UNK N   1      -4.827   0.293   0.236  0.00  0.00     0.037 A 
HETATM   11  C   UNK N   1      -6.008   0.967  -0.090  0.00  0.00     0.003 A 
HETATM   12  C   UNK N   1      -5.977   2.336  -0.369  0.00  0.00     0.000 A 
HETATM   13  C   UNK N   1      -4.764   3.030  -0.324  0.00  0.00     0.003 A 
HETATM   14  C   UNK N   1      -3.582   2.357   0.001  0.00  0.00     0.037 A 
ENDBRANCH   8   9
ENDBRANCH   7   8
ENDBRANCH   5   7
ENDBRANCH   3   5
ENDBRANCH   1   3
BRANCH   1  15
HETATM   15  C   UNK N   1       1.490   0.485   0.119  0.00  0.00     0.173 C 
BRANCH  15  16
HETATM   16  O   UNK N   1       1.540   1.743  -0.489  0.00  0.00    -0.389 OA
HETATM   17  H   UNK N   1       2.314   2.149  -0.912  0.00  0.00     0.210 HD
ENDBRANCH  15  16
BRANCH  15  18
HETATM   18  C   UNK N   1       2.862  -0.160   0.137  0.00  0.00    -0.028 A 
HETATM   19  C   UNK N   1       3.958   0.486  -0.459  0.00  0.00     0.012 A 
HETATM   20  C   UNK N   1       5.228  -0.095  -0.429  0.00  0.00     0.037 A 
HETATM   21  C   UNK N   1       5.416  -1.328   0.198  0.00  0.00     0.065 A 
HETATM   22  C   UNK N   1       4.333  -1.980   0.796  0.00  0.00     0.037 A 
HETATM   23  C   UNK N   1       3.060  -1.397   0.769  0.00  0.00     0.012 A 
BRANCH  21  24
HETATM   24  O   UNK N   1       6.638  -1.885   0.226  0.00  0.00    -0.361 OA
HETATM   25  H   UNK N   1       6.727  -2.818   0.246  0.00  0.00     0.217 HD
ENDBRANCH  21  24
ENDBRANCH  15  18
ENDBRANCH   1  15
TORSDOF 9
