REMARK  5 active torsions:
REMARK  status: ('A' for Active; 'I' for Inactive)
REMARK    1  A    between atoms: C_13  and  C_12 
REMARK    2  A    between atoms: N_19  and  C_12 
REMARK    3  A    between atoms: O_22  and  C_13 
REMARK    4  A    between atoms: N_20  and  C_18 
REMARK    5  A    between atoms: O_22  and  N_20 
ROOT
HETATM    1  C   UNK N   1       0.628   7.778  -0.076  0.00  0.00     0.001 A 
HETATM    2  C   UNK N   1      -3.185   0.778   0.013  0.00  0.00     0.001 A 
HETATM    3  C   UNK N   1       1.703   6.923   0.047  0.00  0.00     0.001 A 
HETATM    4  C   UNK N   1      -1.878   0.345   0.130  0.00  0.00     0.001 A 
HETATM    5  C   UNK N   1      -0.649   7.249  -0.167  0.00  0.00     0.012 A 
HETATM    6  C   UNK N   1      -3.443   2.136  -0.098  0.00  0.00     0.012 A 
HETATM    7  C   UNK N   1       1.484   5.553   0.079  0.00  0.00     0.014 A 
HETATM    8  C   UNK N   1      -0.844   1.275   0.134  0.00  0.00     0.014 A 
HETATM    9  C   UNK N   1      -2.224   5.565  -0.226  0.00  0.00     0.013 A 
HETATM   10  C   UNK N   1      -2.883   4.376  -0.209  0.00  0.00     0.013 A 
HETATM   11  C   UNK N   1      -0.892   5.865  -0.132  0.00  0.00    -0.024 A 
HETATM   12  C   UNK N   1      -2.418   3.095  -0.093  0.00  0.00    -0.024 A 
HETATM   13  C   UNK N   1       0.205   4.948  -0.004  0.00  0.00     0.004 A 
HETATM   14  C   UNK N   1      -1.055   2.679   0.028  0.00  0.00     0.004 A 
HETATM   15  C   UNK N   1       0.139   3.489   0.062  0.00  0.00     0.076 A 
ENDROOT
BRANCH  15  16
HETATM   16  N   UNK N   1       1.247   2.793   0.177  0.00  0.00    -0.265 N 
ATOM     17  HN  UNK N   1       1.151   1.780   0.246  1.00  0.00     0.194 HD
BRANCH  16  18
HETATM   18  O   UNK N   1       2.470   3.280   0.213  0.00  0.00    -0.278 OA
BRANCH  18  19
HETATM   19  C   UNK N   1       3.524   2.493   0.595  0.00  0.00     0.220 C 
BRANCH  19  20
HETATM   20  C   UNK N   1       4.806   3.305   0.558  0.00  0.00     0.142 C 
BRANCH  20  21
HETATM   21  N   UNK N   1       5.420   3.190  -0.752  0.00  0.00    -0.423 N 
HETATM   22  C   UNK N   1       6.686   3.898  -0.685  0.00  0.00     0.139 C 
HETATM   23  H   UNK N   1       5.037   2.706  -1.564  0.00  0.00     0.152 HD
ENDBRANCH  20  21
ENDBRANCH  19  20
ENDBRANCH  18  19
ENDBRANCH  16  18
ENDBRANCH  15  16
TORSDOF 5
