REMARK  5 active torsions:
REMARK  status: ('A' for Active; 'I' for Inactive)
REMARK    1  A    between atoms: N_3  and  C_13 
REMARK    2  A    between atoms: C_14  and  C_13 
REMARK    3  A    between atoms: C_19  and  C_20 
REMARK    4  A    between atoms: C_20  and  N_21 
REMARK    5  A    between atoms: N_24  and  C_25 
ROOT
HETATM    1  C   UNK N   1      -3.182  -1.433   0.864  0.00  0.00     0.010 C 
HETATM    2  C   UNK N   1      -3.325  -2.717   1.699  0.00  0.00     0.007 C 
HETATM    3  C   UNK N   1      -4.346  -3.661   1.073  0.00  0.00     0.000 C 
HETATM    4  C   UNK N   1      -5.742  -3.025   1.042  0.00  0.00     0.000 C 
HETATM    5  C   UNK N   1      -5.725  -1.490   1.062  0.00  0.00     0.007 C 
HETATM    6  C   UNK N   1      -4.525  -0.929   0.298  0.00  0.00     0.019 C 
ENDROOT
BRANCH   6   7
HETATM    7  C   UNK N   1      -4.642   0.599   0.263  0.00  0.00     0.277 C 
BRANCH   7   8
HETATM    8  N   UNK N   1      -3.370   1.299   0.105  0.00  0.00     0.092 N 
HETATM    9  C   UNK N   1      -3.614   2.671   0.573  0.00  0.00     0.292 C 
HETATM   10  C   UNK N   1      -2.661   3.705  -0.039  0.00  0.00     0.154 C 
HETATM   11  N   UNK N   1      -1.450   3.065  -0.504  0.00  0.00    -0.363 N 
HETATM   12  C   UNK N   1      -1.567   1.940  -1.417  0.00  0.00     0.154 C 
HETATM   13  C   UNK N   1      -2.961   1.299  -1.303  0.00  0.00     0.292 C 
BRANCH  11  14
HETATM   14  C   UNK N   1      -0.196   3.494   0.032  0.00  0.00     0.121 A 
HETATM   15  N   UNK N   1      -0.147   4.480   0.986  0.00  0.00    -0.311 N 
HETATM   16  S   UNK N   1       1.451   4.660   1.343  0.00  0.00    -0.013 SA
ATOM     17  HN  UNK N   1      -0.933   4.992   1.387  1.00  0.00     0.176 HD
HETATM   18  C   UNK N   1       2.145   3.559   0.358  0.00  0.00     0.035 A 
HETATM   19  C   UNK N   1       3.478   3.216   0.178  0.00  0.00     0.021 A 
HETATM   20  C   UNK N   1       1.098   2.962  -0.341  0.00  0.00     0.027 A 
HETATM   21  C   UNK N   1       3.770   2.221  -0.766  0.00  0.00     0.001 A 
HETATM   22  C   UNK N   1       2.731   1.607  -1.497  0.00  0.00     0.001 A 
HETATM   23  C   UNK N   1       1.387   1.971  -1.284  0.00  0.00     0.017 A 
ENDBRANCH  11  14
ENDBRANCH   7   8
ENDBRANCH   6   7
BRANCH   1  24
HETATM   24  C   UNK N   1      -2.262  -1.693  -0.322  0.00  0.00     0.140 C 
BRANCH  24  25
HETATM   25  N   UNK N   1      -0.907  -1.951   0.107  0.00  0.00    -0.287 N 
HETATM   26  C   UNK N   1      -0.052  -1.028   0.557  0.00  0.00     0.231 A 
HETATM   27  O   UNK N   1      -0.341   0.153   0.667  0.00  0.00    -0.272 OA
HETATM   28  C   UNK N   1       1.299  -1.599   0.886  0.00  0.00     0.096 A 
HETATM   29  C   UNK N   1       1.106  -3.112   0.553  0.00  0.00     0.096 A 
HETATM   30  C   UNK N   1       2.372  -1.166  -0.122  0.00  0.00    -0.000 C 
HETATM   31  C   UNK N   1      -0.316  -3.147   0.065  0.00  0.00     0.231 A 
HETATM   32  C   UNK N   1       2.111  -3.349  -0.581  0.00  0.00    -0.000 C 
HETATM   33  O   UNK N   1      -0.878  -4.156  -0.334  0.00  0.00    -0.272 OA
HETATM   34  C   UNK N   1       3.505  -3.275   0.038  0.00  0.00     0.006 C 
HETATM   35  C   UNK N   1       2.069  -2.035  -1.321  0.00  0.00     0.011 C 
HETATM   36  C   UNK N   1       3.686  -1.784   0.338  0.00  0.00     0.006 C 
ENDBRANCH  24  25
ENDBRANCH   1  24
TORSDOF 5
