REMARK  4 active torsions:
REMARK  status: ('A' for Active; 'I' for Inactive)
REMARK    1  A    between atoms: N_2  and  C_22 
REMARK    2  A    between atoms: N_4  and  C_6 
REMARK    3  A    between atoms: C_9  and  C_15 
REMARK    4  A    between atoms: C_25  and  C_28 
REMARK       I    between atoms: C_28  and  N_29 
ROOT
HETATM    1  C   UNK N   1       9.439 -13.494  -0.125  0.00  0.00     0.045 A 
HETATM    2  C   UNK N   1       9.745 -14.844   0.014  0.00  0.00     0.032 A 
HETATM    3  C   UNK N   1      10.464 -12.558  -0.065  0.00  0.00     0.048 A 
HETATM    4  C   UNK N   1      11.784 -12.885   0.079  0.00  0.00     0.070 A 
HETATM    5  C   UNK N   1      12.103 -14.262   0.192  0.00  0.00     0.059 A 
HETATM    6  C   UNK N   1      11.078 -15.223   0.167  0.00  0.00     0.026 A 
HETATM    7  C   UNK N   1      13.443 -14.751   0.263  0.00  0.00     0.100 C 
HETATM    8  N   UNK N   1      14.504 -15.206   0.323  0.00  0.00    -0.191 NA
ENDROOT
BRANCH   4   9
HETATM    9  C   UNK N   1      12.765 -11.728   0.055  0.00  0.00     0.419 C 
HETATM   10  F   UNK N   1      13.340 -11.539   1.297  0.00  0.00    -0.166 F 
HETATM   11  F   UNK N   1      13.742 -11.957  -0.889  0.00  0.00    -0.166 F 
HETATM   12  F   UNK N   1      12.116 -10.543  -0.291  0.00  0.00    -0.166 F 
ENDBRANCH   4   9
BRANCH   1  13
HETATM   13  N   UNK N   1       8.104 -13.019  -0.219  0.00  0.00    -0.256 N 
HETATM   14  C   UNK N   1       7.765 -11.667  -0.236  0.00  0.00     0.189 C 
HETATM   15  N   UNK N   1       6.388 -11.522  -0.020  0.00  0.00    -0.305 N 
HETATM   16  S   UNK N   1       8.543 -10.678  -0.972  0.00  0.00    -0.040 SA
HETATM   17  C   UNK N   1       5.736 -12.829  -0.124  0.00  0.00     0.114 C 
HETATM   18  C   UNK N   1       6.956 -13.730  -0.200  0.00  0.00     0.259 C 
HETATM   19  C   UNK N   1       4.910 -12.906  -1.400  0.00  0.00     0.049 C 
HETATM   20  C   UNK N   1       4.896 -13.163   1.096  0.00  0.00     0.049 C 
HETATM   21  O   UNK N   1       6.915 -14.952  -0.232  0.00  0.00    -0.270 OA
BRANCH  15  22
HETATM   22  C   UNK N   1       5.752 -10.271   0.190  0.00  0.00     0.041 A 
HETATM   23  C   UNK N   1       6.522  -9.098   0.267  0.00  0.00     0.073 A 
HETATM   24  C   UNK N   1       5.937  -7.855   0.259  0.00  0.00     0.134 A 
HETATM   25  C   UNK N   1       4.539  -7.771   0.199  0.00  0.00     0.070 A 
HETATM   26  F   UNK N   1       6.735  -6.756   0.230  0.00  0.00    -0.205 F 
HETATM   27  C   UNK N   1       3.768  -8.943   0.238  0.00  0.00     0.022 A 
HETATM   28  C   UNK N   1       4.370 -10.187   0.232  0.00  0.00     0.031 A 
BRANCH  25  29
HETATM   29  C   UNK N   1       3.838  -6.499   0.032  0.00  0.00     0.254 C 
HETATM   30  N   UNK N   1       2.486  -6.511  -0.028  0.00  0.00    -0.361 N 
HETATM   31  C   UNK N   1       1.712  -5.321  -0.231  0.00  0.00     0.149 C 
HETATM   32  H   UNK N   1       2.016  -7.370   0.070  0.00  0.00     0.162 HD
HETATM   33  O   UNK N   1       4.461  -5.455  -0.106  0.00  0.00    -0.268 OA
ENDBRANCH  25  29
ENDBRANCH  15  22
ENDBRANCH   1  13
TORSDOF 4
