REMARK WARNING: 32 MAX_TORS EXCEEDED!!!
REMARK  187 active torsions:
REMARK  status: ('A' for Active; 'I' for Inactive)
REMARK       I    between atoms: C_1  and  N_2 
REMARK    1  A    between atoms: C_1  and  C_3 
REMARK    2  A    between atoms: C_23  and  N_2 
REMARK    3  A    between atoms: C_3  and  C_4 
REMARK    4  A    between atoms: C_3  and  N_5 
REMARK    5  A    between atoms: C_4  and  C_6 
REMARK       I    between atoms: N_5  and  C_14 
REMARK    6  A    between atoms: C_10  and  O_12 
REMARK    7  A    between atoms: C_14  and  C_15 
REMARK    8  A    between atoms: C_15  and  C_17 
REMARK    9  A    between atoms: C_18  and  C_19 
REMARK   10  A    between atoms: C_21  and  C_23 
REMARK       I    between atoms: N_25  and  C_21 
REMARK   11  A    between atoms: C_30  and  N_25 
REMARK       I    between atoms: N_26  and  C_32 
REMARK   12  A    between atoms: C_36  and  N_26 
REMARK   13  A    between atoms: C_31  and  O_27 
REMARK   14  A    between atoms: C_32  and  C_30 
REMARK   15  A    between atoms: C_33  and  C_30 
REMARK   16  A    between atoms: C_33  and  C_31 
REMARK       I    between atoms: C_34  and  N_35 
REMARK   17  A    between atoms: C_34  and  C_36 
REMARK   18  A    between atoms: C_40  and  N_35 
REMARK   19  A    between atoms: C_39  and  C_40 
REMARK       I    between atoms: N_46  and  C_39 
REMARK   20  A    between atoms: C_40  and  C_42 
REMARK   21  A    between atoms: C_42  and  C_43 
REMARK   22  A    between atoms: C_48  and  N_46 
REMARK   23  A    between atoms: C_47  and  C_48 
REMARK       I    between atoms: C_47  and  N_49 
REMARK   24  A    between atoms: C_48  and  C_50 
REMARK   25  A    between atoms: C_58  and  N_49 
REMARK   26  A    between atoms: C_50  and  C_51 
REMARK   27  A    between atoms: C_58  and  C_59 
REMARK   28  A    between atoms: C_58  and  C_61 
REMARK       I    between atoms: N_64  and  C_59 
REMARK   29  A    between atoms: C_61  and  O_62 
REMARK   30  A    between atoms: C_68  and  N_64 
REMARK   31  A    between atoms: C_65  and  C_67 
REMARK   32  A    between atoms: C_65  and  C_68 
REMARK   33  A    between atoms: C_66  and  C_68 
REMARK       I    between atoms: C_66  and  N_69 
REMARK       I    between atoms: C_67  and  N_71 
REMARK   34  A    between atoms: C_74  and  N_69 
REMARK   35  A    between atoms: C_73  and  C_74 
REMARK       I    between atoms: N_78  and  C_73 
REMARK   36  A    between atoms: C_74  and  C_76 
REMARK   37  A    between atoms: C_76  and  O_77 
REMARK   38  A    between atoms: C_81  and  N_78 
REMARK       I    between atoms: C_79  and  N_80 
REMARK   39  A    between atoms: C_79  and  C_81 
REMARK   40  A    between atoms: C_97  and  N_80 
REMARK   41  A    between atoms: C_81  and  C_82 
REMARK   42  A    between atoms: C_82  and  C_83 
REMARK   43  A    between atoms: C_87  and  O_89 
REMARK       I    between atoms: C_91  and  N_96 
REMARK       I    between atoms: C_91  and  N_98 
REMARK   44  A    between atoms: C_92  and  C_97 
REMARK       I    between atoms: N_102  and  C_92 
REMARK   45  A    between atoms: N_96  and  C_99 
REMARK   46  A    between atoms: C_97  and  C_100 
REMARK   47  A    between atoms: C_99  and  C_101 
REMARK   48  A    between atoms: C_100  and  C_101 
REMARK   49  A    between atoms: C_105  and  N_102 
REMARK       I    between atoms: C_103  and  N_104 
REMARK   50  A    between atoms: C_103  and  C_105 
REMARK   51  A    between atoms: C_113  and  N_104 
REMARK   52  A    between atoms: C_105  and  C_108 
REMARK   53  A    between atoms: N_106  and  C_107 
REMARK   54  A    between atoms: C_107  and  C_109 
REMARK   55  A    between atoms: C_108  and  C_110 
REMARK   56  A    between atoms: C_109  and  C_110 
REMARK   57  A    between atoms: C_112  and  C_113 
REMARK       I    between atoms: C_112  and  N_114 
REMARK   58  A    between atoms: C_113  and  C_115 
REMARK   59  A    between atoms: C_120  and  N_114 
REMARK   60  A    between atoms: C_119  and  C_120 
REMARK       I    between atoms: N_123  and  C_119 
REMARK   61  A    between atoms: C_120  and  C_122 
REMARK   62  A    between atoms: C_122  and  C_124 
REMARK   63  A    between atoms: N_123  and  C_129 
REMARK   64  A    between atoms: C_127  and  C_129 
REMARK       I    between atoms: N_130  and  C_127 
REMARK   65  A    between atoms: C_134  and  N_130 
REMARK       I    between atoms: C_131  and  N_133 
REMARK   66  A    between atoms: C_131  and  C_134 
REMARK   67  A    between atoms: C_132  and  C_137 
REMARK       I    between atoms: C_132  and  N_138 
REMARK   68  A    between atoms: C_141  and  N_133 
REMARK   69  A    between atoms: C_134  and  C_136 
REMARK   70  A    between atoms: C_136  and  C_137 
REMARK   71  A    between atoms: C_140  and  C_141 
REMARK       I    between atoms: N_144  and  C_140 
REMARK   72  A    between atoms: C_141  and  C_143 
REMARK   73  A    between atoms: C_143  and  C_145 
REMARK   74  A    between atoms: C_149  and  N_144 
REMARK   75  A    between atoms: C_148  and  C_149 
REMARK       I    between atoms: C_148  and  N_150 
REMARK   76  A    between atoms: C_149  and  C_151 
REMARK   77  A    between atoms: C_156  and  N_150 
REMARK   78  A    between atoms: C_151  and  O_152 
REMARK       I    between atoms: C_154  and  N_155 
REMARK   79  A    between atoms: C_154  and  C_156 
REMARK   80  A    between atoms: C_165  and  N_155 
REMARK       I    between atoms: C_159  and  N_164 
REMARK       I    between atoms: C_159  and  N_166 
REMARK   81  A    between atoms: C_160  and  C_165 
REMARK       I    between atoms: C_160  and  N_163 
REMARK   82  A    between atoms: C_173  and  N_163 
REMARK   83  A    between atoms: N_164  and  C_167 
REMARK   84  A    between atoms: C_165  and  C_168 
REMARK   85  A    between atoms: C_167  and  C_169 
REMARK   86  A    between atoms: C_168  and  C_169 
REMARK       I    between atoms: C_171  and  N_172 
REMARK   87  A    between atoms: C_171  and  C_173 
REMARK   88  A    between atoms: C_181  and  N_172 
REMARK   89  A    between atoms: C_173  and  C_174 
REMARK   90  A    between atoms: C_174  and  C_176 
REMARK   91  A    between atoms: C_176  and  C_177 
REMARK   92  A    between atoms: C_177  and  C_178 
REMARK   93  A    between atoms: C_178  and  N_179 
REMARK   94  A    between atoms: C_180  and  C_181 
REMARK       I    between atoms: C_180  and  N_182 
REMARK   95  A    between atoms: C_181  and  C_183 
REMARK   96  A    between atoms: C_189  and  N_182 
REMARK   97  A    between atoms: C_183  and  C_185 
REMARK   98  A    between atoms: C_188  and  C_189 
REMARK       I    between atoms: C_188  and  N_190 
REMARK   99  A    between atoms: C_189  and  C_191 
REMARK  100  A    between atoms: C_199  and  N_190 
REMARK  101  A    between atoms: C_191  and  C_193 
REMARK       I    between atoms: C_196  and  N_198 
REMARK  102  A    between atoms: C_196  and  C_199 
REMARK  103  A    between atoms: C_197  and  C_202 
REMARK       I    between atoms: C_197  and  N_203 
REMARK  104  A    between atoms: C_207  and  N_198 
REMARK  105  A    between atoms: C_199  and  C_201 
REMARK  106  A    between atoms: C_201  and  C_202 
REMARK       I    between atoms: C_208  and  N_206 
REMARK  107  A    between atoms: C_214  and  N_206 
REMARK  108  A    between atoms: C_208  and  C_207 
REMARK  109  A    between atoms: C_209  and  C_207 
REMARK  110  A    between atoms: C_209  and  C_210 
REMARK  111  A    between atoms: C_210  and  O_211 
REMARK  112  A    between atoms: C_213  and  C_214 
REMARK       I    between atoms: C_213  and  N_215 
REMARK  113  A    between atoms: C_214  and  C_216 
REMARK  114  A    between atoms: C_223  and  N_215 
REMARK  115  A    between atoms: C_216  and  C_217 
REMARK  116  A    between atoms: C_221  and  C_223 
REMARK       I    between atoms: N_228  and  C_221 
REMARK  117  A    between atoms: C_223  and  C_225 
REMARK  118  A    between atoms: S_224  and  C_226 
REMARK  119  A    between atoms: C_225  and  C_226 
REMARK  120  A    between atoms: C_230  and  N_228 
REMARK  121  A    between atoms: C_229  and  C_230 
REMARK       I    between atoms: N_234  and  C_229 
REMARK  122  A    between atoms: C_230  and  C_232 
REMARK  123  A    between atoms: C_232  and  O_233 
REMARK  124  A    between atoms: C_241  and  N_234 
REMARK       I    between atoms: C_235  and  N_240 
REMARK       I    between atoms: C_235  and  N_242 
REMARK  125  A    between atoms: C_236  and  C_241 
REMARK       I    between atoms: C_236  and  N_239 
REMARK  126  A    between atoms: C_250  and  N_239 
REMARK  127  A    between atoms: N_240  and  C_243 
REMARK  128  A    between atoms: C_241  and  C_244 
REMARK  129  A    between atoms: C_243  and  C_245 
REMARK  130  A    between atoms: C_244  and  C_245 
REMARK  131  A    between atoms: C_247  and  C_250 
REMARK       I    between atoms: N_255  and  C_247 
REMARK  132  A    between atoms: C_248  and  C_253 
REMARK       I    between atoms: C_248  and  N_254 
REMARK  133  A    between atoms: C_250  and  C_252 
REMARK  134  A    between atoms: C_252  and  C_253 
REMARK  135  A    between atoms: C_259  and  N_255 
REMARK       I    between atoms: C_256  and  N_258 
REMARK  136  A    between atoms: C_256  and  C_259 
REMARK  137  A    between atoms: C_257  and  C_262 
REMARK       I    between atoms: C_257  and  N_263 
REMARK  138  A    between atoms: N_258  and  C_267 
REMARK  139  A    between atoms: C_259  and  C_261 
REMARK  140  A    between atoms: C_261  and  C_262 
REMARK  141  A    between atoms: C_265  and  C_267 
REMARK       I    between atoms: N_268  and  C_265 
REMARK  142  A    between atoms: C_272  and  N_268 
REMARK       I    between atoms: C_269  and  N_271 
REMARK  143  A    between atoms: C_269  and  C_272 
REMARK  144  A    between atoms: C_270  and  C_275 
REMARK       I    between atoms: C_270  and  N_276 
REMARK  145  A    between atoms: C_279  and  N_271 
REMARK  146  A    between atoms: C_272  and  C_274 
REMARK  147  A    between atoms: C_274  and  C_275 
REMARK  148  A    between atoms: C_278  and  C_279 
REMARK       I    between atoms: N_282  and  C_278 
REMARK  149  A    between atoms: C_279  and  C_281 
REMARK  150  A    between atoms: C_281  and  O_283 
REMARK  151  A    between atoms: C_287  and  N_282 
REMARK  152  A    between atoms: C_284  and  C_286 
REMARK  153  A    between atoms: C_284  and  C_287 
REMARK  154  A    between atoms: C_285  and  C_287 
REMARK       I    between atoms: C_285  and  N_288 
REMARK       I    between atoms: C_286  and  N_290 
REMARK  155  A    between atoms: C_294  and  N_288 
REMARK       I    between atoms: C_292  and  N_293 
REMARK  156  A    between atoms: C_292  and  C_294 
REMARK  157  A    between atoms: C_303  and  N_293 
REMARK  158  A    between atoms: C_294  and  C_295 
REMARK  159  A    between atoms: C_295  and  C_297 
REMARK  160  A    between atoms: C_297  and  C_298 
REMARK       I    between atoms: C_298  and  N_300 
REMARK  161  A    between atoms: C_301  and  C_303 
REMARK       I    between atoms: N_305  and  C_301 
REMARK  162  A    between atoms: C_303  and  C_304 
REMARK  163  A    between atoms: C_304  and  C_306 
REMARK  164  A    between atoms: C_315  and  N_305 
REMARK  165  A    between atoms: C_306  and  C_307 
REMARK  166  A    between atoms: C_307  and  N_308 
REMARK       I    between atoms: N_308  and  C_309 
REMARK       I    between atoms: C_309  and  N_310 
REMARK  167  A    between atoms: C_313  and  C_315 
REMARK       I    between atoms: N_316  and  C_313 
REMARK  168  A    between atoms: C_319  and  N_316 
REMARK       I    between atoms: C_317  and  N_318 
REMARK  169  A    between atoms: C_317  and  C_319 
REMARK  170  A    between atoms: C_328  and  N_318 
REMARK       I    between atoms: C_322  and  N_327 
REMARK       I    between atoms: C_322  and  N_329 
REMARK  171  A    between atoms: C_323  and  C_328 
REMARK       I    between atoms: C_323  and  N_326 
REMARK  172  A    between atoms: C_336  and  N_326 
REMARK  173  A    between atoms: N_327  and  C_330 
REMARK  174  A    between atoms: C_328  and  C_331 
REMARK  175  A    between atoms: C_330  and  C_332 
REMARK  176  A    between atoms: C_331  and  C_332 
REMARK  177  A    between atoms: C_334  and  C_336 
REMARK       I    between atoms: N_338  and  C_334 
REMARK  178  A    between atoms: C_345  and  N_338 
REMARK       I    between atoms: C_339  and  N_344 
REMARK       I    between atoms: C_339  and  N_346 
REMARK  179  A    between atoms: C_340  and  C_345 
REMARK       I    between atoms: C_340  and  N_343 
REMARK  180  A    between atoms: C_352  and  N_343 
REMARK  181  A    between atoms: N_344  and  C_347 
REMARK  182  A    between atoms: C_345  and  C_348 
REMARK  183  A    between atoms: C_347  and  C_349 
REMARK  184  A    between atoms: C_348  and  C_349 
REMARK  185  A    between atoms: C_351  and  C_352 
REMARK       I    between atoms: N_358  and  C_351 
REMARK  186  A    between atoms: C_352  and  C_354 
REMARK  187  A    between atoms: C_354  and  C_355 
ROOT
HETATM    1  C   UNK N   1      11.178  -0.521  -1.372  0.00  0.00     0.241 C 
HETATM    2  N   UNK N   1      11.770  -0.590  -0.160  0.00  0.00    -0.346 N 
HETATM    3  O   UNK N   1      11.615  -1.144  -2.327  0.00  0.00    -0.271 OA
HETATM    4  H   UNK N   1      11.500   0.090   0.499  0.00  0.00     0.163 HD
ENDROOT
BRANCH   1   5
HETATM    5  C   UNK N   1       9.843   0.166  -1.442  0.00  0.00     0.177 C 
BRANCH   5   6
HETATM    6  C   UNK N   1       8.777  -0.926  -1.257  0.00  0.00     0.038 C 
BRANCH   6   7
HETATM    7  C   UNK N   1       7.301  -0.562  -1.219  0.00  0.00    -0.020 C 
HETATM    8  C   UNK N   1       6.827  -0.288   0.191  0.00  0.00     0.009 C 
HETATM    9  C   UNK N   1       6.913   0.534  -2.189  0.00  0.00     0.009 C 
ENDBRANCH   6   7
ENDBRANCH   5   6
BRANCH   5  10
HETATM   10  N   UNK N   1       9.833   1.219  -0.441  0.00  0.00    -0.346 N 
HETATM   11  C   UNK N   1       9.931   1.051   0.915  0.00  0.00     0.241 C 
HETATM   12  O   UNK N   1       9.689  -0.025   1.438  0.00  0.00    -0.271 OA
HETATM   13  H   UNK N   1       9.747   2.143  -0.770  0.00  0.00     0.163 HD
BRANCH  11  14
HETATM   14  C   UNK N   1      10.482   2.184   1.742  0.00  0.00     0.176 C 
BRANCH  14  15
HETATM   15  N   UNK N   1       9.521   3.252   1.678  0.00  0.00    -0.346 N 
HETATM   16  C   UNK N   1       9.173   3.845   0.512  0.00  0.00     0.241 C 
HETATM   17  O   UNK N   1       9.960   3.916  -0.423  0.00  0.00    -0.271 OA
HETATM   18  H   UNK N   1       9.101   3.564   2.513  0.00  0.00     0.163 HD
BRANCH  16  19
HETATM   19  C   UNK N   1       7.726   4.113   0.306  0.00  0.00     0.176 C 
BRANCH  19  20
HETATM   20  C   UNK N   1       7.033   2.782   0.604  0.00  0.00     0.036 C 
BRANCH  20  21
HETATM   21  C   UNK N   1       5.536   2.885   0.706  0.00  0.00     0.023 C 
BRANCH  21  22
HETATM   22  C   UNK N   1       4.928   2.891  -0.679  0.00  0.00     0.138 C 
BRANCH  22  23
HETATM   23  N   UNK N   1       3.764   3.729  -0.656  0.00  0.00    -0.227 N 
HETATM   24  C   UNK N   1       2.560   3.308  -0.042  0.00  0.00     0.665 C 
HETATM   25  N   UNK N   1       1.612   4.149   0.131  0.00  0.00    -0.235 N 
HETATM   26  N   UNK N   1       2.401   1.970   0.389  0.00  0.00    -0.235 N 
HETATM   27  H   UNK N   1       1.808   5.105   0.265  0.00  0.00     0.174 HD
ATOM     28  HN  UNK N   1       0.644   3.827   0.131  1.00  0.00     0.174 HD
HETATM   29  H   UNK N   1       1.539   1.601   0.689  0.00  0.00     0.174 HD
HETATM   30  H   UNK N   1       3.189   1.381   0.389  0.00  0.00     0.174 HD
HETATM   31  H   UNK N   1       3.803   4.618  -1.078  0.00  0.00     0.177 HD
ENDBRANCH  22  23
ENDBRANCH  21  22
ENDBRANCH  20  21
ENDBRANCH  19  20
BRANCH  19  32
HETATM   32  N   UNK N   1       7.437   4.489  -1.058  0.00  0.00    -0.346 N 
HETATM   33  C   UNK N   1       7.807   5.627  -1.704  0.00  0.00     0.240 C 
HETATM   34  O   UNK N   1       7.482   5.742  -2.875  0.00  0.00    -0.271 OA
HETATM   35  H   UNK N   1       6.910   3.844  -1.583  0.00  0.00     0.163 HD
BRANCH  33  36
HETATM   36  C   UNK N   1       8.597   6.780  -1.088  0.00  0.00     0.172 C 
HETATM   37  C   UNK N   1       9.930   6.911  -1.802  0.00  0.00     0.042 C 
BRANCH  36  38
HETATM   38  N   UNK N   1       8.823   6.812   0.347  0.00  0.00    -0.346 N 
HETATM   39  C   UNK N   1       7.850   6.822   1.298  0.00  0.00     0.243 C 
HETATM   40  O   UNK N   1       8.168   6.942   2.470  0.00  0.00    -0.271 OA
HETATM   41  H   UNK N   1       9.757   6.829   0.657  0.00  0.00     0.163 HD
BRANCH  39  42
HETATM   42  C   UNK N   1       6.407   6.602   0.928  0.00  0.00     0.200 C 
BRANCH  42  43
HETATM   43  N   UNK N   1       5.951   7.609   0.006  0.00  0.00    -0.344 N 
HETATM   44  C   UNK N   1       5.577   8.851   0.379  0.00  0.00     0.241 C 
HETATM   45  O   UNK N   1       5.536   9.169   1.558  0.00  0.00    -0.271 OA
HETATM   46  H   UNK N   1       5.910   7.379  -0.951  0.00  0.00     0.163 HD
BRANCH  44  47
HETATM   47  C   UNK N   1       5.178   9.839  -0.659  0.00  0.00     0.177 C 
BRANCH  47  48
HETATM   48  C   UNK N   1       4.140   9.312  -1.675  0.00  0.00     0.038 C 
BRANCH  48  49
HETATM   49  C   UNK N   1       3.036   8.330  -1.231  0.00  0.00    -0.020 C 
HETATM   50  C   UNK N   1       2.628   8.391   0.231  0.00  0.00     0.009 C 
HETATM   51  C   UNK N   1       3.391   6.911  -1.615  0.00  0.00     0.009 C 
ENDBRANCH  48  49
ENDBRANCH  47  48
BRANCH  47  52
HETATM   52  N   UNK N   1       6.338  10.351  -1.373  0.00  0.00    -0.346 N 
HETATM   53  C   UNK N   1       7.350  11.037  -0.768  0.00  0.00     0.241 C 
HETATM   54  O   UNK N   1       7.330  11.236   0.440  0.00  0.00    -0.271 OA
HETATM   55  H   UNK N   1       6.395  10.194  -2.343  0.00  0.00     0.163 HD
BRANCH  53  56
HETATM   56  C   UNK N   1       8.500  11.562  -1.605  0.00  0.00     0.177 C 
BRANCH  56  57
HETATM   57  C   UNK N   1       9.798  10.868  -1.213  0.00  0.00     0.044 C 
BRANCH  57  58
HETATM   58  C   UNK N   1      10.252  11.298   0.178  0.00  0.00     0.105 C 
BRANCH  58  59
HETATM   59  C   UNK N   1      11.215  10.315   0.739  0.00  0.00     0.215 C 
HETATM   60  O   UNK N   1      12.342  10.671   1.038  0.00  0.00    -0.274 OA
HETATM   61  N   UNK N   1      10.836   9.039   0.944  0.00  0.00    -0.370 N 
HETATM   62  H   UNK N   1       9.890   8.813   1.095  0.00  0.00     0.159 HD
HETATM   63  H   UNK N   1      11.513   8.324   0.944  0.00  0.00     0.159 HD
ENDBRANCH  58  59
ENDBRANCH  57  58
ENDBRANCH  56  57
BRANCH  56  64
HETATM   64  N   UNK N   1       8.701  13.005  -1.522  0.00  0.00    -0.346 N 
HETATM   65  C   UNK N   1       7.759  13.942  -1.786  0.00  0.00     0.236 C 
HETATM   66  O   UNK N   1       8.042  15.126  -1.688  0.00  0.00    -0.272 OA
HETATM   67  H   UNK N   1       9.592  13.323  -1.252  0.00  0.00     0.163 HD
BRANCH  65  68
HETATM   68  C   UNK N   1       6.355  13.553  -2.048  0.00  0.00     0.225 C 
BRANCH  68  69
HETATM   69  N   UNK N   1       5.756  13.467  -0.753  0.00  0.00    -0.351 N 
HETATM   70  C   UNK N   1       4.603  12.834  -0.493  0.00  0.00     0.240 C 
HETATM   71  O   UNK N   1       3.960  12.300  -1.383  0.00  0.00    -0.271 OA
HETATM   72  H   UNK N   1       6.221  13.903  -0.003  0.00  0.00     0.163 HD
BRANCH  70  73
HETATM   73  C   UNK N   1       4.045  13.012   0.870  0.00  0.00     0.177 C 
BRANCH  73  74
HETATM   74  C   UNK N   1       3.434  11.916   1.732  0.00  0.00     0.038 C 
BRANCH  74  75
HETATM   75  C   UNK N   1       1.955  11.763   1.471  0.00  0.00    -0.020 C 
HETATM   76  C   UNK N   1       1.775  11.211   0.081  0.00  0.00     0.009 C 
HETATM   77  C   UNK N   1       1.371  10.792   2.477  0.00  0.00     0.009 C 
ENDBRANCH  74  75
ENDBRANCH  73  74
BRANCH  73  78
HETATM   78  N   UNK N   1       3.794  14.387   1.223  0.00  0.00    -0.346 N 
HETATM   79  C   UNK N   1       3.452  15.339   0.308  0.00  0.00     0.241 C 
HETATM   80  O   UNK N   1       3.228  15.056  -0.860  0.00  0.00    -0.271 OA
HETATM   81  H   UNK N   1       3.873  14.651   2.168  0.00  0.00     0.163 HD
BRANCH  79  82
HETATM   82  C   UNK N   1       3.318  16.751   0.740  0.00  0.00     0.180 C 
BRANCH  82  83
HETATM   83  N   UNK N   1       2.280  16.780   1.729  0.00  0.00    -0.346 N 
HETATM   84  C   UNK N   1       0.994  16.568   1.378  0.00  0.00     0.241 C 
HETATM   85  O   UNK N   1       0.164  16.421   2.261  0.00  0.00    -0.271 OA
HETATM   86  H   UNK N   1       2.507  16.955   2.671  0.00  0.00     0.163 HD
BRANCH  84  87
HETATM   87  C   UNK N   1       0.589  16.463  -0.094  0.00  0.00     0.176 C 
BRANCH  87  88
HETATM   88  N   UNK N   1      -0.798  16.119  -0.257  0.00  0.00    -0.346 N 
HETATM   89  C   UNK N   1      -1.833  16.784   0.312  0.00  0.00     0.241 C 
HETATM   90  O   UNK N   1      -1.662  17.820   0.932  0.00  0.00    -0.271 OA
HETATM   91  H   UNK N   1      -1.011  15.343  -0.823  0.00  0.00     0.163 HD
BRANCH  89  92
HETATM   92  C   UNK N   1      -3.150  16.124   0.360  0.00  0.00     0.176 C 
BRANCH  92  93
HETATM   93  C   UNK N   1      -3.765  15.989  -1.022  0.00  0.00     0.036 C 
BRANCH  93  94
HETATM   94  C   UNK N   1      -4.618  17.217  -1.292  0.00  0.00     0.023 C 
BRANCH  94  95
HETATM   95  C   UNK N   1      -6.089  16.853  -1.454  0.00  0.00     0.138 C 
BRANCH  95  96
HETATM   96  N   UNK N   1      -6.531  15.991  -0.384  0.00  0.00    -0.227 N 
HETATM   97  C   UNK N   1      -7.395  16.446   0.641  0.00  0.00     0.665 C 
HETATM   98  N   UNK N   1      -7.797  15.627   1.540  0.00  0.00    -0.235 N 
HETATM   99  N   UNK N   1      -7.774  17.806   0.711  0.00  0.00    -0.235 N 
HETATM  100  H   UNK N   1      -8.497  15.580   2.231  0.00  0.00     0.174 HD
ATOM    101  HN  UNK N   1      -7.229  14.780   1.540  1.00  0.00     0.174 HD
HETATM  102  H   UNK N   1      -7.086  18.508   0.760  0.00  0.00     0.174 HD
HETATM  103  H   UNK N   1      -8.728  18.051   0.711  0.00  0.00     0.174 HD
HETATM  104  H   UNK N   1      -6.221  15.057  -0.366  0.00  0.00     0.177 HD
ENDBRANCH  95  96
ENDBRANCH  94  95
ENDBRANCH  93  94
ENDBRANCH  92  93
BRANCH  92 105
HETATM  105  N   UNK N   1      -2.990  14.889   1.111  0.00  0.00    -0.346 N 
HETATM  106  C   UNK N   1      -2.308  13.770   0.727  0.00  0.00     0.241 C 
HETATM  107  O   UNK N   1      -2.043  12.940   1.580  0.00  0.00    -0.271 OA
HETATM  108  H   UNK N   1      -3.421  14.856   1.996  0.00  0.00     0.163 HD
BRANCH 106 109
HETATM  109  C   UNK N   1      -1.870  13.528  -0.722  0.00  0.00     0.180 C 
BRANCH 109 110
HETATM  110  C   UNK N   1      -0.729  12.507  -0.843  0.00  0.00     0.073 C 
BRANCH 110 111
HETATM  111  C   UNK N   1      -1.106  11.046  -0.680  0.00  0.00    -0.056 A 
HETATM  112  C   UNK N   1      -1.145  10.462   0.594  0.00  0.00     0.010 A 
HETATM  113  C   UNK N   1      -1.360   9.090   0.744  0.00  0.00     0.037 A 
HETATM  114  C   UNK N   1      -1.523   8.283  -0.384  0.00  0.00     0.065 A 
HETATM  115  C   UNK N   1      -1.489   8.854  -1.660  0.00  0.00     0.037 A 
HETATM  116  C   UNK N   1      -1.269  10.230  -1.809  0.00  0.00     0.010 A 
BRANCH 114 117
HETATM  117  O   UNK N   1      -1.700   6.960  -0.242  0.00  0.00    -0.361 OA
HETATM  118  H   UNK N   1      -2.561   6.605  -0.142  0.00  0.00     0.217 HD
ENDBRANCH 114 117
ENDBRANCH 110 111
ENDBRANCH 109 110
BRANCH 109 119
HETATM  119  N   UNK N   1      -2.916  13.041  -1.596  0.00  0.00    -0.346 N 
HETATM  120  C   UNK N   1      -4.228  12.932  -1.307  0.00  0.00     0.243 C 
HETATM  121  O   UNK N   1      -4.737  13.518  -0.362  0.00  0.00    -0.271 OA
HETATM  122  H   UNK N   1      -2.640  12.759  -2.498  0.00  0.00     0.163 HD
BRANCH 120 123
HETATM  123  C   UNK N   1      -4.996  11.877  -1.997  0.00  0.00     0.200 C 
BRANCH 123 124
HETATM  124  N   UNK N   1      -5.381  10.828  -1.057  0.00  0.00    -0.344 N 
HETATM  125  C   UNK N   1      -4.867  10.602   0.198  0.00  0.00     0.241 C 
HETATM  126  O   UNK N   1      -3.901  11.209   0.618  0.00  0.00    -0.271 OA
HETATM  127  H   UNK N   1      -6.090  10.213  -1.355  0.00  0.00     0.163 HD
BRANCH 125 128
HETATM  128  C   UNK N   1      -5.607   9.727   1.137  0.00  0.00     0.185 C 
BRANCH 128 129
HETATM  129  C   UNK N   1      -4.776   8.724   1.923  0.00  0.00     0.137 C 
BRANCH 129 130
HETATM  130  C   UNK N   1      -4.455   7.503   1.112  0.00  0.00     0.217 C 
HETATM  131  O   UNK N   1      -4.697   7.461  -0.085  0.00  0.00    -0.274 OA
HETATM  132  N   UNK N   1      -3.908   6.433   1.717  0.00  0.00    -0.370 N 
HETATM  133  H   UNK N   1      -4.385   5.694   2.160  0.00  0.00     0.159 HD
HETATM  134  H   UNK N   1      -2.925   6.383   1.717  0.00  0.00     0.159 HD
ENDBRANCH 129 130
ENDBRANCH 128 129
BRANCH 128 135
HETATM  135  N   UNK N   1      -6.488  10.498   1.985  0.00  0.00    -0.345 N 
HETATM  136  C   UNK N   1      -7.599  11.102   1.480  0.00  0.00     0.243 C 
HETATM  137  O   UNK N   1      -8.335  11.720   2.232  0.00  0.00    -0.271 OA
HETATM  138  H   UNK N   1      -6.281  10.588   2.943  0.00  0.00     0.163 HD
BRANCH 136 139
HETATM  139  C   UNK N   1      -7.916  11.031  -0.009  0.00  0.00     0.205 C 
BRANCH 139 140
HETATM  140  C   UNK N   1      -9.081  11.921  -0.496  0.00  0.00     0.146 C 
HETATM  141  C   UNK N   1      -9.351  11.736  -1.985  0.00  0.00     0.042 C 
BRANCH 140 142
HETATM  142  O   UNK N   1     -10.258  11.707   0.216  0.00  0.00    -0.393 OA
HETATM  143  H   UNK N   1     -10.798  12.342   0.713  0.00  0.00     0.210 HD
ENDBRANCH 140 142
ENDBRANCH 139 140
BRANCH 139 144
HETATM  144  N   UNK N   1      -7.986   9.697  -0.595  0.00  0.00    -0.344 N 
HETATM  145  C   UNK N   1      -8.016   8.485   0.022  0.00  0.00     0.241 C 
HETATM  146  O   UNK N   1      -7.965   8.374   1.237  0.00  0.00    -0.271 OA
HETATM  147  H   UNK N   1      -8.016   9.670  -1.579  0.00  0.00     0.163 HD
BRANCH 145 148
HETATM  148  C   UNK N   1      -8.484   7.331  -0.764  0.00  0.00     0.180 C 
BRANCH 148 149
HETATM  149  C   UNK N   1      -7.455   6.555  -1.598  0.00  0.00     0.073 C 
BRANCH 149 150
HETATM  150  C   UNK N   1      -6.881   5.338  -0.889  0.00  0.00    -0.056 A 
HETATM  151  C   UNK N   1      -5.933   4.542  -1.549  0.00  0.00     0.007 A 
HETATM  152  C   UNK N   1      -5.402   3.402  -0.929  0.00  0.00     0.001 A 
HETATM  153  C   UNK N   1      -5.819   3.044   0.356  0.00  0.00     0.000 A 
HETATM  154  C   UNK N   1      -6.762   3.829   1.024  0.00  0.00     0.001 A 
HETATM  155  C   UNK N   1      -7.289   4.970   0.406  0.00  0.00     0.007 A 
ENDBRANCH 149 150
ENDBRANCH 148 149
BRANCH 148 156
HETATM  156  N   UNK N   1      -9.759   7.596  -1.424  0.00  0.00    -0.346 N 
HETATM  157  C   UNK N   1     -10.738   8.394  -0.880  0.00  0.00     0.241 C 
HETATM  158  O   UNK N   1     -10.500   9.170   0.029  0.00  0.00    -0.271 OA
HETATM  159  H   UNK N   1      -9.927   7.182  -2.302  0.00  0.00     0.163 HD
BRANCH 157 160
HETATM  160  C   UNK N   1     -12.168   8.049  -1.111  0.00  0.00     0.180 C 
BRANCH 160 161
HETATM  161  N   UNK N   1     -12.706   7.670   0.195  0.00  0.00    -0.346 N 
HETATM  162  C   UNK N   1     -12.128   6.716   0.986  0.00  0.00     0.240 C 
HETATM  163  O   UNK N   1     -12.572   6.502   2.100  0.00  0.00    -0.271 OA
HETATM  164  H   UNK N   1     -13.518   8.122   0.519  0.00  0.00     0.163 HD
BRANCH 162 165
HETATM  165  C   UNK N   1     -10.965   5.902   0.459  0.00  0.00     0.172 C 
HETATM  166  C   UNK N   1     -10.257   4.962   1.419  0.00  0.00     0.042 C 
BRANCH 165 167
HETATM  167  N   UNK N   1     -11.169   5.381  -0.893  0.00  0.00    -0.346 N 
HETATM  168  C   UNK N   1     -12.371   4.981  -1.408  0.00  0.00     0.241 C 
HETATM  169  O   UNK N   1     -12.452   4.696  -2.590  0.00  0.00    -0.271 OA
HETATM  170  H   UNK N   1     -10.380   5.312  -1.478  0.00  0.00     0.163 HD
BRANCH 168 171
HETATM  171  C   UNK N   1     -13.574   4.834  -0.499  0.00  0.00     0.186 C 
BRANCH 171 172
HETATM  172  N   UNK N   1     -13.346   3.911   0.607  0.00  0.00    -0.346 N 
HETATM  173  C   UNK N   1     -12.322   3.019   0.700  0.00  0.00     0.240 C 
HETATM  174  O   UNK N   1     -11.517   2.880  -0.210  0.00  0.00    -0.271 OA
HETATM  175  H   UNK N   1     -13.989   3.936   1.352  0.00  0.00     0.163 HD
BRANCH 173 176
HETATM  176  C   UNK N   1     -12.302   2.044   1.817  0.00  0.00     0.172 C 
HETATM  177  C   UNK N   1     -10.898   1.833   2.378  0.00  0.00     0.042 C 
BRANCH 176 178
HETATM  178  N   UNK N   1     -12.874   0.848   1.266  0.00  0.00    -0.346 N 
HETATM  179  C   UNK N   1     -12.336   0.182   0.211  0.00  0.00     0.241 C 
HETATM  180  O   UNK N   1     -11.177   0.357  -0.139  0.00  0.00    -0.271 OA
HETATM  181  H   UNK N   1     -13.697   0.492   1.672  0.00  0.00     0.163 HD
BRANCH 179 182
HETATM  182  C   UNK N   1     -13.208  -0.690  -0.593  0.00  0.00     0.180 C 
BRANCH 182 183
HETATM  183  C   UNK N   1     -14.318   0.163  -1.251  0.00  0.00     0.073 C 
BRANCH 183 184
HETATM  184  C   UNK N   1     -15.709   0.051  -0.688  0.00  0.00    -0.056 A 
HETATM  185  C   UNK N   1     -16.326   1.160  -0.093  0.00  0.00     0.010 A 
HETATM  186  C   UNK N   1     -17.644   1.065   0.373  0.00  0.00     0.037 A 
HETATM  187  C   UNK N   1     -18.350  -0.136   0.234  0.00  0.00     0.065 A 
HETATM  188  C   UNK N   1     -17.739  -1.239  -0.366  0.00  0.00     0.037 A 
HETATM  189  C   UNK N   1     -16.425  -1.143  -0.831  0.00  0.00     0.010 A 
BRANCH 187 190
HETATM  190  O   UNK N   1     -19.616  -0.229   0.674  0.00  0.00    -0.361 OA
HETATM  191  H   UNK N   1     -20.114   0.503   0.980  0.00  0.00     0.217 HD
ENDBRANCH 187 190
ENDBRANCH 183 184
ENDBRANCH 182 183
BRANCH 182 192
HETATM  192  N   UNK N   1     -13.728  -1.738   0.235  0.00  0.00    -0.347 N 
HETATM  193  C   UNK N   1     -12.944  -2.674   0.826  0.00  0.00     0.221 C 
HETATM  194  O   UNK N   1     -11.729  -2.651   0.695  0.00  0.00    -0.273 OA
HETATM  195  H   UNK N   1     -14.701  -1.780   0.382  0.00  0.00     0.163 HD
BRANCH 193 196
HETATM  196  C   UNK N   1     -13.600  -3.817   1.528  0.00  0.00     0.129 C 
BRANCH 196 197
HETATM  197  C   UNK N   1     -14.809  -4.207   0.731  0.00  0.00    -0.022 C 
HETATM  198  C   UNK N   1     -14.686  -4.546  -0.557  0.00  0.00    -0.031 C 
BRANCH 198 199
HETATM  199  C   UNK N   1     -15.883  -4.711  -1.432  0.00  0.00     0.022 C 
HETATM  200  C   UNK N   1     -16.854  -5.722  -0.861  0.00  0.00     0.009 C 
ENDBRANCH 198 199
ENDBRANCH 196 197
ENDBRANCH 193 196
ENDBRANCH 182 192
ENDBRANCH 179 182
ENDBRANCH 176 178
ENDBRANCH 173 176
ENDBRANCH 171 172
BRANCH 171 201
HETATM  201  C   UNK N   1     -14.878   4.501  -1.213  0.00  0.00     0.144 C 
BRANCH 201 202
HETATM  202  C   UNK N   1     -16.052   4.861  -0.353  0.00  0.00     0.141 C 
HETATM  203  O   UNK N   1     -16.207   4.331   0.735  0.00  0.00    -0.650 OA
BRANCH 202 204
HETATM  204  O   UNK N   1     -16.942   5.772  -0.785  0.00  0.00    -0.776 OA
HETATM  205  H   UNK N   1     -16.703   6.626  -1.086  0.00  0.00     0.167 HD
ENDBRANCH 202 204
ENDBRANCH 201 202
ENDBRANCH 171 201
ENDBRANCH 168 171
ENDBRANCH 165 167
ENDBRANCH 162 165
ENDBRANCH 160 161
BRANCH 160 206
HETATM  206  C   UNK N   1     -13.027   9.136  -1.790  0.00  0.00     0.013 C 
HETATM  207  C   UNK N   1     -12.252   9.974  -2.796  0.00  0.00     0.012 C 
BRANCH 206 208
HETATM  208  C   UNK N   1     -13.840  10.016  -0.852  0.00  0.00     0.002 C 
HETATM  209  C   UNK N   1     -15.084   9.260  -0.411  0.00  0.00     0.005 C 
ENDBRANCH 206 208
ENDBRANCH 160 206
ENDBRANCH 157 160
ENDBRANCH 148 156
ENDBRANCH 145 148
ENDBRANCH 139 144
ENDBRANCH 136 139
ENDBRANCH 128 135
ENDBRANCH 125 128
ENDBRANCH 123 124
BRANCH 123 210
HETATM  210  C   UNK N   1      -6.213  12.481  -2.703  0.00  0.00     0.199 C 
BRANCH 210 211
HETATM  211  O   UNK N   1      -6.932  13.339  -1.864  0.00  0.00    -0.398 OA
HETATM  212  H   UNK N   1      -6.665  14.068  -1.281  0.00  0.00     0.209 HD
ENDBRANCH 210 211
ENDBRANCH 123 210
ENDBRANCH 120 123
ENDBRANCH 109 119
ENDBRANCH 106 109
ENDBRANCH  92 105
ENDBRANCH  89  92
ENDBRANCH  87  88
BRANCH  87 213
HETATM  213  C   UNK N   1       1.042  17.597  -1.024  0.00  0.00     0.035 C 
BRANCH 213 214
HETATM  214  C   UNK N   1       0.616  18.975  -0.565  0.00  0.00     0.004 C 
BRANCH 214 215
HETATM  215  C   UNK N   1      -0.652  19.377  -1.284  0.00  0.00     0.019 C 
BRANCH 215 216
HETATM  216  C   UNK N   1      -1.376  20.412  -0.453  0.00  0.00     0.111 C 
BRANCH 216 217
HETATM  217  N   UNK N   1      -2.807  20.220  -0.594  0.00  0.00    -0.430 N 
HETATM  218  H   UNK N   1      -3.427  21.024  -0.692  0.00  0.00     0.149 HD
HETATM  219  H   UNK N   1      -3.195  19.277  -0.594  0.00  0.00     0.149 HD
ENDBRANCH 216 217
ENDBRANCH 215 216
ENDBRANCH 214 215
ENDBRANCH 213 214
ENDBRANCH  87 213
ENDBRANCH  84  87
ENDBRANCH  82  83
BRANCH  82 220
HETATM  220  C   UNK N   1       4.629  17.304   1.281  0.00  0.00     0.009 C 
HETATM  221  C   UNK N   1       5.690  17.284   0.192  0.00  0.00     0.012 C 
HETATM  222  C   UNK N   1       4.429  18.742   1.717  0.00  0.00     0.012 C 
ENDBRANCH  82 220
ENDBRANCH  79  82
ENDBRANCH  73  78
ENDBRANCH  70  73
ENDBRANCH  68  69
ENDBRANCH  65  68
ENDBRANCH  56  64
ENDBRANCH  53  56
ENDBRANCH  47  52
ENDBRANCH  44  47
ENDBRANCH  42  43
BRANCH  42 223
HETATM  223  C   UNK N   1       5.462   6.384   2.109  0.00  0.00     0.199 C 
BRANCH 223 224
HETATM  224  O   UNK N   1       4.235   5.907   1.651  0.00  0.00    -0.398 OA
HETATM  225  H   UNK N   1       3.521   6.481   1.333  0.00  0.00     0.209 HD
ENDBRANCH 223 224
ENDBRANCH  42 223
ENDBRANCH  39  42
ENDBRANCH  36  38
ENDBRANCH  33  36
ENDBRANCH  19  32
ENDBRANCH  16  19
ENDBRANCH  14  15
BRANCH  14 226
HETATM  226  C   UNK N   1      11.851   2.525   1.148  0.00  0.00     0.035 C 
BRANCH 226 227
HETATM  227  C   UNK N   1      12.462   3.838   1.593  0.00  0.00     0.004 C 
BRANCH 227 228
HETATM  228  C   UNK N   1      13.350   4.350   0.465  0.00  0.00     0.019 C 
BRANCH 228 229
HETATM  229  C   UNK N   1      14.532   3.421   0.233  0.00  0.00     0.111 C 
BRANCH 229 230
HETATM  230  N   UNK N   1      15.140   3.707  -1.054  0.00  0.00    -0.430 N 
HETATM  231  H   UNK N   1      15.527   3.437  -1.958  0.00  0.00     0.149 HD
HETATM  232  H   UNK N   1      15.226   4.723  -1.054  0.00  0.00     0.149 HD
ENDBRANCH 229 230
ENDBRANCH 228 229
ENDBRANCH 227 228
ENDBRANCH 226 227
ENDBRANCH  14 226
ENDBRANCH  11  14
ENDBRANCH   5  10
ENDBRANCH   1   5
BRANCH   2 233
HETATM  233  C   UNK N   1      12.741  -1.539   0.271  0.00  0.00     0.177 C 
BRANCH 233 234
HETATM  234  C   UNK N   1      12.128  -2.203   1.482  0.00  0.00     0.241 C 
HETATM  235  N   UNK N   1      11.890  -3.533   1.523  0.00  0.00    -0.346 N 
HETATM  236  H   UNK N   1      11.460  -3.899   2.329  0.00  0.00     0.163 HD
HETATM  237  O   UNK N   1      11.815  -1.521   2.446  0.00  0.00    -0.271 OA
BRANCH 235 238
HETATM  238  C   UNK N   1      12.224  -4.450   0.461  0.00  0.00     0.177 C 
BRANCH 238 239
HETATM  239  C   UNK N   1      13.692  -4.385   0.135  0.00  0.00     0.241 C 
HETATM  240  N   UNK N   1      14.051  -3.989  -1.110  0.00  0.00    -0.346 N 
HETATM  241  H   UNK N   1      13.336  -3.532  -1.610  0.00  0.00     0.163 HD
HETATM  242  O   UNK N   1      14.515  -4.753   0.954  0.00  0.00    -0.271 OA
BRANCH 240 243
HETATM  243  C   UNK N   1      15.294  -4.117  -1.838  0.00  0.00     0.186 C 
BRANCH 243 244
HETATM  244  C   UNK N   1      15.056  -5.285  -2.745  0.00  0.00     0.241 C 
HETATM  245  O   UNK N   1      14.845  -5.093  -3.930  0.00  0.00    -0.271 OA
HETATM  246  N   UNK N   1      15.002  -6.549  -2.253  0.00  0.00    -0.346 N 
HETATM  247  H   UNK N   1      14.788  -7.285  -2.871  0.00  0.00     0.163 HD
BRANCH 246 248
HETATM  248  C   UNK N   1      15.248  -6.867  -0.854  0.00  0.00     0.180 C 
BRANCH 248 249
HETATM  249  C   UNK N   1      16.516  -7.676  -0.711  0.00  0.00     0.241 C 
HETATM  250  N   UNK N   1      17.016  -7.940   0.531  0.00  0.00    -0.346 N 
HETATM  251  H   UNK N   1      16.440  -7.714   1.297  0.00  0.00     0.163 HD
HETATM  252  O   UNK N   1      17.115  -8.025  -1.715  0.00  0.00    -0.271 OA
BRANCH 250 253
HETATM  253  C   UNK N   1      18.319  -8.522   0.838  0.00  0.00     0.177 C 
BRANCH 253 254
HETATM  254  C   UNK N   1      18.256  -9.800   1.630  0.00  0.00     0.241 C 
HETATM  255  O   UNK N   1      18.659  -9.783   2.781  0.00  0.00    -0.271 OA
HETATM  256  N   UNK N   1      17.842 -10.979   1.102  0.00  0.00    -0.344 N 
HETATM  257  H   UNK N   1      17.935 -11.784   1.660  0.00  0.00     0.163 HD
BRANCH 256 258
HETATM  258  C   UNK N   1      17.275 -11.144  -0.216  0.00  0.00     0.200 C 
BRANCH 258 259
HETATM  259  C   UNK N   1      15.935 -11.783  -0.048  0.00  0.00     0.243 C 
HETATM  260  O   UNK N   1      15.815 -12.763   0.673  0.00  0.00    -0.271 OA
HETATM  261  N   UNK N   1      14.858 -11.192  -0.608  0.00  0.00    -0.346 N 
HETATM  262  H   UNK N   1      15.024 -10.490  -1.277  0.00  0.00     0.163 HD
BRANCH 261 263
HETATM  263  C   UNK N   1      13.479 -11.507  -0.302  0.00  0.00     0.176 C 
BRANCH 263 264
HETATM  264  C   UNK N   1      13.088 -10.995   1.067  0.00  0.00     0.241 C 
HETATM  265  N   UNK N   1      12.149 -10.012   1.175  0.00  0.00    -0.346 N 
HETATM  266  H   UNK N   1      12.048  -9.531   2.028  0.00  0.00     0.163 HD
HETATM  267  O   UNK N   1      13.666 -11.393   2.059  0.00  0.00    -0.271 OA
BRANCH 265 268
HETATM  268  C   UNK N   1      11.297  -9.663   0.057  0.00  0.00     0.177 C 
BRANCH 268 269
HETATM  269  C   UNK N   1      10.282 -10.737  -0.097  0.00  0.00     0.241 C 
HETATM  270  O   UNK N   1       9.499 -10.763  -1.019  0.00  0.00    -0.271 OA
HETATM  271  N   UNK N   1      10.253 -11.660   0.882  0.00  0.00    -0.346 N 
HETATM  272  H   UNK N   1      10.938 -11.623   1.588  0.00  0.00     0.163 HD
BRANCH 271 273
HETATM  273  C   UNK N   1       9.288 -12.672   0.936  0.00  0.00     0.177 C 
BRANCH 273 274
HETATM  274  C   UNK N   1       8.425 -12.388   2.114  0.00  0.00     0.240 C 
HETATM  275  N   UNK N   1       7.094 -12.342   1.906  0.00  0.00    -0.351 N 
HETATM  276  H   UNK N   1       6.717 -11.766   1.203  0.00  0.00     0.163 HD
HETATM  277  O   UNK N   1       8.882 -12.419   3.245  0.00  0.00    -0.271 OA
BRANCH 275 278
HETATM  278  C   UNK N   1       6.233 -13.149   2.728  0.00  0.00     0.225 C 
BRANCH 278 279
HETATM  279  C   UNK N   1       6.389 -14.564   2.203  0.00  0.00     0.236 C 
HETATM  280  O   UNK N   1       5.633 -15.448   2.568  0.00  0.00    -0.272 OA
HETATM  281  N   UNK N   1       7.349 -14.802   1.263  0.00  0.00    -0.346 N 
HETATM  282  H   UNK N   1       7.987 -14.066   1.121  0.00  0.00     0.163 HD
BRANCH 281 283
HETATM  283  C   UNK N   1       7.567 -15.968   0.449  0.00  0.00     0.177 C 
BRANCH 283 284
HETATM  284  C   UNK N   1       6.430 -16.051  -0.505  0.00  0.00     0.241 C 
HETATM  285  N   UNK N   1       5.956 -14.886  -1.024  0.00  0.00    -0.344 N 
HETATM  286  H   UNK N   1       6.579 -14.143  -1.195  0.00  0.00     0.163 HD
HETATM  287  O   UNK N   1       5.802 -17.089  -0.619  0.00  0.00    -0.271 OA
BRANCH 285 288
HETATM  288  C   UNK N   1       4.561 -14.722  -1.326  0.00  0.00     0.200 C 
BRANCH 288 289
HETATM  289  C   UNK N   1       3.852 -14.782   0.005  0.00  0.00     0.243 C 
HETATM  290  O   UNK N   1       3.912 -13.833   0.774  0.00  0.00    -0.271 OA
HETATM  291  N   UNK N   1       3.285 -15.933   0.430  0.00  0.00    -0.345 N 
HETATM  292  H   UNK N   1       2.979 -15.986   1.364  0.00  0.00     0.163 HD
BRANCH 291 293
HETATM  293  C   UNK N   1       3.108 -17.083  -0.410  0.00  0.00     0.185 C 
BRANCH 293 294
HETATM  294  C   UNK N   1       3.063 -18.374   0.397  0.00  0.00     0.137 C 
BRANCH 294 295
HETATM  295  C   UNK N   1       3.733 -19.508  -0.329  0.00  0.00     0.217 C 
HETATM  296  O   UNK N   1       4.191 -19.353  -1.452  0.00  0.00    -0.274 OA
HETATM  297  N   UNK N   1       3.857 -20.702   0.278  0.00  0.00    -0.370 N 
HETATM  298  H   UNK N   1       3.146 -21.218   0.723  0.00  0.00     0.159 HD
HETATM  299  H   UNK N   1       4.756 -21.104   0.278  0.00  0.00     0.159 HD
ENDBRANCH 294 295
ENDBRANCH 293 294
BRANCH 293 300
HETATM  300  C   UNK N   1       2.019 -16.898  -1.439  0.00  0.00     0.241 C 
HETATM  301  N   UNK N   1       0.742 -16.510  -1.141  0.00  0.00    -0.346 N 
HETATM  302  H   UNK N   1       0.118 -16.462  -1.901  0.00  0.00     0.163 HD
HETATM  303  O   UNK N   1       2.315 -17.083  -2.607  0.00  0.00    -0.271 OA
BRANCH 301 304
HETATM  304  C   UNK N   1       0.193 -16.157   0.161  0.00  0.00     0.177 C 
BRANCH 304 305
HETATM  305  C   UNK N   1       0.867 -14.917   0.740  0.00  0.00     0.241 C 
HETATM  306  N   UNK N   1       1.054 -13.765   0.039  0.00  0.00    -0.346 N 
HETATM  307  H   UNK N   1       1.744 -13.145   0.366  0.00  0.00     0.163 HD
HETATM  308  O   UNK N   1       1.312 -14.967   1.878  0.00  0.00    -0.271 OA
BRANCH 306 309
HETATM  309  C   UNK N   1       0.325 -13.379  -1.144  0.00  0.00     0.176 C 
BRANCH 309 310
HETATM  310  C   UNK N   1      -0.829 -12.562  -0.647  0.00  0.00     0.240 C 
HETATM  311  O   UNK N   1      -1.685 -12.162  -1.423  0.00  0.00    -0.271 OA
HETATM  312  N   UNK N   1      -1.013 -12.507   0.706  0.00  0.00    -0.351 N 
HETATM  313  H   UNK N   1      -0.222 -12.426   1.286  0.00  0.00     0.163 HD
BRANCH 312 314
HETATM  314  C   UNK N   1      -2.306 -12.562   1.316  0.00  0.00     0.225 C 
BRANCH 314 315
HETATM  315  C   UNK N   1      -2.896 -13.830   0.795  0.00  0.00     0.236 C 
HETATM  316  O   UNK N   1      -3.401 -13.795  -0.313  0.00  0.00    -0.272 OA
HETATM  317  N   UNK N   1      -2.660 -15.027   1.417  0.00  0.00    -0.347 N 
HETATM  318  H   UNK N   1      -2.241 -15.010   2.307  0.00  0.00     0.163 HD
BRANCH 317 319
HETATM  319  C   UNK N   1      -2.993 -16.333   0.839  0.00  0.00     0.172 C 
HETATM  320  C   UNK N   1      -3.238 -17.336   1.947  0.00  0.00     0.042 C 
BRANCH 319 321
HETATM  321  C   UNK N   1      -4.202 -16.238  -0.023  0.00  0.00     0.240 C 
HETATM  322  N   UNK N   1      -5.324 -15.745   0.553  0.00  0.00    -0.346 N 
HETATM  323  H   UNK N   1      -5.402 -15.879   1.525  0.00  0.00     0.163 HD
HETATM  324  O   UNK N   1      -4.088 -16.358  -1.233  0.00  0.00    -0.271 OA
BRANCH 322 325
HETATM  325  C   UNK N   1      -6.422 -15.046  -0.074  0.00  0.00     0.176 C 
BRANCH 325 326
HETATM  326  C   UNK N   1      -6.302 -13.637   0.439  0.00  0.00     0.241 C 
HETATM  327  N   UNK N   1      -5.821 -12.666  -0.377  0.00  0.00    -0.346 N 
HETATM  328  H   UNK N   1      -5.538 -12.925  -1.284  0.00  0.00     0.163 HD
HETATM  329  O   UNK N   1      -6.556 -13.394   1.610  0.00  0.00    -0.271 OA
BRANCH 327 330
HETATM  330  C   UNK N   1      -5.696 -11.281  -0.003  0.00  0.00     0.172 C 
HETATM  331  C   UNK N   1      -4.251 -10.830  -0.078  0.00  0.00     0.042 C 
BRANCH 330 332
HETATM  332  C   UNK N   1      -6.558 -10.530  -0.968  0.00  0.00     0.240 C 
HETATM  333  O   UNK N   1      -6.062  -9.823  -1.832  0.00  0.00    -0.271 OA
HETATM  334  N   UNK N   1      -7.900 -10.665  -0.904  0.00  0.00    -0.346 N 
HETATM  335  H   UNK N   1      -8.463 -10.252  -1.598  0.00  0.00     0.163 HD
BRANCH 334 336
HETATM  336  C   UNK N   1      -8.518 -11.406   0.169  0.00  0.00     0.176 C 
BRANCH 336 337
HETATM  337  C   UNK N   1      -8.774 -10.654   1.457  0.00  0.00     0.241 C 
HETATM  338  N   UNK N   1      -9.259  -9.380   1.505  0.00  0.00    -0.346 N 
HETATM  339  H   UNK N   1      -9.475  -9.029   2.399  0.00  0.00     0.163 HD
HETATM  340  O   UNK N   1      -8.541 -11.227   2.508  0.00  0.00    -0.271 OA
BRANCH 338 341
HETATM  341  C   UNK N   1      -9.491  -8.480   0.386  0.00  0.00     0.176 C 
BRANCH 341 342
HETATM  342  C   UNK N   1      -8.223  -7.798  -0.073  0.00  0.00     0.238 C 
HETATM  343  O   UNK N   1      -8.266  -6.995  -0.992  0.00  0.00    -0.271 OA
HETATM  344  N   UNK N   1      -7.051  -8.021   0.557  0.00  0.00    -0.368 N 
HETATM  345  H   UNK N   1      -6.764  -8.843   1.017  0.00  0.00     0.159 HD
HETATM  346  H   UNK N   1      -6.408  -7.275   0.557  0.00  0.00     0.159 HD
ENDBRANCH 341 342
BRANCH 341 347
HETATM  347  C   UNK N   1     -10.298  -9.104  -0.765  0.00  0.00     0.038 C 
BRANCH 347 348
HETATM  348  C   UNK N   1     -11.746  -9.449  -0.420  0.00  0.00    -0.020 C 
HETATM  349  C   UNK N   1     -12.487  -8.261   0.164  0.00  0.00     0.009 C 
HETATM  350  C   UNK N   1     -11.861 -10.650   0.499  0.00  0.00     0.009 C 
ENDBRANCH 347 348
ENDBRANCH 341 347
ENDBRANCH 338 341
ENDBRANCH 336 337
BRANCH 336 351
HETATM  351  C   UNK N   1      -9.378 -12.598  -0.238  0.00  0.00     0.036 C 
BRANCH 351 352
HETATM  352  C   UNK N   1      -9.669 -13.507   0.958  0.00  0.00     0.023 C 
BRANCH 352 353
HETATM  353  C   UNK N   1      -9.524 -14.986   0.628  0.00  0.00     0.138 C 
BRANCH 353 354
HETATM  354  N   UNK N   1     -10.209 -15.298  -0.601  0.00  0.00    -0.227 N 
HETATM  355  C   UNK N   1     -11.376 -16.099  -0.635  0.00  0.00     0.665 C 
HETATM  356  N   UNK N   1     -11.890 -16.555   0.448  0.00  0.00    -0.235 N 
HETATM  357  N   UNK N   1     -12.013 -16.342  -1.869  0.00  0.00    -0.235 N 
HETATM  358  H   UNK N   1     -12.390 -16.389   1.280  0.00  0.00     0.174 HD
ATOM    359  HN  UNK N   1     -11.684 -17.554   0.448  1.00  0.00     0.174 HD
HETATM  360  H   UNK N   1     -12.383 -16.042  -2.731  0.00  0.00     0.174 HD
HETATM  361  H   UNK N   1     -12.169 -17.314  -1.869  0.00  0.00     0.174 HD
HETATM  362  H   UNK N   1      -9.853 -14.942  -1.447  0.00  0.00     0.177 HD
ENDBRANCH 353 354
ENDBRANCH 352 353
ENDBRANCH 351 352
ENDBRANCH 336 351
ENDBRANCH 334 336
ENDBRANCH 330 332
ENDBRANCH 327 330
ENDBRANCH 325 326
BRANCH 325 363
HETATM  363  C   UNK N   1      -6.464 -15.059  -1.618  0.00  0.00     0.036 C 
BRANCH 363 364
HETATM  364  C   UNK N   1      -6.684 -16.424  -2.271  0.00  0.00     0.023 C 
BRANCH 364 365
HETATM  365  C   UNK N   1      -7.816 -17.213  -1.646  0.00  0.00     0.138 C 
BRANCH 365 366
HETATM  366  N   UNK N   1      -7.317 -17.907  -0.489  0.00  0.00    -0.227 N 
HETATM  367  C   UNK N   1      -8.153 -18.714   0.316  0.00  0.00     0.665 C 
HETATM  368  N   UNK N   1      -7.670 -19.288   1.353  0.00  0.00    -0.235 N 
HETATM  369  N   UNK N   1      -9.516 -18.888  -0.012  0.00  0.00    -0.235 N 
HETATM  370  H   UNK N   1      -7.866 -19.831   2.151  0.00  0.00     0.174 HD
ATOM    371  HN  UNK N   1      -6.665 -19.109   1.353  1.00  0.00     0.174 HD
HETATM  372  H   UNK N   1     -10.097 -18.127  -0.240  0.00  0.00     0.174 HD
HETATM  373  H   UNK N   1      -9.896 -19.797  -0.012  0.00  0.00     0.174 HD
HETATM  374  H   UNK N   1      -6.366 -17.818  -0.251  0.00  0.00     0.177 HD
ENDBRANCH 365 366
ENDBRANCH 364 365
ENDBRANCH 363 364
ENDBRANCH 325 363
ENDBRANCH 322 325
ENDBRANCH 319 321
ENDBRANCH 317 319
ENDBRANCH 314 315
ENDBRANCH 312 314
ENDBRANCH 309 310
BRANCH 309 375
HETATM  375  C   UNK N   1       1.206 -12.643  -2.159  0.00  0.00     0.036 C 
BRANCH 375 376
HETATM  376  C   UNK N   1       1.481 -11.187  -1.804  0.00  0.00     0.023 C 
BRANCH 376 377
HETATM  377  C   UNK N   1       2.182 -11.086  -0.469  0.00  0.00     0.138 C 
BRANCH 377 378
HETATM  378  N   UNK N   1       2.263  -9.710  -0.072  0.00  0.00    -0.227 N 
HETATM  379  C   UNK N   1       3.194  -9.286   0.907  0.00  0.00     0.665 C 
HETATM  380  N   UNK N   1       3.268  -7.921   1.252  0.00  0.00    -0.235 N 
HETATM  381  N   UNK N   1       4.013 -10.122   1.434  0.00  0.00    -0.235 N 
HETATM  382  H   UNK N   1       4.120  -7.490   1.493  0.00  0.00     0.174 HD
HETATM  383  H   UNK N   1       2.444  -7.383   1.252  0.00  0.00     0.174 HD
HETATM  384  H   UNK N   1       3.772 -10.987   1.839  0.00  0.00     0.174 HD
ATOM    385  HN  UNK N   1       5.001  -9.867   1.434  1.00  0.00     0.174 HD
HETATM  386  H   UNK N   1       1.662  -9.049  -0.486  0.00  0.00     0.177 HD
ENDBRANCH 377 378
ENDBRANCH 376 377
ENDBRANCH 375 376
ENDBRANCH 309 375
ENDBRANCH 306 309
ENDBRANCH 304 305
BRANCH 304 387
HETATM  387  C   UNK N   1       0.330 -17.335   1.150  0.00  0.00     0.044 C 
BRANCH 387 388
HETATM  388  C   UNK N   1      -0.633 -18.513   1.022  0.00  0.00     0.105 C 
BRANCH 388 389
HETATM  389  C   UNK N   1      -0.596 -19.222  -0.288  0.00  0.00     0.215 C 
HETATM  390  O   UNK N   1      -0.078 -20.324  -0.368  0.00  0.00    -0.274 OA
HETATM  391  N   UNK N   1      -1.231 -18.700  -1.355  0.00  0.00    -0.370 N 
HETATM  392  H   UNK N   1      -1.132 -18.107  -2.135  0.00  0.00     0.159 HD
HETATM  393  H   UNK N   1      -2.153 -19.046  -1.355  0.00  0.00     0.159 HD
ENDBRANCH 388 389
ENDBRANCH 387 388
ENDBRANCH 304 387
ENDBRANCH 301 304
ENDBRANCH 293 300
ENDBRANCH 291 293
ENDBRANCH 288 289
BRANCH 288 394
HETATM  394  C   UNK N   1       4.315 -13.387  -2.030  0.00  0.00     0.199 C 
BRANCH 394 395
HETATM  395  O   UNK N   1       4.867 -12.323  -1.307  0.00  0.00    -0.398 OA
HETATM  396  H   UNK N   1       5.697 -12.285  -0.807  0.00  0.00     0.209 HD
ENDBRANCH 394 395
ENDBRANCH 288 394
ENDBRANCH 285 288
ENDBRANCH 283 284
BRANCH 283 397
HETATM  397  C   UNK N   1       7.793 -17.189   1.330  0.00  0.00     0.044 C 
BRANCH 397 398
HETATM  398  C   UNK N   1       8.725 -18.190   0.675  0.00  0.00     0.105 C 
BRANCH 398 399
HETATM  399  C   UNK N   1       7.969 -19.183  -0.136  0.00  0.00     0.215 C 
HETATM  400  O   UNK N   1       8.206 -19.302  -1.326  0.00  0.00    -0.274 OA
HETATM  401  N   UNK N   1       7.041 -19.965   0.448  0.00  0.00    -0.370 N 
HETATM  402  H   UNK N   1       6.207 -19.663   0.875  0.00  0.00     0.159 HD
HETATM  403  H   UNK N   1       7.214 -20.934   0.448  0.00  0.00     0.159 HD
ENDBRANCH 398 399
ENDBRANCH 397 398
ENDBRANCH 283 397
ENDBRANCH 281 283
ENDBRANCH 278 279
ENDBRANCH 275 278
ENDBRANCH 273 274
BRANCH 273 404
HETATM  404  C   UNK N   1      10.004 -14.014   1.078  0.00  0.00     0.044 C 
BRANCH 404 405
HETATM  405  C   UNK N   1      10.394 -14.538  -0.296  0.00  0.00     0.105 C 
BRANCH 405 406
HETATM  406  C   UNK N   1      10.868 -15.961  -0.266  0.00  0.00     0.215 C 
HETATM  407  O   UNK N   1      11.450 -16.407   0.711  0.00  0.00    -0.274 OA
HETATM  408  N   UNK N   1      10.690 -16.740  -1.350  0.00  0.00    -0.370 N 
HETATM  409  H   UNK N   1      10.132 -16.911  -2.142  0.00  0.00     0.159 HD
HETATM  410  H   UNK N   1      11.411 -17.410  -1.350  0.00  0.00     0.159 HD
ENDBRANCH 405 406
ENDBRANCH 404 405
ENDBRANCH 273 404
ENDBRANCH 271 273
ENDBRANCH 268 269
BRANCH 268 411
HETATM  411  C   UNK N   1      10.618  -8.315   0.280  0.00  0.00     0.044 C 
BRANCH 411 412
HETATM  412  C   UNK N   1       9.722  -7.924  -0.896  0.00  0.00     0.105 C 
BRANCH 412 413
HETATM  413  C   UNK N   1      10.482  -7.696  -2.166  0.00  0.00     0.215 C 
HETATM  414  O   UNK N   1      11.110  -8.605  -2.683  0.00  0.00    -0.274 OA
HETATM  415  N   UNK N   1      10.426  -6.496  -2.771  0.00  0.00    -0.370 N 
HETATM  416  H   UNK N   1      11.166  -6.021  -3.214  0.00  0.00     0.159 HD
HETATM  417  H   UNK N   1       9.551  -6.044  -2.771  0.00  0.00     0.159 HD
ENDBRANCH 412 413
ENDBRANCH 411 412
ENDBRANCH 268 411
ENDBRANCH 265 268
ENDBRANCH 263 264
BRANCH 263 418
HETATM  418  C   UNK N   1      12.948 -12.841  -0.819  0.00  0.00     0.036 C 
BRANCH 418 419
HETATM  419  C   UNK N   1      13.528 -14.048  -0.131  0.00  0.00     0.023 C 
BRANCH 419 420
HETATM  420  C   UNK N   1      14.042 -15.009  -1.187  0.00  0.00     0.138 C 
BRANCH 420 421
HETATM  421  N   UNK N   1      15.378 -15.426  -0.846  0.00  0.00    -0.227 N 
HETATM  422  C   UNK N   1      15.650 -16.190   0.317  0.00  0.00     0.665 C 
HETATM  423  N   UNK N   1      16.862 -16.451   0.634  0.00  0.00    -0.235 N 
HETATM  424  N   UNK N   1      14.597 -16.633   1.150  0.00  0.00    -0.235 N 
HETATM  425  H   UNK N   1      17.154 -17.359   0.879  0.00  0.00     0.174 HD
ATOM    426  HN  UNK N   1      17.546 -15.694   0.634  1.00  0.00     0.174 HD
HETATM  427  H   UNK N   1      13.963 -16.153   1.730  0.00  0.00     0.174 HD
HETATM  428  H   UNK N   1      14.474 -17.610   1.150  0.00  0.00     0.174 HD
HETATM  429  H   UNK N   1      16.123 -15.173  -1.438  0.00  0.00     0.177 HD
ENDBRANCH 420 421
ENDBRANCH 419 420
ENDBRANCH 418 419
ENDBRANCH 263 418
ENDBRANCH 261 263
ENDBRANCH 258 259
BRANCH 258 430
HETATM  430  C   UNK N   1      18.193 -11.957  -1.125  0.00  0.00     0.199 C 
BRANCH 430 431
HETATM  431  O   UNK N   1      18.359 -13.260  -0.656  0.00  0.00    -0.398 OA
HETATM  432  H   UNK N   1      17.632 -13.814  -0.330  0.00  0.00     0.209 HD
ENDBRANCH 430 431
ENDBRANCH 258 430
ENDBRANCH 256 258
ENDBRANCH 253 254
BRANCH 253 433
HETATM  433  C   UNK N   1      19.298  -8.641  -0.324  0.00  0.00     0.045 C 
BRANCH 433 434
HETATM  434  C   UNK N   1      20.377  -7.578  -0.233  0.00  0.00     0.076 C 
BRANCH 434 435
HETATM  435  S   UNK N   1      19.898  -6.097  -1.169  0.00  0.00    -0.173 SA
HETATM  436  C   UNK N   1      20.234  -5.006   0.239  0.00  0.00     0.089 C 
ENDBRANCH 434 435
ENDBRANCH 433 434
ENDBRANCH 253 433
ENDBRANCH 250 253
ENDBRANCH 248 249
BRANCH 248 437
HETATM  437  C   UNK N   1      14.009  -7.502  -0.249  0.00  0.00     0.013 C 
HETATM  438  C   UNK N   1      13.664  -8.689  -1.102  0.00  0.00     0.012 C 
BRANCH 437 439
HETATM  439  C   UNK N   1      14.183  -7.860   1.229  0.00  0.00     0.002 C 
HETATM  440  C   UNK N   1      13.120  -7.199   2.091  0.00  0.00     0.005 C 
ENDBRANCH 437 439
ENDBRANCH 248 437
ENDBRANCH 246 248
ENDBRANCH 243 244
BRANCH 243 441
HETATM  441  C   UNK N   1      16.625  -4.364  -1.099  0.00  0.00     0.144 C 
BRANCH 441 442
HETATM  442  C   UNK N   1      16.919  -3.616   0.151  0.00  0.00     0.141 C 
HETATM  443  O   UNK N   1      16.929  -2.399   0.163  0.00  0.00    -0.650 OA
BRANCH 442 444
HETATM  444  O   UNK N   1      17.247  -4.303   1.262  0.00  0.00    -0.776 OA
HETATM  445  H   UNK N   1      16.947  -4.740   2.035  0.00  0.00     0.167 HD
ENDBRANCH 442 444
ENDBRANCH 441 442
ENDBRANCH 243 441
ENDBRANCH 240 243
ENDBRANCH 238 239
BRANCH 238 446
HETATM  446  C   UNK N   1      11.371  -4.321  -0.820  0.00  0.00     0.044 C 
BRANCH 446 447
HETATM  447  C   UNK N   1      10.045  -3.580  -0.757  0.00  0.00     0.105 C 
BRANCH 447 448
HETATM  448  C   UNK N   1       9.047  -4.148   0.190  0.00  0.00     0.215 C 
HETATM  449  O   UNK N   1       8.573  -3.436   1.057  0.00  0.00    -0.274 OA
HETATM  450  N   UNK N   1       8.615  -5.413   0.053  0.00  0.00    -0.370 N 
HETATM  451  H   UNK N   1       7.654  -5.603  -0.047  0.00  0.00     0.159 HD
HETATM  452  H   UNK N   1       9.263  -6.155   0.053  0.00  0.00     0.159 HD
ENDBRANCH 447 448
ENDBRANCH 446 447
ENDBRANCH 238 446
ENDBRANCH 235 238
ENDBRANCH 233 234
BRANCH 233 453
HETATM  453  C   UNK N   1      14.026  -0.846   0.707  0.00  0.00     0.038 C 
BRANCH 453 454
HETATM  454  C   UNK N   1      14.671   0.003  -0.376  0.00  0.00    -0.020 C 
HETATM  455  C   UNK N   1      14.965  -0.811  -1.621  0.00  0.00     0.009 C 
HETATM  456  C   UNK N   1      15.972   0.547   0.173  0.00  0.00     0.009 C 
ENDBRANCH 453 454
ENDBRANCH 233 453
ENDBRANCH   2 233
TORSDOF 187
