REMARK  20 active torsions:
REMARK  status: ('A' for Active; 'I' for Inactive)
REMARK    1  A    between atoms: O_1  and  C_2 
REMARK    2  A    between atoms: O_1  and  C_18 
REMARK    3  A    between atoms: C_2  and  C_3 
REMARK    4  A    between atoms: C_3  and  C_4 
REMARK    5  A    between atoms: C_3  and  O_6 
REMARK    6  A    between atoms: C_4  and  O_5 
REMARK    7  A    between atoms: O_5  and  C_7 
REMARK    8  A    between atoms: O_6  and  C_29 
REMARK    9  A    between atoms: C_7  and  C_8 
REMARK   10  A    between atoms: C_8  and  C_10 
REMARK   11  A    between atoms: C_10  and  C_11 
REMARK   12  A    between atoms: C_11  and  C_12 
REMARK   13  A    between atoms: C_18  and  C_20 
REMARK   14  A    between atoms: C_20  and  C_21 
REMARK   15  A    between atoms: C_21  and  C_22 
REMARK   16  A    between atoms: C_22  and  C_23 
REMARK   17  A    between atoms: C_29  and  C_30 
REMARK   18  A    between atoms: C_30  and  C_32 
REMARK   19  A    between atoms: C_32  and  C_33 
REMARK   20  A    between atoms: C_33  and  C_34 
ROOT
HETATM    1  C   UNK N   1      14.149 -12.310   0.207  0.00  0.00     0.180 C 
ENDROOT
BRANCH   1   2
HETATM    2  C   UNK N   1      14.006 -12.189  -1.309  0.00  0.00     0.213 C 
BRANCH   2   3
HETATM    3  O   UNK N   1      13.074 -11.213  -1.589  0.00  0.00    -0.319 OA
BRANCH   3   4
HETATM    4  C   UNK N   1      11.757 -11.340  -1.265  0.00  0.00     0.258 C 
HETATM    5  O   UNK N   1      11.014 -10.384  -1.382  0.00  0.00    -0.265 OA
BRANCH   4   6
HETATM    6  C   UNK N   1      11.210 -12.643  -0.746  0.00  0.00     0.111 C 
BRANCH   6   7
HETATM    7  C   UNK N   1      11.093 -12.587   0.771  0.00  0.00     0.014 C 
BRANCH   7   8
HETATM    8  C   UNK N   1       9.744 -13.105   1.239  0.00  0.00     0.039 C 
BRANCH   8   9
HETATM    9  C   UNK N   1       8.656 -12.206   0.763  0.00  0.00    -0.058 A 
HETATM   10  C   UNK N   1       8.640 -10.854   1.134  0.00  0.00     0.007 A 
HETATM   11  C   UNK N   1       7.640 -10.009   0.650  0.00  0.00     0.001 A 
HETATM   12  C   UNK N   1       6.653 -10.513  -0.203  0.00  0.00     0.000 A 
HETATM   13  C   UNK N   1       6.665 -11.862  -0.569  0.00  0.00     0.001 A 
HETATM   14  C   UNK N   1       7.668 -12.708  -0.088  0.00  0.00     0.007 A 
ENDBRANCH   8   9
ENDBRANCH   7   8
ENDBRANCH   6   7
ENDBRANCH   4   6
ENDBRANCH   3   4
ENDBRANCH   2   3
ENDBRANCH   1   2
BRANCH   1  15
HETATM   15  C   UNK N   1      15.205 -11.435   0.877  0.00  0.00     0.213 C 
BRANCH  15  16
HETATM   16  O   UNK N   1      15.369 -10.252   0.197  0.00  0.00    -0.319 OA
BRANCH  16  17
HETATM   17  C   UNK N   1      16.523  -9.539   0.236  0.00  0.00     0.258 C 
HETATM   18  O   UNK N   1      16.622  -8.529  -0.434  0.00  0.00    -0.265 OA
BRANCH  17  19
HETATM   19  C   UNK N   1      17.680  -9.954   1.106  0.00  0.00     0.111 C 
BRANCH  19  20
HETATM   20  C   UNK N   1      18.291 -11.272   0.649  0.00  0.00     0.014 C 
BRANCH  20  21
HETATM   21  C   UNK N   1      19.120 -11.093  -0.616  0.00  0.00     0.039 C 
BRANCH  21  22
HETATM   22  C   UNK N   1      20.497 -10.609  -0.300  0.00  0.00    -0.058 A 
HETATM   23  C   UNK N   1      21.600 -11.406  -0.621  0.00  0.00     0.007 A 
HETATM   24  C   UNK N   1      22.894 -10.963  -0.334  0.00  0.00     0.001 A 
HETATM   25  C   UNK N   1      23.087  -9.718   0.273  0.00  0.00     0.000 A 
HETATM   26  C   UNK N   1      21.987  -8.916   0.589  0.00  0.00     0.001 A 
HETATM   27  C   UNK N   1      20.694  -9.359   0.301  0.00  0.00     0.007 A 
ENDBRANCH  21  22
ENDBRANCH  20  21
ENDBRANCH  19  20
ENDBRANCH  17  19
ENDBRANCH  16  17
ENDBRANCH  15  16
ENDBRANCH   1  15
BRANCH   1  28
HETATM   28  O   UNK N   1      14.108 -13.619   0.650  0.00  0.00    -0.312 OA
BRANCH  28  29
HETATM   29  C   UNK N   1      15.163 -14.471   0.769  0.00  0.00     0.259 C 
HETATM   30  O   UNK N   1      14.967 -15.605   1.161  0.00  0.00    -0.265 OA
BRANCH  29  31
HETATM   31  C   UNK N   1      16.571 -14.031   0.510  0.00  0.00     0.111 C 
BRANCH  31  32
HETATM   32  C   UNK N   1      16.839 -13.838  -0.975  0.00  0.00     0.014 C 
BRANCH  32  33
HETATM   33  C   UNK N   1      17.484 -15.090  -1.552  0.00  0.00     0.039 C 
BRANCH  33  34
HETATM   34  C   UNK N   1      18.819 -15.334  -0.928  0.00  0.00    -0.058 A 
HETATM   35  C   UNK N   1      18.998 -16.444  -0.096  0.00  0.00     0.007 A 
HETATM   36  C   UNK N   1      20.233 -16.666   0.520  0.00  0.00     0.001 A 
HETATM   37  C   UNK N   1      21.292 -15.780   0.303  0.00  0.00     0.000 A 
HETATM   38  C   UNK N   1      21.117 -14.672  -0.531  0.00  0.00     0.001 A 
HETATM   39  C   UNK N   1      19.881 -14.446  -1.145  0.00  0.00     0.007 A 
ENDBRANCH  33  34
ENDBRANCH  32  33
ENDBRANCH  31  32
ENDBRANCH  29  31
ENDBRANCH  28  29
ENDBRANCH   1  28
TORSDOF 20
