REMARK  7 active torsions:
REMARK  status: ('A' for Active; 'I' for Inactive)
REMARK    1  A    between atoms: C_17  and  C_15 
REMARK    2  A    between atoms: C_18  and  C_15 
REMARK    3  A    between atoms: C_21  and  C_16 
REMARK    4  A    between atoms: N_22  and  C_16 
REMARK    5  A    between atoms: C_21  and  C_19 
REMARK    6  A    between atoms: O_23  and  C_20 
REMARK    7  A    between atoms: O_24  and  C_21 
ROOT
HETATM    1  C   UNK N   1      -0.631   6.128   1.133  0.00  0.00     0.035 C 
HETATM    2  C   UNK N   1      -1.904   4.052   1.497  0.00  0.00     0.035 C 
HETATM    3  C   UNK N   1      -1.576   6.456  -0.031  0.00  0.00     0.273 C 
HETATM    4  C   UNK N   1      -2.791   4.435   0.317  0.00  0.00     0.273 C 
HETATM    5  C   UNK N   1      -0.500   4.616   1.295  0.00  0.00    -0.007 C 
HETATM    6  N   UNK N   1      -2.924   5.896   0.166  0.00  0.00     0.095 N 
ENDROOT
BRANCH   6   7
HETATM    7  C   UNK N   1      -3.700   6.144  -1.071  0.00  0.00     0.252 C 
HETATM    8  C   UNK N   1      -4.974   5.298  -1.163  0.00  0.00     0.046 C 
BRANCH   7   9
HETATM    9  C   UNK N   1      -4.019   7.630  -1.388  0.00  0.00     0.184 C 
BRANCH   9  10
HETATM   10  C   UNK N   1      -5.067   8.333  -0.551  0.00  0.00    -0.027 A 
HETATM   11  C   UNK N   1      -4.789   9.565   0.065  0.00  0.00     0.012 A 
HETATM   12  C   UNK N   1      -5.794  10.260   0.745  0.00  0.00     0.037 A 
HETATM   13  C   UNK N   1      -7.089   9.736   0.810  0.00  0.00     0.065 A 
HETATM   14  C   UNK N   1      -7.373   8.510   0.203  0.00  0.00     0.037 A 
HETATM   15  C   UNK N   1      -6.371   7.819  -0.481  0.00  0.00     0.012 A 
BRANCH  13  16
HETATM   16  O   UNK N   1      -8.057  10.409   1.450  0.00  0.00    -0.361 OA
HETATM   17  H   UNK N   1      -7.988  11.229   1.896  0.00  0.00     0.217 HD
ENDBRANCH  13  16
ENDBRANCH   9  10
BRANCH   9  18
HETATM   18  O   UNK N   1      -2.854   8.393  -1.513  0.00  0.00    -0.389 OA
HETATM   19  H   UNK N   1      -1.992   7.958  -1.600  0.00  0.00     0.210 HD
ENDBRANCH   9  18
ENDBRANCH   7   9
ENDBRANCH   6   7
BRANCH   5  20
HETATM   20  C   UNK N   1       0.244   4.025   0.083  0.00  0.00     0.043 C 
BRANCH  20  21
HETATM   21  C   UNK N   1       0.314   2.529   0.047  0.00  0.00    -0.058 A 
HETATM   22  C   UNK N   1       1.540   1.884   0.248  0.00  0.00     0.007 A 
HETATM   23  C   UNK N   1       1.621   0.490   0.171  0.00  0.00     0.001 A 
HETATM   24  C   UNK N   1       0.479  -0.264  -0.119  0.00  0.00     0.000 A 
HETATM   25  C   UNK N   1      -0.744   0.377  -0.334  0.00  0.00     0.001 A 
HETATM   26  C   UNK N   1      -0.825   1.771  -0.255  0.00  0.00     0.007 A 
ENDBRANCH  20  21
ENDBRANCH   5  20
TORSDOF 7
