REMARK  10 active torsions:
REMARK  status: ('A' for Active; 'I' for Inactive)
REMARK    1  A    between atoms: C_1  and  C_8 
REMARK    2  A    between atoms: C_8  and  O_9 
REMARK    3  A    between atoms: O_9  and  C_10 
REMARK    4  A    between atoms: C_10  and  C_12 
REMARK    5  A    between atoms: C_20  and  O_24 
REMARK    6  A    between atoms: N_21  and  C_22 
REMARK    7  A    between atoms: C_22  and  C_23 
REMARK    8  A    between atoms: O_24  and  C_25 
REMARK    9  A    between atoms: C_31  and  C_32 
REMARK   10  A    between atoms: C_33  and  C_38 
ROOT
HETATM    1  C   UNK N   1      15.628  -7.589   0.248  0.00  0.00     0.068 A 
HETATM    2  C   UNK N   1      16.967  -7.987   0.036  0.00  0.00     0.081 A 
HETATM    3  C   UNK N   1      17.301  -9.306  -0.100  0.00  0.00     0.063 A 
HETATM    4  C   UNK N   1      14.663  -8.610   0.359  0.00  0.00     0.020 A 
HETATM    5  C   UNK N   1      15.024  -9.966   0.210  0.00  0.00     0.003 A 
HETATM    6  C   UNK N   1      16.360 -10.325  -0.032  0.00  0.00     0.032 A 
HETATM    7  N   UNK N   1      18.628  -9.434  -0.268  0.00  0.00    -0.320 N 
ATOM      8  HN  UNK N   1      19.164 -10.291  -0.408  1.00  0.00     0.169 HD
HETATM    9  C   UNK N   1      19.092  -8.160  -0.208  0.00  0.00     0.227 A 
HETATM   10  N   UNK N   1      18.096  -7.253  -0.018  0.00  0.00    -0.306 N 
ENDROOT
BRANCH  10  11
HETATM   11  C   UNK N   1      18.163  -5.806   0.158  0.00  0.00     0.171 C 
BRANCH  11  12
HETATM   12  C   UNK N   1      19.512  -5.194   0.073  0.00  0.00    -0.040 A 
HETATM   13  C   UNK N   1      19.802  -4.432  -1.051  0.00  0.00     0.010 A 
HETATM   14  C   UNK N   1      20.961  -3.676  -1.093  0.00  0.00     0.013 A 
HETATM   15  C   UNK N   1      21.847  -3.668  -0.007  0.00  0.00    -0.025 A 
HETATM   16  C   UNK N   1      21.594  -4.482   1.106  0.00  0.00     0.013 A 
HETATM   17  C   UNK N   1      20.413  -5.238   1.151  0.00  0.00     0.010 A 
BRANCH  15  18
HETATM   18  C   UNK N   1      22.915  -2.658   0.005  0.00  0.00    -0.012 A 
HETATM   19  C   UNK N   1      22.604  -1.275  -0.161  0.00  0.00     0.021 A 
HETATM   20  C   UNK N   1      23.653  -0.353  -0.265  0.00  0.00     0.016 A 
HETATM   21  C   UNK N   1      24.982  -0.774  -0.182  0.00  0.00     0.001 A 
HETATM   22  C   UNK N   1      25.280  -2.122   0.031  0.00  0.00     0.001 A 
HETATM   23  C   UNK N   1      24.250  -3.062   0.122  0.00  0.00     0.013 A 
BRANCH  19  24
HETATM   24  C   UNK N   1      21.200  -0.758  -0.145  0.00  0.00     0.141 A 
HETATM   25  N   UNK N   1      20.847   0.503  -0.480  0.00  0.00    -0.285 N 
HETATM   26  C   UNK N   1      19.507   0.487  -0.268  0.00  0.00     0.388 A 
HETATM   27  H   UNK N   1      21.416   1.242  -0.797  0.00  0.00     0.172 HD
HETATM   28  O   UNK N   1      19.103  -0.672   0.172  0.00  0.00    -0.179 OA
HETATM   29  O   UNK N   1      18.769   1.436  -0.465  0.00  0.00    -0.236 OA
HETATM   30  N   UNK N   1      20.125  -1.466   0.270  0.00  0.00    -0.239 N 
ATOM     31  HN  UNK N   1      20.118  -2.432   0.596  1.00  0.00     0.196 HD
ENDBRANCH  19  24
ENDBRANCH  15  18
ENDBRANCH  11  12
ENDBRANCH  10  11
BRANCH   9  32
HETATM   32  O   UNK N   1      20.403  -7.840  -0.294  0.00  0.00    -0.322 OA
BRANCH  32  33
HETATM   33  C   UNK N   1      21.366  -8.796  -0.515  0.00  0.00     0.174 C 
HETATM   34  C   UNK N   1      22.039  -9.160   0.793  0.00  0.00     0.034 C 
ENDBRANCH  32  33
ENDBRANCH   9  32
BRANCH   1  35
HETATM   35  C   UNK N   1      15.183  -6.184   0.323  0.00  0.00     0.296 C 
HETATM   36  O   UNK N   1      14.371  -5.854   1.175  0.00  0.00    -0.259 OA
BRANCH  35  37
HETATM   37  O   UNK N   1      15.519  -5.327  -0.681  0.00  0.00    -0.311 OA
BRANCH  37  38
HETATM   38  C   UNK N   1      15.135  -3.998  -0.776  0.00  0.00     0.247 C 
BRANCH  38  39
HETATM   39  C   UNK N   1      13.666  -3.733  -0.554  0.00  0.00     0.112 A 
HETATM   40  O   UNK N   1      13.221  -2.622  -0.016  0.00  0.00    -0.255 OA
HETATM   41  C   UNK N   1      11.916  -2.730   0.060  0.00  0.00     0.416 A 
HETATM   42  O   UNK N   1      11.495  -3.880  -0.413  0.00  0.00    -0.257 OA
HETATM   43  O   UNK N   1      11.186  -1.870   0.519  0.00  0.00    -0.229 OA
HETATM   44  C   UNK N   1      12.560  -4.535  -0.812  0.00  0.00     0.087 A 
HETATM   45  C   UNK N   1      12.528  -5.901  -1.405  0.00  0.00     0.079 C 
ENDBRANCH  38  39
ENDBRANCH  37  38
ENDBRANCH  35  37
ENDBRANCH   1  35
TORSDOF 10
