REMARK  18 active torsions:
REMARK  status: ('A' for Active; 'I' for Inactive)
REMARK    1  A    between atoms: C_12  and  O_43 
REMARK    2  A    between atoms: C_13  and  O_44 
REMARK    3  A    between atoms: C_15  and  O_70 
REMARK    4  A    between atoms: C_16  and  O_69 
REMARK    5  A    between atoms: C_19  and  O_73 
REMARK    6  A    between atoms: C_20  and  O_74 
REMARK    7  A    between atoms: C_26  and  O_75 
REMARK    8  A    between atoms: C_27  and  O_76 
REMARK    9  A    between atoms: C_39  and  O_56 
REMARK   10  A    between atoms: C_40  and  O_55 
REMARK   11  A    between atoms: C_54  and  O_43 
REMARK   12  A    between atoms: C_53  and  O_44 
REMARK   13  A    between atoms: C_45  and  N_66 
REMARK   14  A    between atoms: C_46  and  N_65 
REMARK   15  A    between atoms: C_47  and  O_56 
REMARK   16  A    between atoms: C_48  and  O_55 
REMARK   17  A    between atoms: C_77  and  C_102 
REMARK   18  A    between atoms: C_78  and  C_103 
ROOT
HETATM    1  C   UNK N   1      -9.562  -2.010  -0.631  0.00  0.00    -0.010 C 
HETATM    2  C   UNK N   1      -7.412  -1.779   0.114  0.00  0.00     0.022 C 
HETATM    3  C   UNK N   1      -9.246  -3.345   0.025  0.00  0.00     0.039 C 
HETATM    4  C   UNK N   1     -10.540  -1.709  -1.701  0.00  0.00     0.162 C 
HETATM    5  C   UNK N   1      -8.610  -1.130  -0.422  0.00  0.00    -0.010 C 
HETATM    6  C   UNK N   1      -7.716  -3.310   0.012  0.00  0.00     0.025 C 
HETATM    7  C   UNK N   1      -6.910  -1.380   1.496  0.00  0.00     0.004 C 
HETATM    8  C   UNK N   1     -10.961  -0.290  -2.034  0.00  0.00     0.085 C 
HETATM    9  C   UNK N   1      -7.013  -4.183   1.080  0.00  0.00    -0.024 C 
HETATM   10  C   UNK N   1      -5.666  -2.243   1.623  0.00  0.00     0.015 C 
HETATM   11  C   UNK N   1     -11.306  -4.847  -0.459  0.00  0.00     0.259 C 
HETATM   12  C   UNK N   1      -6.072  -3.655   1.908  0.00  0.00    -0.025 C 
HETATM   13  C   UNK N   1     -11.828   0.380  -0.939  0.00  0.00     0.136 C 
HETATM   14  O   UNK N   1     -12.164  -3.796  -0.296  0.00  0.00    -0.316 OA
HETATM   15  C   UNK N   1      -9.815  -4.633  -0.581  0.00  0.00     0.121 C 
HETATM   16  C   UNK N   1      -4.930   0.015   1.647  0.00  0.00     0.126 C 
HETATM   17  C   UNK N   1      -6.444   0.067   1.644  0.00  0.00     0.038 C 
HETATM   18  C   UNK N   1      -4.660  -1.373   2.324  0.00  0.00     0.041 C 
HETATM   19  O   UNK N   1     -11.020  -2.619  -2.354  0.00  0.00    -0.292 OA
HETATM   20  O   UNK N   1     -11.736  -5.981  -0.587  0.00  0.00    -0.265 OA
HETATM   21  C   UNK N   1     -13.537  -3.907  -0.482  0.00  0.00     0.131 C 
HETATM   22  C   UNK N   1      -9.825   0.597  -2.529  0.00  0.00     0.021 C 
HETATM   23  C   UNK N   1     -12.742  -0.657  -0.276  0.00  0.00     0.033 C 
HETATM   24  C   UNK N   1     -13.599  -1.456  -1.234  0.00  0.00     0.005 C 
HETATM   25  C   UNK N   1     -14.243  -2.547  -0.404  0.00  0.00     0.032 C 
ENDROOT
BRANCH  16  26
HETATM   26  O   UNK N   1      -4.580   0.204   0.271  0.00  0.00    -0.353 OA
BRANCH  26  27
HETATM   27  C   UNK N   1      -3.423  -0.471  -0.147  0.00  0.00     0.292 C 
HETATM   28  C   UNK N   1      -2.175   0.120   0.464  0.00  0.00     0.207 C 
HETATM   29  C   UNK N   1      -1.088  -0.925   0.275  0.00  0.00     0.185 C 
HETATM   30  C   UNK N   1      -1.175  -1.689  -1.083  0.00  0.00     0.181 C 
HETATM   31  C   UNK N   1      -2.332  -1.281  -2.054  0.00  0.00     0.152 C 
HETATM   32  O   UNK N   1      -3.317  -0.389  -1.553  0.00  0.00    -0.351 OA
HETATM   33  C   UNK N   1      -2.977  -2.437  -2.811  0.00  0.00     0.042 C 
BRANCH  28  34
HETATM   34  O   UNK N   1      -1.847   1.329  -0.159  0.00  0.00    -0.383 OA
HETATM   35  C   UNK N   1      -2.193   2.305   0.772  0.00  0.00     0.202 C 
ENDBRANCH  28  34
BRANCH  29  36
HETATM   36  O   UNK N   1       0.176  -0.412   0.564  0.00  0.00    -0.385 OA
HETATM   37  C   UNK N   1       0.292  -0.445   1.958  0.00  0.00     0.202 C 
ENDBRANCH  29  36
BRANCH  30  38
HETATM   38  O   UNK N   1      -1.027  -3.089  -0.961  0.00  0.00    -0.385 OA
HETATM   39  C   UNK N   1      -2.022  -3.605  -0.112  0.00  0.00     0.202 C 
ENDBRANCH  30  38
ENDBRANCH  26  27
ENDBRANCH  16  26
BRANCH  13  40
HETATM   40  O   UNK N   1     -11.045   0.990   0.070  0.00  0.00    -0.355 OA
BRANCH  40  41
HETATM   41  C   UNK N   1     -11.712   2.114   0.645  0.00  0.00     0.260 C 
HETATM   42  O   UNK N   1     -11.681   3.224  -0.236  0.00  0.00    -0.354 OA
HETATM   43  C   UNK N   1     -12.135   4.356   0.484  0.00  0.00     0.153 C 
HETATM   44  C   UNK N   1     -13.653   4.267   0.742  0.00  0.00     0.250 C 
HETATM   45  C   UNK N   1     -11.703   5.643  -0.193  0.00  0.00     0.042 C 
HETATM   46  C   UNK N   1     -13.846   3.047   1.658  0.00  0.00     0.043 C 
HETATM   47  C   UNK N   1     -13.168   1.808   1.083  0.00  0.00     0.063 C 
BRANCH  44  48
HETATM   48  N   UNK N   1     -14.408   4.173  -0.524  0.00  0.00     0.087 N 
HETATM   49  C   UNK N   1     -15.761   3.675  -0.306  0.00  0.00     0.310 C 
HETATM   50  C   UNK N   1     -14.584   5.521  -1.043  0.00  0.00     0.310 C 
ENDBRANCH  44  48
ENDBRANCH  40  41
ENDBRANCH  13  40
BRANCH  21  51
HETATM   51  C   UNK N   1     -14.150  -4.827   0.569  0.00  0.00     0.028 C 
HETATM   52  C   UNK N   1     -15.616  -5.093   0.276  0.00  0.00     0.007 C 
ENDBRANCH  21  51
TORSDOF 18
