REMARK  18 active torsions:
REMARK  status: ('A' for Active; 'I' for Inactive)
REMARK    1  A    between atoms: C_7  and  C_2 
REMARK    2  A    between atoms: O_27  and  C_2 
REMARK    3  A    between atoms: C_7  and  C_3 
REMARK    4  A    between atoms: O_28  and  C_3 
REMARK    5  A    between atoms: C_8  and  C_4 
REMARK    6  A    between atoms: O_29  and  C_4 
REMARK    7  A    between atoms: C_8  and  C_5 
REMARK    8  A    between atoms: O_30  and  C_5 
REMARK    9  A    between atoms: C_15  and  C_6 
REMARK   10  A    between atoms: C_6  and  O_31 
REMARK   11  A    between atoms: N_21  and  C_7 
REMARK   12  A    between atoms: N_23  and  C_8 
REMARK   13  A    between atoms: C_16  and  C_9 
REMARK   14  A    between atoms: C_17  and  C_10 
REMARK   15  A    between atoms: N_25  and  C_14 
REMARK   16  A    between atoms: O_32  and  C_15 
REMARK   17  A    between atoms: O_33  and  C_16 
REMARK   18  A    between atoms: O_34  and  C_17 
ROOT
HETATM    1  C   UNK N   1       2.218   0.966  -0.199  0.00  0.00     0.051 A 
HETATM    2  C   UNK N   1      -0.271   0.985  -0.120  0.00  0.00     0.051 A 
HETATM    3  C   UNK N   1       0.982   1.665  -0.352  0.00  0.00     0.038 A 
HETATM    4  C   UNK N   1       2.214  -0.401   0.162  0.00  0.00     0.050 A 
HETATM    5  C   UNK N   1      -0.232  -0.413   0.185  0.00  0.00     0.050 A 
HETATM    6  C   UNK N   1       0.994  -1.088   0.309  0.00  0.00     0.069 A 
HETATM    7  I   UNK N   1       1.097   3.780  -0.832  0.00  0.00    -0.042 I 
HETATM    8  I   UNK N   1       4.054  -1.485   0.486  0.00  0.00    -0.041 I 
HETATM    9  I   UNK N   1      -1.971  -1.654   0.502  0.00  0.00    -0.041 I 
ENDROOT
BRANCH   1  10
HETATM   10  C   UNK N   1       3.523   1.674  -0.410  0.00  0.00     0.149 C 
HETATM   11  N   UNK N   1       4.492   1.519   0.435  0.00  0.00    -0.361 N 
ATOM     12  HN  UNK N   1       4.319   0.925   1.246  1.00  0.00     0.162 HD
BRANCH  11  13
HETATM   13  C   UNK N   1       5.809   2.127   0.315  0.00  0.00     0.130 C 
BRANCH  13  14
HETATM   14  C   UNK N   1       5.758   3.627   0.036  0.00  0.00     0.191 C 
BRANCH  14  15
HETATM   15  O   UNK N   1       5.051   4.285   1.041  0.00  0.00    -0.399 OA
HETATM   16  H   UNK N   1       5.201   4.940   1.740  0.00  0.00     0.209 HD
ENDBRANCH  14  15
ENDBRANCH  13  14
BRANCH  13  17
HETATM   17  C   UNK N   1       6.652   1.414  -0.729  0.00  0.00     0.191 C 
BRANCH  17  18
HETATM   18  O   UNK N   1       6.964   0.130  -0.283  0.00  0.00    -0.399 OA
HETATM   19  H   UNK N   1       6.299  -0.505   0.027  0.00  0.00     0.209 HD
ENDBRANCH  17  18
ENDBRANCH  13  17
ENDBRANCH  11  13
BRANCH  10  20
HETATM   20  O   UNK N   1       3.684   2.481  -1.480  0.00  0.00    -0.346 OA
HETATM   21  H   UNK N   1       4.224   2.664  -2.223  0.00  0.00     0.219 HD
ENDBRANCH  10  20
ENDBRANCH   1  10
BRANCH   2  22
HETATM   22  C   UNK N   1      -1.606   1.724  -0.145  0.00  0.00     0.149 C 
HETATM   23  N   UNK N   1      -1.654   3.002  -0.287  0.00  0.00    -0.361 N 
ATOM     24  HN  UNK N   1      -0.775   3.493  -0.453  1.00  0.00     0.162 HD
BRANCH  23  25
HETATM   25  C   UNK N   1      -2.868   3.795  -0.229  0.00  0.00     0.130 C 
BRANCH  25  26
HETATM   26  C   UNK N   1      -3.751   3.571  -1.449  0.00  0.00     0.191 C 
BRANCH  26  27
HETATM   27  O   UNK N   1      -4.619   2.501  -1.234  0.00  0.00    -0.399 OA
HETATM   28  H   UNK N   1      -5.565   2.651  -1.084  0.00  0.00     0.209 HD
ENDBRANCH  26  27
ENDBRANCH  25  26
BRANCH  25  29
HETATM   29  C   UNK N   1      -2.491   5.266  -0.184  0.00  0.00     0.191 C 
BRANCH  29  30
HETATM   30  O   UNK N   1      -1.750   5.538   0.966  0.00  0.00    -0.399 OA
HETATM   31  H   UNK N   1      -1.328   5.186   1.766  0.00  0.00     0.209 HD
ENDBRANCH  29  30
ENDBRANCH  25  29
ENDBRANCH  23  25
BRANCH  22  32
HETATM   32  O   UNK N   1      -2.757   1.063   0.069  0.00  0.00    -0.346 OA
HETATM   33  H   UNK N   1      -3.558   1.527   0.217  0.00  0.00     0.219 HD
ENDBRANCH  22  32
ENDBRANCH   2  22
BRANCH   6  34
HETATM   34  N   UNK N   1       0.976  -2.479   0.626  0.00  0.00    -0.336 N 
HETATM   35  C   UNK N   1       1.490  -3.401  -0.124  0.00  0.00     0.145 C 
ATOM     36  HN  UNK N   1       0.531  -2.765   1.497  1.00  0.00     0.168 HD
BRANCH  35  37
HETATM   37  C   UNK N   1       1.453  -4.830   0.342  0.00  0.00     0.188 C 
HETATM   38  C   UNK N   1       2.161  -5.761  -0.628  0.00  0.00     0.048 C 
BRANCH  37  39
HETATM   39  O   UNK N   1       0.127  -5.242   0.482  0.00  0.00    -0.388 OA
HETATM   40  H   UNK N   1      -0.582  -4.587   0.579  0.00  0.00     0.210 HD
ENDBRANCH  37  39
ENDBRANCH  35  37
BRANCH  35  41
HETATM   41  O   UNK N   1       2.044  -3.088  -1.318  0.00  0.00    -0.347 OA
HETATM   42  H   UNK N   1       2.423  -3.312  -2.145  0.00  0.00     0.219 HD
ENDBRANCH  35  41
ENDBRANCH   6  34
TORSDOF 18
