REMARK  4 active torsions:
REMARK  status: ('A' for Active; 'I' for Inactive)
REMARK    1  A    between atoms: C_4  and  C_18 
REMARK    2  A    between atoms: C_6  and  O_16 
REMARK       I    between atoms: C_18  and  N_19 
REMARK    3  A    between atoms: N_19  and  C_21 
REMARK    4  A    between atoms: C_21  and  C_22 
ROOT
HETATM    1  C   UNK N   1       2.003  -1.026   0.072  0.00  0.00     0.141 A 
HETATM    2  N   UNK N   1       1.939   0.322  -0.190  0.00  0.00    -0.345 N 
HETATM    3  C   UNK N   1       3.062   1.092  -0.205  0.00  0.00     0.113 A 
HETATM    4  C   UNK N   1       4.321   0.534   0.056  0.00  0.00     0.100 A 
HETATM    5  C   UNK N   1       4.398  -0.848   0.347  0.00  0.00     0.224 A 
HETATM    6  C   UNK N   1       3.242  -1.625   0.348  0.00  0.00     0.150 A 
HETATM    7  C   UNK N   1       0.747  -1.826   0.019  0.00  0.00     0.276 C 
HETATM    8  N   UNK N   1      -0.456  -1.176   0.020  0.00  0.00    -0.314 N 
HETATM    9  C   UNK N   1      -0.455   0.277   0.272  0.00  0.00     0.244 C 
HETATM   10  C   UNK N   1       0.655   0.944  -0.534  0.00  0.00     0.182 C 
HETATM   11  C   UNK N   1      -1.688  -1.919  -0.259  0.00  0.00     0.088 C 
HETATM   12  C   UNK N   1      -2.907  -1.026  -0.394  0.00  0.00     0.051 C 
HETATM   13  C   UNK N   1      -2.441   0.304  -0.929  0.00  0.00     0.172 C 
HETATM   14  O   UNK N   1      -1.702   0.927   0.086  0.00  0.00    -0.365 OA
HETATM   15  O   UNK N   1       0.796  -3.044  -0.093  0.00  0.00    -0.266 OA
HETATM   16  O   UNK N   1       5.469  -1.382   0.582  0.00  0.00    -0.284 OA
HETATM   17  C   UNK N   1      -1.959  -2.976   0.800  0.00  0.00     0.032 C 
ENDROOT
BRANCH   4  18
HETATM   18  C   UNK N   1       5.544   1.378  -0.065  0.00  0.00     0.257 C 
HETATM   19  N   UNK N   1       6.756   0.793   0.061  0.00  0.00    -0.352 N 
HETATM   20  H   UNK N   1       6.783  -0.130   0.400  0.00  0.00     0.163 HD
HETATM   21  O   UNK N   1       5.455   2.560  -0.368  0.00  0.00    -0.267 OA
BRANCH  19  22
HETATM   22  C   UNK N   1       8.010   1.419  -0.264  0.00  0.00     0.164 C 
BRANCH  22  23
HETATM   23  C   UNK N   1       9.097   0.388  -0.162  0.00  0.00    -0.002 A 
HETATM   24  C   UNK N   1      10.305   0.728   0.456  0.00  0.00     0.015 A 
HETATM   25  C   UNK N   1      11.328  -0.219   0.574  0.00  0.00     0.043 A 
HETATM   26  C   UNK N   1      11.144  -1.515   0.083  0.00  0.00     0.119 A 
HETATM   27  C   UNK N   1       9.944  -1.864  -0.535  0.00  0.00     0.085 A 
HETATM   28  F   UNK N   1      12.130  -2.435   0.209  0.00  0.00    -0.206 F 
HETATM   29  C   UNK N   1       8.922  -0.921  -0.667  0.00  0.00     0.127 A 
HETATM   30  F   UNK N   1       7.763  -1.291  -1.268  0.00  0.00    -0.205 F 
ENDBRANCH  22  23
ENDBRANCH  19  22
ENDBRANCH   4  18
BRANCH   6  31
HETATM   31  O   UNK N   1       3.329  -2.944   0.611  0.00  0.00    -0.355 OA
HETATM   32  H   UNK N   1       2.565  -3.455   0.794  0.00  0.00     0.218 HD
ENDBRANCH   6  31
TORSDOF 4
