REMARK  7 active torsions:
REMARK  status: ('A' for Active; 'I' for Inactive)
REMARK    1  A    between atoms: C_3  and  C_17 
REMARK    2  A    between atoms: C_6  and  N_11 
REMARK    3  A    between atoms: C_7  and  N_10 
REMARK    4  A    between atoms: C_8  and  N_9 
REMARK       I    between atoms: N_10  and  C_12 
REMARK    5  A    between atoms: C_12  and  O_13 
REMARK    6  A    between atoms: C_28  and  N_18 
REMARK    7  A    between atoms: C_28  and  C_29 
ROOT
HETATM    1  N   UNK N   1       8.306  -8.813  -0.363  0.00  0.00    -0.325 N 
ATOM      2  HN  UNK N   1       7.459  -8.267  -0.202  1.00  0.00     0.169 HD
HETATM    3  C   UNK N   1       8.209 -10.152  -0.564  0.00  0.00     0.138 A 
HETATM    4  N   UNK N   1       9.321 -10.876  -0.838  0.00  0.00    -0.325 N 
ATOM      5  HN  UNK N   1       9.227 -11.871  -1.040  1.00  0.00     0.169 HD
HETATM    6  C   UNK N   1      10.549 -10.316  -0.850  0.00  0.00     0.132 A 
HETATM    7  C   UNK N   1      10.699  -8.944  -0.551  0.00  0.00     0.126 A 
HETATM    8  C   UNK N   1       9.514  -8.186  -0.373  0.00  0.00     0.132 A 
ENDROOT
BRANCH   3   9
HETATM    9  C   UNK N   1       6.979 -10.868  -0.202  0.00  0.00     0.106 A 
HETATM   10  C   UNK N   1       6.881 -12.239  -0.053  0.00  0.00     0.041 A 
HETATM   11  C   UNK N   1       5.684 -12.447   0.543  0.00  0.00     0.135 A 
HETATM   12  C   UNK N   1       7.760 -13.291  -0.289  0.00  0.00     0.019 A 
HETATM   13  N   UNK N   1       5.056 -11.275   0.725  0.00  0.00    -0.271 N 
HETATM   14  N   UNK N   1       5.275 -13.674   0.953  0.00  0.00    -0.350 N 
HETATM   15  N   UNK N   1       5.847 -10.296   0.288  0.00  0.00    -0.292 N 
ATOM     16  HN  UNK N   1       5.640  -9.297   0.315  1.00  0.00     0.187 HD
HETATM   17  C   UNK N   1       6.092 -14.748   0.730  0.00  0.00     0.090 A 
ATOM     18  HN  UNK N   1       4.375 -13.793   1.419  1.00  0.00     0.166 HD
HETATM   19  C   UNK N   1       7.347 -14.576   0.100  0.00  0.00     0.018 A 
BRANCH  13  20
HETATM   20  C   UNK N   1       3.826 -11.079   1.484  0.00  0.00     0.192 C 
BRANCH  20  21
HETATM   21  C   UNK N   1       2.591 -11.018   0.640  0.00  0.00     0.000 A 
HETATM   22  C   UNK N   1       1.759  -9.899   0.758  0.00  0.00     0.012 A 
HETATM   23  C   UNK N   1       0.562  -9.832   0.041  0.00  0.00     0.001 A 
HETATM   24  C   UNK N   1       0.187 -10.885  -0.796  0.00  0.00     0.003 A 
HETATM   25  C   UNK N   1       1.011 -12.005  -0.919  0.00  0.00     0.043 A 
HETATM   26  C   UNK N   1       2.209 -12.079  -0.204  0.00  0.00     0.124 A 
HETATM   27  F   UNK N   1       2.974 -13.188  -0.328  0.00  0.00    -0.205 F 
ENDBRANCH  20  21
ENDBRANCH  13  20
ENDBRANCH   3   9
BRANCH   8  28
HETATM   28  N   UNK N   1       9.568  -6.808  -0.080  0.00  0.00    -0.383 N 
HETATM   29  H   UNK N   1      10.420  -6.359   0.124  0.00  0.00     0.157 HD
HETATM   30  H   UNK N   1       8.735  -6.283  -0.080  0.00  0.00     0.157 HD
ENDBRANCH   8  28
BRANCH   6  31
HETATM   31  N   UNK N   1      11.661 -11.129  -1.160  0.00  0.00    -0.383 N 
HETATM   32  H   UNK N   1      11.558 -12.084  -1.375  0.00  0.00     0.157 HD
HETATM   33  H   UNK N   1      12.561 -10.731  -1.160  0.00  0.00     0.157 HD
ENDBRANCH   6  31
BRANCH   7  34
HETATM   34  N   UNK N   1      12.006  -8.355  -0.397  0.00  0.00    -0.291 N 
HETATM   35  C   UNK N   1      12.970  -8.990   0.373  0.00  0.00     0.366 C 
HETATM   36  O   UNK N   1      12.681 -10.014   0.976  0.00  0.00    -0.238 OA
HETATM   37  C   UNK N   1      12.237  -7.038  -0.944  0.00  0.00     0.162 C 
BRANCH  35  38
HETATM   38  O   UNK N   1      14.232  -8.503   0.558  0.00  0.00    -0.309 OA
HETATM   39  C   UNK N   1      14.839  -7.482  -0.130  0.00  0.00     0.215 C 
ENDBRANCH  35  38
ENDBRANCH   7  34
TORSDOF 7
