REMARK  4 active torsions:
REMARK  status: ('A' for Active; 'I' for Inactive)
REMARK    1  A    between atoms: N_1  and  C_9 
REMARK    2  A    between atoms: N_1  and  C_17 
REMARK       I    between atoms: N_4  and  C_20 
REMARK    3  A    between atoms: N_4  and  C_21 
REMARK    4  A    between atoms: C_12  and  C_18 
ROOT
HETATM    1  N   UNK N   1      -0.173  -7.333   0.591  0.00  0.00    -0.192 NA
HETATM    2  C   UNK N   1       1.927  -4.896  -0.410  0.00  0.00     0.022 C 
HETATM    3  C   UNK N   1       1.539  -5.421   0.729  0.00  0.00     0.094 C 
HETATM    4  C   UNK N   1       0.595  -6.474   0.646  0.00  0.00     0.087 C 
ENDROOT
BRANCH   2   5
HETATM    5  C   UNK N   1       2.007  -3.469  -0.493  0.00  0.00    -0.035 A 
HETATM    6  C   UNK N   1       0.836  -2.739  -0.632  0.00  0.00     0.020 A 
HETATM    7  C   UNK N   1       0.870  -1.364  -0.733  0.00  0.00    -0.034 A 
HETATM    8  C   UNK N   1       2.097  -0.674  -0.641  0.00  0.00     0.045 A 
HETATM    9  C   UNK N   1      -0.425  -0.655  -0.976  0.00  0.00     0.050 C 
HETATM   10  C   UNK N   1       3.322  -1.493  -0.474  0.00  0.00    -0.034 A 
HETATM   11  C   UNK N   1       3.213  -2.854  -0.440  0.00  0.00     0.020 A 
HETATM   12  C   UNK N   1       4.766  -1.160  -0.328  0.00  0.00     0.050 C 
BRANCH   8  13
HETATM   13  N   UNK N   1       1.986   0.763  -0.701  0.00  0.00    -0.341 N 
HETATM   14  H   UNK N   1       1.136   1.139  -1.027  0.00  0.00     0.167 HD
BRANCH  13  15
HETATM   15  C   UNK N   1       2.985   1.662  -0.334  0.00  0.00     0.122 C 
HETATM   16  N   UNK N   1       2.690   2.712   0.467  0.00  0.00    -0.176 N 
HETATM   17  C   UNK N   1       3.695   3.274   1.177  0.00  0.00     0.684 C 
ATOM     18  HN  UNK N   1       1.738   3.070   0.533  1.00  0.00     0.186 HD
HETATM   19  N   UNK N   1       3.882   4.652   0.968  0.00  0.00    -0.192 N 
HETATM   20  N   UNK N   1       4.831   2.551   1.364  0.00  0.00    -0.202 N 
HETATM   21  H   UNK N   1       3.166   5.290   1.192  0.00  0.00     0.184 HD
HETATM   22  C   UNK N   1       5.189   1.647   0.434  0.00  0.00     0.110 C 
ATOM     23  HN  UNK N   1       5.403   2.691   2.197  1.00  0.00     0.183 HD
HETATM   24  C   UNK N   1       4.284   1.309  -0.533  0.00  0.00     0.066 C 
BRANCH  19  25
HETATM   25  C   UNK N   1       5.124   5.118   0.427  0.00  0.00     0.049 C 
HETATM   26  C   UNK N   1       6.181   4.238   0.087  0.00  0.00     0.031 C 
HETATM   27  C   UNK N   1       7.439   4.694  -0.195  0.00  0.00     0.025 C 
HETATM   28  C   UNK N   1       7.651   6.058  -0.208  0.00  0.00     0.044 C 
HETATM   29  C   UNK N   1       6.596   6.954  -0.032  0.00  0.00     0.025 C 
HETATM   30  C   UNK N   1       8.992   6.495  -0.250  0.00  0.00     0.099 C 
HETATM   31  C   UNK N   1       5.330   6.476   0.298  0.00  0.00     0.031 C 
HETATM   32  N   UNK N   1      10.122   6.716  -0.291  0.00  0.00    -0.191 NA
ENDBRANCH  19  25
ENDBRANCH  13  15
ENDBRANCH   8  13
ENDBRANCH   2   5
TORSDOF 4
