REMARK  4 active torsions:
REMARK  status: ('A' for Active; 'I' for Inactive)
REMARK    1  A    between atoms: C_5  and  C_3 
REMARK    2  A    between atoms: C_6  and  C_4 
REMARK    3  A    between atoms: O_9  and  C_5 
REMARK    4  A    between atoms: O_10  and  C_6 
ROOT
HETATM    1  C   UNK N   1       1.079   0.073  -0.000  0.00  0.00     0.088 C 
HETATM    2  C   UNK N   1      -0.254  -0.073  -0.000  0.00  0.00     0.088 C 
ENDROOT
BRANCH   1   3
HETATM    3  C   UNK N   1       1.712   1.403  -0.000  0.00  0.00     0.282 C 
HETATM    4  O   UNK N   1       1.029   2.419   0.000  0.00  0.00    -0.260 OA
BRANCH   3   5
HETATM    5  O   UNK N   1       3.064   1.480  -0.000  0.00  0.00    -0.323 OA
HETATM    6  C   UNK N   1       3.732   2.681   0.000  0.00  0.00     0.213 C 
ENDBRANCH   3   5
ENDBRANCH   1   3
BRANCH   2   7
HETATM    7  C   UNK N   1      -0.887  -1.403  -0.000  0.00  0.00     0.282 C 
HETATM    8  O   UNK N   1      -0.204  -2.419   0.000  0.00  0.00    -0.260 OA
BRANCH   7   9
HETATM    9  O   UNK N   1      -2.239  -1.480  -0.000  0.00  0.00    -0.323 OA
HETATM   10  C   UNK N   1      -2.907  -2.681   0.000  0.00  0.00     0.213 C 
ENDBRANCH   7   9
ENDBRANCH   2   7
TORSDOF 4
