REMARK  2 active torsions:
REMARK  status: ('A' for Active; 'I' for Inactive)
REMARK    1  A    between atoms: N_1  and  C_7 
REMARK    2  A    between atoms: C_10  and  C_14 
ROOT
HETATM    1  C   UNK N   1       1.491  -1.626   0.213  0.00  0.00     0.144 C 
HETATM    2  C   UNK N   1       0.329  -1.348   0.841  0.00  0.00     0.075 C 
HETATM    3  C   UNK N   1       2.505  -0.608  -0.009  0.00  0.00     0.120 C 
HETATM    4  C   UNK N   1      -0.794   0.104  -0.319  0.00  0.00     0.097 C 
HETATM    5  S   UNK N   1      -0.073   0.220   1.368  0.00  0.00    -0.110 SA
HETATM    6  S   UNK N   1      -1.070  -2.432   0.807  0.00  0.00    -0.118 SA
HETATM    7  C   UNK N   1      -1.726  -1.150  -0.351  0.00  0.00     0.100 C 
HETATM    8  N   UNK N   1       3.285   0.234  -0.164  0.00  0.00    -0.190 NA
ENDROOT
BRANCH   1   9
HETATM    9  N   UNK N   1       1.669  -2.939  -0.297  0.00  0.00    -0.307 N 
HETATM   10  C   UNK N   1       2.019  -3.948   0.516  0.00  0.00     0.115 A 
HETATM   11  C   UNK N   1       1.478  -5.113   0.008  0.00  0.00     0.106 A 
HETATM   12  N   UNK N   1       0.757  -4.808  -1.089  0.00  0.00    -0.360 N 
HETATM   13  C   UNK N   1       0.866  -3.474  -1.239  0.00  0.00     0.188 A 
ATOM     14  HN  UNK N   1       0.236  -5.454  -1.682  1.00  0.00     0.166 HD
ENDBRANCH   1   9
BRANCH   4  15
HETATM   15  C   UNK N   1      -1.467   1.402  -0.460  0.00  0.00    -0.021 C 
HETATM   16  C   UNK N   1      -0.696   2.588  -0.348  0.00  0.00     0.043 C 
HETATM   17  C   UNK N   1      -1.335   3.769  -0.027  0.00  0.00     0.048 C 
HETATM   18 Cl   UNK N   1       1.072   2.599  -0.375  0.00  0.00    -0.084 Cl
HETATM   19  C   UNK N   1      -2.719   3.785   0.120  0.00  0.00     0.035 C 
HETATM   20  C   UNK N   1      -3.488   2.650  -0.143  0.00  0.00     0.024 C 
HETATM   21 Cl   UNK N   1      -3.490   5.199   0.757  0.00  0.00    -0.084 Cl
HETATM   22  C   UNK N   1      -2.862   1.451  -0.429  0.00  0.00     0.012 C 
ENDBRANCH   4  15
TORSDOF 2
