REMARK  12 active torsions:
REMARK  status: ('A' for Active; 'I' for Inactive)
REMARK    1  A    between atoms: C_6  and  C_5 
REMARK    2  A    between atoms: C_16  and  C_5 
REMARK    3  A    between atoms: O_24  and  C_6 
REMARK    4  A    between atoms: C_14  and  C_9 
REMARK    5  A    between atoms: N_23  and  C_9 
REMARK    6  A    between atoms: C_15  and  C_10 
REMARK    7  A    between atoms: S_27  and  C_10 
REMARK    8  A    between atoms: N_23  and  C_11 
REMARK    9  A    between atoms: N_23  and  C_12 
REMARK   10  A    between atoms: S_28  and  C_16 
REMARK   11  A    between atoms: N_18  and  C_17 
REMARK   12  A    between atoms: S_28  and  S_27 
ROOT
HETATM    1  N   UNK N   1      -6.049   5.277   0.286  0.00  0.00    -0.324 N 
ENDROOT
BRANCH   1   2
HETATM    2  C   UNK N   1      -7.063   4.615   1.084  0.00  0.00     0.175 C 
BRANCH   2   3
HETATM    3  C   UNK N   1      -7.200   3.183   0.646  0.00  0.00     0.019 A 
HETATM    4  C   UNK N   1      -6.104   2.326   0.729  0.00  0.00     0.102 A 
HETATM    5  N   UNK N   1      -6.216   1.035   0.322  0.00  0.00    -0.355 N 
HETATM    6  C   UNK N   1      -7.391   0.560  -0.165  0.00  0.00     0.078 A 
ATOM      7  HN  UNK N   1      -5.408   0.415   0.383  1.00  0.00     0.166 HD
HETATM    8  C   UNK N   1      -7.487  -0.857  -0.608  0.00  0.00     0.089 C 
HETATM    9  N   UNK N   1      -8.474   1.372  -0.247  0.00  0.00    -0.332 N 
HETATM   10  C   UNK N   1      -8.409   2.675   0.148  0.00  0.00     0.109 A 
HETATM   11  H   UNK N   1      -9.322   1.014  -0.597  0.00  0.00     0.168 HD
BRANCH  10  12
HETATM   12  N   UNK N   1      -9.443   3.416   0.059  0.00  0.00    -0.385 N 
HETATM   13  H   UNK N   1      -9.347   4.393  -0.009  0.00  0.00     0.157 HD
ATOM     14  HN  UNK N   1     -10.372   2.995   0.059  1.00  0.00     0.157 HD
ENDBRANCH  10  12
ENDBRANCH   2   3
ENDBRANCH   1   2
BRANCH   1  15
HETATM   15  C   UNK N   1      -6.376   5.786  -0.933  0.00  0.00     0.355 C 
HETATM   16  O   UNK N   1      -7.504   5.672  -1.389  0.00  0.00    -0.283 OA
ENDBRANCH   1  15
BRANCH   1  17
HETATM   17  C   UNK N   1      -4.789   5.603   0.887  0.00  0.00     0.024 C 
HETATM   18  C   UNK N   1      -4.745   5.782   2.381  0.00  0.00     0.069 C 
HETATM   19  C   UNK N   1      -3.638   5.762   0.169  0.00  0.00     0.014 C 
BRANCH  19  20
HETATM   20  C   UNK N   1      -2.379   6.247   0.832  0.00  0.00     0.074 C 
BRANCH  20  21
HETATM   21  C   UNK N   1      -2.543   7.688   1.322  0.00  0.00     0.169 C 
BRANCH  21  22
HETATM   22  O   UNK N   1      -3.160   8.485   0.351  0.00  0.00    -0.401 OA
HETATM   23  H   UNK N   1      -2.896   9.131  -0.323  0.00  0.00     0.209 HD
ENDBRANCH  21  22
ENDBRANCH  20  21
ENDBRANCH  19  20
BRANCH  19  24
HETATM   24  S   UNK N   1      -3.482   5.378  -1.589  0.00  0.00    -0.060 SA
BRANCH  24  25
HETATM   25  S   UNK N   1      -3.634   3.245  -1.346  0.00  0.00    -0.090 SA
BRANCH  25  26
HETATM   26  C   UNK N   1      -2.260   3.074  -0.150  0.00  0.00     0.118 C 
BRANCH  26  27
HETATM   27  C   UNK N   1      -2.002   1.623   0.265  0.00  0.00     0.131 C 
HETATM   28  C   UNK N   1      -1.237   0.868  -0.798  0.00  0.00     0.035 C 
HETATM   29  C   UNK N   1      -1.874  -0.480  -0.773  0.00  0.00     0.029 C 
HETATM   30  C   UNK N   1      -3.269  -0.150  -0.315  0.00  0.00     0.168 C 
HETATM   31  O   UNK N   1      -3.193   0.935   0.577  0.00  0.00    -0.385 OA
ENDBRANCH  26  27
ENDBRANCH  25  26
ENDBRANCH  24  25
ENDBRANCH  19  24
ENDBRANCH   1  17
TORSDOF 12
