REMARK  5 active torsions:
REMARK  status: ('A' for Active; 'I' for Inactive)
REMARK    1  A    between atoms: C_8  and  C_10 
REMARK    2  A    between atoms: C_9  and  C_15 
REMARK    3  A    between atoms: C_10  and  C_11 
REMARK    4  A    between atoms: C_11  and  N_12 
REMARK    5  A    between atoms: C_15  and  C_16 
ROOT
HETATM    1  C   UNK N   1       9.611 -11.759  -0.046  0.00  0.00     0.001 A 
HETATM    2  C   UNK N   1       9.689 -13.163  -0.050  0.00  0.00     0.001 A 
HETATM    3  C   UNK N   1      10.940 -13.799  -0.033  0.00  0.00     0.008 A 
HETATM    4  C   UNK N   1      10.784 -10.988  -0.026  0.00  0.00     0.012 A 
HETATM    5  C   UNK N   1      12.021 -11.641  -0.009  0.00  0.00    -0.022 A 
HETATM    6  C   UNK N   1      12.090 -13.010  -0.013  0.00  0.00    -0.043 A 
HETATM    7  C   UNK N   1      13.498 -13.486   0.018  0.00  0.00     0.074 A 
HETATM    8  C   UNK N   1      14.226 -12.150   0.055  0.00  0.00    -0.066 A 
HETATM    9  C   UNK N   1      13.377 -11.091   0.029  0.00  0.00    -0.035 A 
ENDROOT
BRANCH   9  10
HETATM   10  C   UNK N   1      13.679  -9.568   0.048  0.00  0.00     0.065 C 
HETATM   11  C   UNK N   1      12.463  -8.649   0.036  0.00  0.00     0.021 C 
BRANCH  10  12
HETATM   12  C   UNK N   1      15.000  -8.798   0.024  0.00  0.00     0.017 A 
HETATM   13  C   UNK N   1      16.245  -9.425  -0.015  0.00  0.00     0.025 A 
HETATM   14  C   UNK N   1      17.419  -8.673  -0.034  0.00  0.00     0.003 A 
HETATM   15  C   UNK N   1      17.347  -7.284  -0.018  0.00  0.00     0.017 A 
HETATM   16  C   UNK N   1      16.094  -6.673   0.015  0.00  0.00     0.088 A 
HETATM   17  N   UNK N   1      14.965  -7.431   0.036  0.00  0.00    -0.369 N 
ATOM     18  HN  UNK N   1      14.059  -6.963   0.060  1.00  0.00     0.165 HD
ENDBRANCH  10  12
ENDBRANCH   9  10
BRANCH   8  19
HETATM   19  C   UNK N   1      15.713 -12.070   0.148  0.00  0.00     0.065 C 
BRANCH  19  20
HETATM   20  C   UNK N   1      16.470 -13.364  -0.123  0.00  0.00     0.275 C 
BRANCH  20  21
HETATM   21  N   UNK N   1      17.850 -13.249   0.343  0.00  0.00     0.080 N 
HETATM   22  C   UNK N   1      18.544 -12.220  -0.420  0.00  0.00     0.309 C 
HETATM   23  C   UNK N   1      18.510 -14.504   0.036  0.00  0.00     0.309 C 
ENDBRANCH  20  21
ENDBRANCH  19  20
ENDBRANCH   8  19
TORSDOF 5
