REMARK  5 active torsions:
REMARK  status: ('A' for Active; 'I' for Inactive)
REMARK    1  A    between atoms: C_1  and  C_2 
REMARK    2  A    between atoms: C_2  and  C_3 
REMARK    3  A    between atoms: C_2  and  C_9 
REMARK    4  A    between atoms: C_3  and  C_4 
REMARK    5  A    between atoms: C_4  and  N_5 
ROOT
HETATM    1  C   UNK N   1      -0.135   0.285   0.804  0.00  0.00     0.081 C 
HETATM    2  C   UNK N   1       0.419  -0.082   2.116  0.00  0.00     0.074 C 
HETATM    3  N   UNK N   1       0.881  -0.380   3.137  0.00  0.00    -0.196 NA
ENDROOT
BRANCH   1   4
HETATM    4  C   UNK N   1      -0.045  -1.005  -0.015  0.00  0.00    -0.035 A 
HETATM    5  C   UNK N   1       1.061  -1.252  -0.850  0.00  0.00     0.009 A 
HETATM    6  C   UNK N   1       1.246  -2.514  -1.434  0.00  0.00     0.001 A 
HETATM    7  C   UNK N   1       0.335  -3.544  -1.185  0.00  0.00     0.000 A 
HETATM    8  C   UNK N   1      -0.766  -3.314  -0.357  0.00  0.00     0.001 A 
HETATM    9  C   UNK N   1      -0.941  -2.062   0.238  0.00  0.00     0.009 A 
ENDBRANCH   1   4
BRANCH   1  10
HETATM   10  C   UNK N   1       0.825   1.410   0.345  0.00  0.00     0.065 C 
BRANCH  10  11
HETATM   11  C   UNK N   1       0.483   2.233  -0.910  0.00  0.00     0.220 C 
HETATM   12  C   UNK N   1       1.491   1.931  -2.006  0.00  0.00     0.043 C 
BRANCH  11  13
HETATM   13  N   UNK N   1       0.458   3.687  -0.656  0.00  0.00     0.084 N 
HETATM   14  C   UNK N   1      -0.764   4.047   0.045  0.00  0.00     0.309 C 
HETATM   15  C   UNK N   1       1.591   4.137   0.152  0.00  0.00     0.309 C 
ENDBRANCH  11  13
ENDBRANCH  10  11
ENDBRANCH   1  10
BRANCH   1  16
HETATM   16  C   UNK N   1      -1.584   0.832   0.997  0.00  0.00     0.005 C 
HETATM   17  C   UNK N   1      -2.289   1.180  -0.305  0.00  0.00     0.011 C 
HETATM   18  C   UNK N   1      -2.498  -0.077   1.815  0.00  0.00     0.011 C 
ENDBRANCH   1  16
TORSDOF 5
