REMARK  4 active torsions:
REMARK  status: ('A' for Active; 'I' for Inactive)
REMARK    1  A    between atoms: C_6  and  C_12 
REMARK    2  A    between atoms: C_18  and  N_16 
REMARK    3  A    between atoms: C_18  and  C_19 
REMARK    4  A    between atoms: C_18  and  C_22 
ROOT
HETATM    1  C   UNK N   1       4.093   3.636  -0.661  0.00  0.00     0.151 C 
HETATM    2  C   UNK N   1       5.319   4.212  -0.099  0.00  0.00     0.061 C 
HETATM    3  N   UNK N   1       6.285   4.658   0.357  0.00  0.00    -0.197 NA
ENDROOT
BRANCH   1   4
HETATM    4  C   UNK N   1       2.866   3.908   0.216  0.00  0.00     0.124 C 
BRANCH   4   5
HETATM    5  N   UNK N   1       1.962   2.753   0.125  0.00  0.00    -0.297 N 
HETATM    6  N   UNK N   1       0.659   2.816  -0.108  0.00  0.00    -0.309 N 
HETATM    7  C   UNK N   1       0.164   1.567  -0.129  0.00  0.00     0.122 A 
ATOM      8  HN  UNK N   1       0.121   3.671  -0.247  1.00  0.00     0.186 HD
HETATM    9  C   UNK N   1       1.213   0.693   0.086  0.00  0.00     0.025 A 
HETATM   10  C   UNK N   1       2.340   1.467   0.253  0.00  0.00     0.125 A 
BRANCH   9  11
HETATM   11  C   UNK N   1       1.159  -0.777   0.069  0.00  0.00     0.060 A 
HETATM   12  C   UNK N   1      -0.046  -1.475   0.017  0.00  0.00     0.037 A 
HETATM   13  C   UNK N   1      -0.041  -2.827  -0.021  0.00  0.00     0.118 A 
HETATM   14  C   UNK N   1      -1.361  -1.066   0.003  0.00  0.00     0.034 A 
HETATM   15  N   UNK N   1      -1.284  -3.324  -0.058  0.00  0.00    -0.352 N 
HETATM   16  N   UNK N   1       1.105  -3.548  -0.019  0.00  0.00    -0.338 N 
HETATM   17  C   UNK N   1      -2.107  -2.246  -0.042  0.00  0.00     0.090 A 
HETATM   18  H   UNK N   1      -1.546  -4.272  -0.090  0.00  0.00     0.166 HD
HETATM   19  C   UNK N   1       2.294  -2.876   0.032  0.00  0.00     0.182 A 
ATOM     20  HN  UNK N   1       1.082  -4.567  -0.055  1.00  0.00     0.168 HD
HETATM   21  N   UNK N   1       2.316  -1.506   0.081  0.00  0.00    -0.351 N 
ATOM     22  HN  UNK N   1       3.213  -1.021   0.127  1.00  0.00     0.166 HD
ENDBRANCH   9  11
ENDBRANCH   4   5
BRANCH   4  23
HETATM   23  C   UNK N   1       2.193   5.213  -0.267  0.00  0.00     0.011 C 
HETATM   24  C   UNK N   1       0.855   5.545   0.349  0.00  0.00     0.007 C 
HETATM   25  C   UNK N   1       0.632   6.975  -0.084  0.00  0.00     0.000 C 
HETATM   26  C   UNK N   1       2.019   7.602  -0.102  0.00  0.00     0.000 C 
HETATM   27  C   UNK N   1       3.013   6.455   0.001  0.00  0.00     0.007 C 
ENDBRANCH   4  23
ENDBRANCH   1   4
TORSDOF 4
