REMARK  4 active torsions:
REMARK  status: ('A' for Active; 'I' for Inactive)
REMARK    1  A    between atoms: C_4  and  C_2 
REMARK    2  A    between atoms: C_4  and  O_32 
REMARK    3  A    between atoms: C_10  and  C_22 
REMARK    4  A    between atoms: C_25  and  N_28 
ROOT
HETATM    1  C   UNK N   1      -0.597  -2.682   0.752  0.00  0.00     0.125 C 
HETATM    2  C   UNK N   1      -0.824  -4.018   1.481  0.00  0.00     0.047 C 
HETATM    3  C   UNK N   1       0.176  -5.012   0.871  0.00  0.00     0.009 C 
HETATM    4  C   UNK N   1       1.046  -4.160  -0.044  0.00  0.00     0.005 C 
HETATM    5  C   UNK N   1       0.911  -2.740   0.427  0.00  0.00    -0.001 C 
HETATM    6  C   UNK N   1       1.401  -1.846  -0.722  0.00  0.00     0.026 C 
HETATM    7  C   UNK N   1       2.884  -2.080  -1.090  0.00  0.00     0.049 C 
HETATM    8  C   UNK N   1       3.422  -3.503  -0.808  0.00  0.00    -0.060 C 
HETATM    9  C   UNK N   1       4.741  -3.816  -0.970  0.00  0.00    -0.048 C 
HETATM   10  C   UNK N   1       5.744  -2.841  -1.548  0.00  0.00     0.047 C 
HETATM   11  C   UNK N   1       7.020  -2.817  -0.715  0.00  0.00     0.087 C 
HETATM   12  C   UNK N   1       7.530  -4.216  -0.519  0.00  0.00     0.150 C 
HETATM   13  O   UNK N   1       8.729  -4.422  -0.443  0.00  0.00    -0.293 OA
HETATM   14  C   UNK N   1       6.572  -5.321  -0.294  0.00  0.00     0.057 C 
HETATM   15  C   UNK N   1       5.256  -5.139  -0.487  0.00  0.00    -0.048 C 
HETATM   16  C   UNK N   1       4.302  -6.194  -0.010  0.00  0.00     0.040 C 
HETATM   17  C   UNK N   1       3.140  -5.522   0.716  0.00  0.00     0.014 C 
HETATM   18  C   UNK N   1       2.485  -4.606  -0.309  0.00  0.00     0.021 C 
HETATM   19  C   UNK N   1       1.738  -2.505   1.705  0.00  0.00     0.019 C 
ENDROOT
BRANCH   7  20
HETATM   20  C   UNK N   1       3.689  -0.936  -0.522  0.00  0.00    -0.050 A 
HETATM   21  C   UNK N   1       3.626   0.309  -1.159  0.00  0.00     0.010 A 
HETATM   22  C   UNK N   1       4.424   1.368  -0.724  0.00  0.00     0.030 A 
HETATM   23  C   UNK N   1       5.308   1.198   0.355  0.00  0.00     0.029 A 
HETATM   24  C   UNK N   1       5.350  -0.044   1.009  0.00  0.00     0.030 A 
HETATM   25  C   UNK N   1       4.546  -1.101   0.578  0.00  0.00     0.010 A 
BRANCH  23  26
HETATM   26  N   UNK N   1       6.164   2.265   0.765  0.00  0.00    -0.390 N 
HETATM   27  C   UNK N   1       6.127   3.541   0.096  0.00  0.00     0.149 C 
HETATM   28  C   UNK N   1       7.127   2.074   1.820  0.00  0.00     0.149 C 
ENDBRANCH  23  26
ENDBRANCH   7  20
BRANCH   1  29
HETATM   29  C   UNK N   1      -1.486  -2.566  -0.482  0.00  0.00     0.158 C 
HETATM   30  C   UNK N   1      -2.468  -3.632  -0.855  0.00  0.00     0.094 C 
HETATM   31  O   UNK N   1      -1.430  -1.559  -1.171  0.00  0.00    -0.295 OA
ENDBRANCH   1  29
BRANCH   1  32
HETATM   32  O   UNK N   1      -0.894  -1.612   1.602  0.00  0.00    -0.381 OA
HETATM   33  H   UNK N   1      -0.354  -1.063   2.192  0.00  0.00     0.211 HD
ENDBRANCH   1  32
TORSDOF 4
