REMARK  22 active torsions:
REMARK  status: ('A' for Active; 'I' for Inactive)
REMARK    1  A    between atoms: C_1  and  O_37 
REMARK    2  A    between atoms: C_3  and  O_8 
REMARK    3  A    between atoms: C_4  and  O_7 
REMARK    4  A    between atoms: C_5  and  O_6 
REMARK    5  A    between atoms: O_8  and  C_9 
REMARK    6  A    between atoms: C_9  and  C_11 
REMARK    7  A    between atoms: C_19  and  C_41 
REMARK    8  A    between atoms: C_23  and  C_44 
REMARK    9  A    between atoms: C_25  and  O_37 
REMARK   10  A    between atoms: C_27  and  O_35 
REMARK   11  A    between atoms: C_32  and  C_36 
REMARK   12  A    between atoms: C_36  and  O_46 
REMARK   13  A    between atoms: C_41  and  O_42 
REMARK   14  A    between atoms: C_47  and  O_46 
REMARK   15  A    between atoms: C_48  and  O_54 
REMARK   16  A    between atoms: C_49  and  O_56 
REMARK   17  A    between atoms: C_50  and  O_57 
REMARK   18  A    between atoms: O_57  and  C_58 
REMARK   19  A    between atoms: C_58  and  C_59 
REMARK   20  A    between atoms: C_61  and  C_70 
REMARK   21  A    between atoms: C_63  and  O_67 
REMARK   22  A    between atoms: C_65  and  O_69 
ROOT
HETATM    1  C   UNK N   1      15.032  -7.987  -1.165  0.00  0.00    -0.065 C 
HETATM    2  C   UNK N   1      15.854  -8.019  -2.413  0.00  0.00     0.048 C 
HETATM    3  C   UNK N   1      13.705  -7.927  -1.283  0.00  0.00    -0.018 C 
HETATM    4  O   UNK N   1      12.781  -9.653   1.495  0.00  0.00    -0.309 OA
HETATM    5  C   UNK N   1      12.818  -7.877  -0.080  0.00  0.00     0.063 C 
HETATM    6  C   UNK N   1      12.378  -9.281   0.228  0.00  0.00     0.164 C 
HETATM    7  C   UNK N   1      16.861  -7.626   0.523  0.00  0.00    -0.054 C 
HETATM    8  C   UNK N   1      17.326  -7.807   1.931  0.00  0.00     0.046 C 
HETATM    9  C   UNK N   1      15.653  -8.070   0.185  0.00  0.00     0.011 C 
HETATM   10  C   UNK N   1      19.080  -7.372  -0.781  0.00  0.00     0.041 C 
HETATM   11  C   UNK N   1      19.337  -8.804  -0.303  0.00  0.00    -0.014 C 
HETATM   12  C   UNK N   1      17.665  -6.806  -0.437  0.00  0.00     0.161 C 
HETATM   13  C   UNK N   1      20.462  -9.530  -0.488  0.00  0.00    -0.058 C 
HETATM   14  C   UNK N   1      20.556 -10.942   0.067  0.00  0.00     0.150 C 
HETATM   15  C   UNK N   1      19.494 -11.896  -0.471  0.00  0.00     0.063 C 
HETATM   16  C   UNK N   1      18.345 -11.824   0.466  0.00  0.00    -0.024 C 
HETATM   17  C   UNK N   1      17.122 -11.562   0.038  0.00  0.00    -0.003 C 
HETATM   18  C   UNK N   1      16.097 -11.235   1.035  0.00  0.00     0.015 C 
HETATM   19  C   UNK N   1      14.854 -10.870   0.698  0.00  0.00     0.041 C 
HETATM   20  C   UNK N   1      13.936 -10.340   1.769  0.00  0.00     0.291 C 
HETATM   21  O   UNK N   1      14.259 -10.479   2.939  0.00  0.00    -0.260 OA
HETATM   22  C   UNK N   1      21.655  -8.936  -1.174  0.00  0.00     0.046 C 
ENDROOT
BRANCH  19  23
HETATM   23  C   UNK N   1      14.432 -10.900  -0.754  0.00  0.00     0.216 C 
BRANCH  23  24
HETATM   24  O   UNK N   1      14.307 -12.208  -1.256  0.00  0.00    -0.354 OA
BRANCH  24  25
HETATM   25  C   UNK N   1      13.264 -12.908  -0.598  0.00  0.00     0.292 C 
HETATM   26  C   UNK N   1      13.753 -14.240   0.028  0.00  0.00     0.207 C 
HETATM   27  C   UNK N   1      12.880 -14.751   1.174  0.00  0.00     0.184 C 
HETATM   28  C   UNK N   1      11.512 -14.107   1.164  0.00  0.00     0.192 C 
HETATM   29  C   UNK N   1      11.860 -12.641   1.327  0.00  0.00     0.152 C 
HETATM   30  O   UNK N   1      12.327 -12.086   0.112  0.00  0.00    -0.351 OA
HETATM   31  C   UNK N   1      10.660 -11.872   1.857  0.00  0.00     0.042 C 
BRANCH  26  32
HETATM   32  O   UNK N   1      15.087 -14.170   0.434  0.00  0.00    -0.383 OA
HETATM   33  C   UNK N   1      15.784 -14.920  -0.514  0.00  0.00     0.202 C 
ENDBRANCH  26  32
BRANCH  27  34
HETATM   34  O   UNK N   1      12.806 -16.142   1.172  0.00  0.00    -0.390 OA
HETATM   35  H   UNK N   1      11.941 -16.581   1.170  0.00  0.00     0.210 HD
ENDBRANCH  27  34
BRANCH  28  36
HETATM   36  O   UNK N   1      10.867 -14.371  -0.043  0.00  0.00    -0.307 OA
BRANCH  36  37
HETATM   37  C   UNK N   1       9.826 -13.644  -0.517  0.00  0.00     0.297 C 
HETATM   38  O   UNK N   1      10.036 -12.534  -0.992  0.00  0.00    -0.259 OA
BRANCH  37  39
HETATM   39  C   UNK N   1       8.436 -14.158  -0.441  0.00  0.00     0.082 A 
HETATM   40  C   UNK N   1       8.174 -15.532  -0.174  0.00  0.00    -0.015 A 
HETATM   41  C   UNK N   1       6.845 -15.975  -0.069  0.00  0.00     0.076 A 
HETATM   42  C   UNK N   1       5.784 -15.078  -0.229  0.00  0.00     0.112 A 
HETATM   43 Cl   UNK N   1       6.496 -17.674   0.259  0.00  0.00    -0.081 Cl
HETATM   44  C   UNK N   1       6.035 -13.730  -0.500  0.00  0.00     0.103 A 
HETATM   45  C   UNK N   1       7.347 -13.270  -0.608  0.00  0.00     0.107 A 
HETATM   46 Cl   UNK N   1       4.693 -12.606  -0.690  0.00  0.00    -0.078 Cl
BRANCH  40  47
HETATM   47  C   UNK N   1       9.280 -16.541  -0.015  0.00  0.00     0.037 C 
HETATM   48  C   UNK N   1       9.989 -16.785  -1.339  0.00  0.00     0.010 C 
ENDBRANCH  40  47
BRANCH  42  49
HETATM   49  O   UNK N   1       4.516 -15.513  -0.123  0.00  0.00    -0.357 OA
HETATM   50  H   UNK N   1       3.812 -14.899  -0.049  0.00  0.00     0.217 HD
ENDBRANCH  42  49
BRANCH  45  51
HETATM   51  O   UNK N   1       7.558 -11.959  -0.852  0.00  0.00    -0.358 OA
HETATM   52  H   UNK N   1       8.419 -11.630  -1.022  0.00  0.00     0.217 HD
ENDBRANCH  45  51
ENDBRANCH  37  39
ENDBRANCH  36  37
ENDBRANCH  28  36
ENDBRANCH  24  25
ENDBRANCH  23  24
ENDBRANCH  19  23
BRANCH   6  53
HETATM   53  C   UNK N   1      10.893  -9.501  -0.040  0.00  0.00     0.144 C 
HETATM   54  C   UNK N   1      10.596  -9.356  -1.523  0.00  0.00     0.042 C 
BRANCH  53  55
HETATM   55  O   UNK N   1      10.112  -8.605   0.691  0.00  0.00    -0.393 OA
HETATM   56  H   UNK N   1      10.380  -7.823   1.199  0.00  0.00     0.210 HD
ENDBRANCH  53  55
ENDBRANCH   6  53
BRANCH  14  57
HETATM   57  O   UNK N   1      21.818 -11.498  -0.148  0.00  0.00    -0.391 OA
HETATM   58  H   UNK N   1      21.922 -12.451  -0.298  0.00  0.00     0.210 HD
ENDBRANCH  14  57
BRANCH  10  59
HETATM   59  C   UNK N   1      20.224  -6.379  -0.563  0.00  0.00     0.007 C 
HETATM   60  C   UNK N   1      20.502  -6.138   0.907  0.00  0.00     0.006 C 
ENDBRANCH  10  59
BRANCH  12  61
HETATM   61  O   UNK N   1      17.640  -5.465   0.006  0.00  0.00    -0.348 OA
BRANCH  61  62
HETATM   62  C   UNK N   1      16.805  -4.718  -0.862  0.00  0.00     0.293 C 
HETATM   63  O   UNK N   1      15.474  -5.262  -0.919  0.00  0.00    -0.346 OA
HETATM   64  C   UNK N   1      14.422  -4.308  -0.912  0.00  0.00     0.086 C 
HETATM   65  C   UNK N   1      14.532  -3.463   0.365  0.00  0.00     0.197 C 
HETATM   66  C   UNK N   1      14.433  -3.499  -2.204  0.00  0.00     0.048 C 
HETATM   67  C   UNK N   1      13.091  -5.028  -0.877  0.00  0.00     0.048 C 
HETATM   68  C   UNK N   1      15.895  -2.814   0.627  0.00  0.00     0.184 C 
HETATM   69  C   UNK N   1      16.862  -3.214  -0.496  0.00  0.00     0.204 C 
BRANCH  65  70
HETATM   70  O   UNK N   1      13.385  -2.814   0.811  0.00  0.00    -0.310 OA
BRANCH  70  71
HETATM   71  C   UNK N   1      12.639  -1.946   0.074  0.00  0.00     0.262 C 
HETATM   72  O   UNK N   1      13.112  -1.382  -0.900  0.00  0.00    -0.265 OA
BRANCH  71  73
HETATM   73  C   UNK N   1      11.202  -1.713   0.424  0.00  0.00     0.077 C 
HETATM   74  C   UNK N   1      11.069  -1.122   1.812  0.00  0.00     0.020 C 
HETATM   75  C   UNK N   1      10.425  -3.016   0.347  0.00  0.00     0.020 C 
ENDBRANCH  71  73
ENDBRANCH  70  71
ENDBRANCH  65  70
BRANCH  68  76
HETATM   76  O   UNK N   1      15.781  -1.424   0.664  0.00  0.00    -0.390 OA
HETATM   77  H   UNK N   1      16.579  -0.872   0.689  0.00  0.00     0.210 HD
ENDBRANCH  68  76
BRANCH  69  78
HETATM   78  O   UNK N   1      18.167  -2.802  -0.225  0.00  0.00    -0.388 OA
HETATM   79  H   UNK N   1      18.869  -3.444  -0.037  0.00  0.00     0.210 HD
ENDBRANCH  69  78
ENDBRANCH  61  62
ENDBRANCH  12  61
TORSDOF 22
