REMARK  6 active torsions:
REMARK  status: ('A' for Active; 'I' for Inactive)
REMARK    1  A    between atoms: N_4  and  C_13 
REMARK    2  A    between atoms: C_5  and  C_20 
REMARK    3  A    between atoms: C_6  and  C_8 
REMARK    4  A    between atoms: C_8  and  O_9 
REMARK    5  A    between atoms: C_13  and  C_14 
REMARK    6  A    between atoms: C_14  and  C_15 
ROOT
HETATM    1  C   UNK N   1       0.118  -1.728   1.557  0.00  0.00     0.039 C 
HETATM    2  C   UNK N   1       1.647  -1.794   1.538  0.00  0.00     0.038 C 
HETATM    3  C   UNK N   1       2.184  -0.296  -0.398  0.00  0.00     0.046 C 
HETATM    4  N   UNK N   1       0.832  -2.325  -0.649  0.00  0.00     0.098 N 
HETATM    5  C   UNK N   1       0.948   0.547  -0.028  0.00  0.00     0.036 C 
HETATM    6  C   UNK N   1      -0.363  -0.192  -0.418  0.00  0.00     0.127 C 
HETATM    7  C   UNK N   1      -0.269  -1.668   0.070  0.00  0.00     0.237 C 
HETATM    8  C   UNK N   1       1.996  -1.759   0.046  0.00  0.00     0.224 C 
ENDROOT
BRANCH   5   9
HETATM    9  C   UNK N   1       1.123   2.040  -0.247  0.00  0.00    -0.053 A 
HETATM   10  C   UNK N   1       0.064   2.927  -0.007  0.00  0.00     0.009 A 
HETATM   11  C   UNK N   1       0.268   4.309  -0.038  0.00  0.00     0.019 A 
HETATM   12  C   UNK N   1       1.543   4.821  -0.285  0.00  0.00     0.006 A 
HETATM   13  C   UNK N   1       2.609   3.952  -0.524  0.00  0.00     0.019 A 
HETATM   14  I   UNK N   1       1.865   6.899  -0.244  0.00  0.00    -0.045 I 
HETATM   15  C   UNK N   1       2.401   2.569  -0.501  0.00  0.00     0.009 A 
ENDBRANCH   5   9
BRANCH   6  16
HETATM   16  C   UNK N   1      -1.641   0.414   0.100  0.00  0.00     0.265 C 
HETATM   17  O   UNK N   1      -1.661   1.000   1.176  0.00  0.00    -0.265 OA
BRANCH  16  18
HETATM   18  O   UNK N   1      -2.788   0.194  -0.587  0.00  0.00    -0.326 OA
HETATM   19  C   UNK N   1      -4.014   0.628  -0.143  0.00  0.00     0.213 C 
ENDBRANCH  16  18
ENDBRANCH   6  16
BRANCH   4  20
HETATM   20  C   UNK N   1       0.835  -3.786  -0.429  0.00  0.00     0.276 C 
BRANCH  20  21
HETATM   21  C   UNK N   1      -0.423  -4.469  -0.945  0.00  0.00     0.061 C 
BRANCH  21  22
HETATM   22  C   UNK N   1      -1.148  -5.099   0.230  0.00  0.00     0.223 C 
HETATM   23  F   UNK N   1      -2.356  -5.622  -0.186  0.00  0.00    -0.255 F 
ENDBRANCH  21  22
ENDBRANCH  20  21
ENDBRANCH   4  20
TORSDOF 6
