REMARK  23 active torsions:
REMARK  status: ('A' for Active; 'I' for Inactive)
REMARK    1  A    between atoms: C_3  and  C_1 
REMARK    2  A    between atoms: C_16  and  C_1 
REMARK    3  A    between atoms: N_26  and  C_3 
REMARK    4  A    between atoms: C_10  and  C_5 
REMARK    5  A    between atoms: C_17  and  C_5 
REMARK    6  A    between atoms: N_35  and  C_7 
REMARK    7  A    between atoms: C_14  and  C_8 
REMARK    8  A    between atoms: O_47  and  C_8 
REMARK    9  A    between atoms: C_15  and  C_9 
REMARK   10  A    between atoms: O_48  and  C_9 
REMARK   11  A    between atoms: C_16  and  C_10 
REMARK   12  A    between atoms: C_10  and  N_27 
REMARK   13  A    between atoms: C_11  and  C_18 
REMARK   14  A    between atoms: C_12  and  N_36 
REMARK   15  A    between atoms: C_16  and  O_49 
REMARK   16  A    between atoms: C_17  and  O_50 
REMARK   17  A    between atoms: C_19  and  O_51 
REMARK   18  A    between atoms: C_20  and  O_52 
REMARK   19  A    between atoms: O_53  and  C_21 
REMARK   20  A    between atoms: C_22  and  O_54 
REMARK   21  A    between atoms: O_55  and  C_23 
REMARK   22  A    between atoms: N_35  and  C_25 
REMARK   23  A    between atoms: O_56  and  C_25 
ROOT
HETATM    1  C   UNK N   1       1.533   2.711   2.249  0.00  0.00     0.155 C 
HETATM    2  C   UNK N   1       2.130   9.560   0.168  0.00  0.00     0.125 C 
HETATM    3  C   UNK N   1       2.456   1.589   1.780  0.00  0.00     0.175 C 
HETATM    4  C   UNK N   1       2.314   8.230   0.229  0.00  0.00     0.100 C 
HETATM    5  C   UNK N   1       5.392   6.482  -0.981  0.00  0.00     0.181 C 
HETATM    6  C   UNK N   1       4.938   3.405  -0.569  0.00  0.00     0.181 C 
HETATM    7  C   UNK N   1       0.488   5.754   0.315  0.00  0.00     0.181 C 
HETATM    8  C   UNK N   1       3.761   2.043   1.135  0.00  0.00     0.137 C 
HETATM    9  C   UNK N   1       1.788   7.557   1.431  0.00  0.00     0.165 C 
HETATM   10  C   UNK N   1       4.472   7.478  -0.327  0.00  0.00     0.141 C 
HETATM   11  C   UNK N   1       5.718   4.371   0.335  0.00  0.00     0.137 C 
HETATM   12  C   UNK N   1       0.428   4.355   0.881  0.00  0.00     0.136 C 
HETATM   13  N   UNK N   1       1.509   3.872   1.393  0.00  0.00    -0.370 N 
ATOM     14  HN  UNK N   1       2.393   4.335   1.182  1.00  0.00     0.161 HD
HETATM   15  N   UNK N   1       3.209   7.511  -0.616  0.00  0.00    -0.334 N 
ATOM     16  HN  UNK N   1       2.858   7.025  -1.442  1.00  0.00     0.168 HD
HETATM   17  N   UNK N   1       3.766   2.816   0.092  0.00  0.00    -0.359 N 
ATOM     18  HN  UNK N   1       2.856   3.040  -0.313  1.00  0.00     0.162 HD
HETATM   19  N   UNK N   1       5.882   5.637   0.099  0.00  0.00    -0.359 N 
ATOM     20  HN  UNK N   1       6.454   6.124   0.790  1.00  0.00     0.162 HD
HETATM   21  N   UNK N   1       1.060   6.500   1.419  0.00  0.00    -0.355 N 
ATOM     22  HN  UNK N   1       0.848   6.121   2.342  1.00  0.00     0.162 HD
ENDROOT
BRANCH   3  23
HETATM   23  N   UNK N   1       1.670   0.589   1.085  0.00  0.00    -0.361 N 
HETATM   24  C   UNK N   1       1.050   0.733  -0.032  0.00  0.00     0.113 C 
ATOM     25  HN  UNK N   1       1.602  -0.326   1.529  1.00  0.00     0.162 HD
BRANCH  24  26
HETATM   26  C   UNK N   1       0.091  -0.339  -0.444  0.00  0.00     0.110 C 
BRANCH  26  27
HETATM   27  C   UNK N   1      -1.366   0.020  -0.086  0.00  0.00     0.110 C 
BRANCH  27  28
HETATM   28  C   UNK N   1      -2.043   0.843  -1.203  0.00  0.00     0.142 C 
BRANCH  28  29
HETATM   29  C   UNK N   1      -3.541   1.047  -0.956  0.00  0.00     0.053 C 
BRANCH  29  30
HETATM   30  C   UNK N   1      -3.833   1.815   0.321  0.00  0.00     0.113 C 
BRANCH  30  31
HETATM   31  N   UNK N   1      -5.065   1.316   0.903  0.00  0.00    -0.430 N 
HETATM   32  H   UNK N   1      -5.803   1.891   1.311  0.00  0.00     0.149 HD
HETATM   33  H   UNK N   1      -5.206   0.306   0.903  0.00  0.00     0.149 HD
ENDBRANCH  30  31
ENDBRANCH  29  30
ENDBRANCH  28  29
BRANCH  28  34
HETATM   34  O   UNK N   1      -1.428   2.086  -1.357  0.00  0.00    -0.393 OA
HETATM   35  H   UNK N   1      -0.466   2.148  -1.464  0.00  0.00     0.210 HD
ENDBRANCH  28  34
ENDBRANCH  27  28
BRANCH  27  36
HETATM   36  N   UNK N   1      -2.098  -1.222   0.107  0.00  0.00    -0.423 N 
HETATM   37  H   UNK N   1      -3.109  -1.213   0.243  0.00  0.00     0.150 HD
HETATM   38  H   UNK N   1      -1.596  -2.110   0.107  0.00  0.00     0.150 HD
ENDBRANCH  27  36
ENDBRANCH  26  27
ENDBRANCH  24  26
BRANCH  24  39
HETATM   39  O   UNK N   1       1.179   1.854  -0.766  0.00  0.00    -0.349 OA
HETATM   40  H   UNK N   1       1.900   2.166  -1.276  0.00  0.00     0.219 HD
ENDBRANCH  24  39
ENDBRANCH   3  23
BRANCH   8  41
HETATM   41  O   UNK N   1       4.914   1.678   1.728  0.00  0.00    -0.348 OA
HETATM   42  H   UNK N   1       5.095   0.857   2.141  0.00  0.00     0.219 HD
ENDBRANCH   8  41
BRANCH  12  43
HETATM   43  O   UNK N   1      -0.752   3.712   1.031  0.00  0.00    -0.348 OA
HETATM   44  H   UNK N   1      -1.547   4.198   1.135  0.00  0.00     0.219 HD
ENDBRANCH  12  43
BRANCH   6  45
HETATM   45  C   UNK N   1       5.868   2.342  -1.173  0.00  0.00     0.197 C 
BRANCH  45  46
HETATM   46  O   UNK N   1       6.662   1.706  -0.216  0.00  0.00    -0.398 OA
HETATM   47  H   UNK N   1       6.556   1.007   0.448  0.00  0.00     0.209 HD
ENDBRANCH  45  46
ENDBRANCH   6  45
BRANCH   7  48
HETATM   48  C   UNK N   1      -0.921   6.360   0.068  0.00  0.00     0.131 C 
HETATM   49  C   UNK N   1      -0.854   7.819  -0.383  0.00  0.00     0.048 C 
HETATM   50  C   UNK N   1      -2.260   8.438  -0.373  0.00  0.00     0.140 C 
HETATM   51  N   UNK N   1      -3.262   7.557  -0.953  0.00  0.00    -0.227 N 
HETATM   52  C   UNK N   1      -2.981   6.197  -1.249  0.00  0.00     0.667 C 
HETATM   53  H   UNK N   1      -4.159   7.914  -1.146  0.00  0.00     0.177 HD
HETATM   54  N   UNK N   1      -3.854   5.486  -1.872  0.00  0.00    -0.235 N 
HETATM   55  N   UNK N   1      -1.730   5.633  -0.885  0.00  0.00    -0.220 N 
HETATM   56  H   UNK N   1      -4.659   5.792  -2.349  0.00  0.00     0.174 HD
ATOM     57  HN  UNK N   1      -3.691   4.479  -1.872  1.00  0.00     0.174 HD
HETATM   58  H   UNK N   1      -1.425   4.778  -1.267  0.00  0.00     0.178 HD
ENDBRANCH   7  48
BRANCH  11  59
HETATM   59  O   UNK N   1       6.284   3.879   1.453  0.00  0.00    -0.348 OA
HETATM   60  H   UNK N   1       6.184   3.367   2.231  0.00  0.00     0.219 HD
ENDBRANCH  11  59
BRANCH   9  61
HETATM   61  O   UNK N   1       2.076   8.106   2.626  0.00  0.00    -0.345 OA
HETATM   62  H   UNK N   1       2.507   8.123   3.457  0.00  0.00     0.219 HD
ENDBRANCH   9  61
BRANCH   5  63
HETATM   63  C   UNK N   1       6.577   7.172  -1.663  0.00  0.00     0.197 C 
BRANCH  63  64
HETATM   64  O   UNK N   1       7.385   7.841  -0.737  0.00  0.00    -0.398 OA
HETATM   65  H   UNK N   1       8.067   7.587  -0.095  0.00  0.00     0.209 HD
ENDBRANCH  63  64
ENDBRANCH   5  63
BRANCH  10  66
HETATM   66  O   UNK N   1       4.959   8.242   0.678  0.00  0.00    -0.348 OA
HETATM   67  H   UNK N   1       5.585   8.215   1.375  0.00  0.00     0.219 HD
ENDBRANCH  10  66
BRANCH   2  68
HETATM   68  N   UNK N   1       2.736  10.407  -0.790  0.00  0.00    -0.330 N 
HETATM   69  H   UNK N   1       3.265  10.021  -1.525  0.00  0.00     0.168 HD
BRANCH  68  70
HETATM   70  C   UNK N   1       2.582  11.823  -0.689  0.00  0.00     0.214 C 
HETATM   71  N   UNK N   1       1.835  12.342   0.221  0.00  0.00    -0.365 N 
HETATM   72  H   UNK N   1       1.893  13.035   0.917  0.00  0.00     0.159 HD
ATOM     73  HN  UNK N   1       0.912  11.907   0.221  1.00  0.00     0.159 HD
BRANCH  70  74
HETATM   74  O   UNK N   1       3.248  12.631  -1.531  0.00  0.00    -0.333 OA
HETATM   75  H   UNK N   1       3.968  12.510  -2.118  0.00  0.00     0.220 HD
ENDBRANCH  70  74
ENDBRANCH  68  70
ENDBRANCH   2  68
TORSDOF 23
