REMARK  8 active torsions:
REMARK  status: ('A' for Active; 'I' for Inactive)
REMARK    1  A    between atoms: C_12  and  C_6 
REMARK    2  A    between atoms: C_15  and  C_7 
REMARK    3  A    between atoms: N_20  and  C_8 
REMARK    4  A    between atoms: N_20  and  C_12 
REMARK    5  A    between atoms: C_17  and  C_15 
REMARK    6  A    between atoms: N_20  and  C_15 
REMARK    7  A    between atoms: N_18  and  C_16 
REMARK    8  A    between atoms: O_21  and  C_17 
ROOT
HETATM    1  C   UNK N   1       6.090   3.478   0.093  0.00  0.00     0.150 C 
HETATM    2  N   UNK N   1       7.137   3.155  -0.589  0.00  0.00    -0.338 N 
ATOM      3  HN  UNK N   1       7.423   3.783  -1.341  1.00  0.00     0.168 HD
ENDROOT
BRANCH   1   4
HETATM    4  C   UNK N   1       5.339   4.738  -0.259  0.00  0.00     0.296 C 
BRANCH   4   5
HETATM    5  C   UNK N   1       6.060   6.063  -0.467  0.00  0.00     0.040 C 
HETATM    6  C   UNK N   1       7.015   6.345   0.678  0.00  0.00     0.007 C 
ENDBRANCH   4   5
BRANCH   4   7
HETATM    7  N   UNK N   1       3.910   4.711  -0.590  0.00  0.00     0.100 NA
BRANCH   7   8
HETATM    8  C   UNK N   1       3.512   3.542  -1.393  0.00  0.00     0.269 C 
HETATM    9  C   UNK N   1       3.205   2.296  -0.563  0.00  0.00     0.037 C 
ENDBRANCH   7   8
BRANCH   7  10
HETATM   10  C   UNK N   1       3.123   4.871   0.635  0.00  0.00     0.273 C 
BRANCH  10  11
HETATM   11  C   UNK N   1       1.718   5.357   0.319  0.00  0.00     0.026 C 
HETATM   12  C   UNK N   1       1.629   6.853   0.532  0.00  0.00     0.007 C 
ENDBRANCH  10  11
ENDBRANCH   7  10
ENDBRANCH   4   7
ENDBRANCH   1   4
BRANCH   1  13
HETATM   13  O   UNK N   1       5.700   2.752   1.161  0.00  0.00    -0.348 OA
HETATM   14  H   UNK N   1       5.128   2.734   1.903  0.00  0.00     0.219 HD
ENDBRANCH   1  13
BRANCH   2  15
HETATM   15  C   UNK N   1       7.927   1.983  -0.371  0.00  0.00     0.045 A 
HETATM   16  C   UNK N   1       9.323   2.116  -0.227  0.00  0.00    -0.035 A 
HETATM   17  C   UNK N   1       9.974   3.457  -0.254  0.00  0.00     0.050 C 
HETATM   18  C   UNK N   1      10.123   0.984  -0.042  0.00  0.00     0.009 A 
HETATM   19  C   UNK N   1       9.549  -0.286  -0.010  0.00  0.00     0.001 A 
HETATM   20  C   UNK N   1       8.172  -0.433  -0.165  0.00  0.00     0.009 A 
HETATM   21  C   UNK N   1       7.354   0.687  -0.344  0.00  0.00    -0.035 A 
HETATM   22  C   UNK N   1       5.897   0.463  -0.556  0.00  0.00     0.050 C 
ENDBRANCH   2  15
TORSDOF 8
