REMARK  11 active torsions:
REMARK  status: ('A' for Active; 'I' for Inactive)
REMARK    1  A    between atoms: C_18  and  C_11 
REMARK    2  A    between atoms: C_21  and  C_12 
REMARK    3  A    between atoms: C_18  and  C_13 
REMARK    4  A    between atoms: C_19  and  C_13 
REMARK    5  A    between atoms: C_19  and  C_14 
REMARK    6  A    between atoms: C_23  and  C_14 
REMARK    7  A    between atoms: C_24  and  C_15 
REMARK    8  A    between atoms: C_25  and  C_16 
REMARK    9  A    between atoms: C_18  and  O_29 
REMARK   10  A    between atoms: C_19  and  O_30 
REMARK   11  A    between atoms: O_32  and  C_23 
ROOT
HETATM    1  C   UNK N   1      -2.705   8.929  -0.236  0.00  0.00     0.001 A 
HETATM    2  C   UNK N   1      -3.920   8.256  -0.125  0.00  0.00     0.002 A 
HETATM    3  C   UNK N   1      -1.507   8.214  -0.214  0.00  0.00     0.014 A 
HETATM    4  C   UNK N   1      -3.934   6.868   0.001  0.00  0.00     0.030 A 
HETATM    5  C   UNK N   1      -1.493   6.812  -0.076  0.00  0.00     0.003 A 
HETATM    6  C   UNK N   1      -0.385   4.626   0.101  0.00  0.00    -0.001 A 
HETATM    7  C   UNK N   1      -2.736   6.148   0.024  0.00  0.00     0.043 A 
HETATM    8  C   UNK N   1      -0.278   6.056  -0.044  0.00  0.00    -0.001 A 
HETATM    9  C   UNK N   1      -1.679   4.025   0.170  0.00  0.00     0.025 A 
HETATM   10  N   UNK N   1      -2.786   4.804   0.139  0.00  0.00    -0.358 N 
ATOM     11  HN  UNK N   1      -3.699   4.355   0.205  1.00  0.00     0.166 HD
ENDROOT
BRANCH   6  12
HETATM   12  C   UNK N   1       0.859   3.821   0.251  0.00  0.00     0.013 C 
HETATM   13  C   UNK N   1       0.953   2.551   0.643  0.00  0.00     0.006 C 
BRANCH  13  14
HETATM   14  C   UNK N   1       2.291   1.913   0.780  0.00  0.00     0.143 C 
BRANCH  14  15
HETATM   15  C   UNK N   1       3.018   1.869  -0.554  0.00  0.00     0.068 C 
BRANCH  15  16
HETATM   16  C   UNK N   1       4.507   2.017  -0.320  0.00  0.00     0.130 C 
BRANCH  16  17
HETATM   17  C   UNK N   1       4.866   3.498  -0.296  0.00  0.00     0.141 C 
BRANCH  17  18
HETATM   18  C   UNK N   1       6.220   3.764   0.290  0.00  0.00     0.141 C 
HETATM   19  O   UNK N   1       6.680   4.893   0.250  0.00  0.00    -0.650 OA
BRANCH  18  20
HETATM   20  O   UNK N   1       6.925   2.778   0.881  0.00  0.00    -0.776 OA
HETATM   21  H   UNK N   1       6.576   2.011   1.291  0.00  0.00     0.167 HD
ENDBRANCH  18  20
ENDBRANCH  17  18
ENDBRANCH  16  17
BRANCH  16  22
HETATM   22  O   UNK N   1       5.201   1.388  -1.352  0.00  0.00    -0.395 OA
HETATM   23  H   UNK N   1       5.064   0.751  -2.071  0.00  0.00     0.210 HD
ENDBRANCH  16  22
ENDBRANCH  15  16
ENDBRANCH  14  15
BRANCH  14  24
HETATM   24  O   UNK N   1       2.141   0.614   1.266  0.00  0.00    -0.392 OA
HETATM   25  H   UNK N   1       1.307   0.253   1.604  0.00  0.00     0.210 HD
ENDBRANCH  14  24
ENDBRANCH  13  14
ENDBRANCH   6  12
BRANCH   8  26
HETATM   26  C   UNK N   1       1.086   6.748  -0.134  0.00  0.00    -0.024 A 
HETATM   27  C   UNK N   1       2.253   6.035  -0.475  0.00  0.00     0.015 A 
HETATM   28  C   UNK N   1       3.502   6.655  -0.538  0.00  0.00     0.043 A 
HETATM   29  C   UNK N   1       3.617   8.013  -0.257  0.00  0.00     0.116 A 
HETATM   30  C   UNK N   1       2.481   8.751   0.073  0.00  0.00     0.043 A 
HETATM   31  F   UNK N   1       4.830   8.613  -0.300  0.00  0.00    -0.206 F 
HETATM   32  C   UNK N   1       1.232   8.125   0.128  0.00  0.00     0.015 A 
ENDBRANCH   8  26
BRANCH   9  33
HETATM   33  C   UNK N   1      -1.894   2.537   0.303  0.00  0.00     0.036 A 
HETATM   34  C   UNK N   1      -2.888   2.044  -0.740  0.00  0.00     0.011 A 
HETATM   35  C   UNK N   1      -1.417   1.810  -0.950  0.00  0.00     0.011 A 
ENDBRANCH   9  33
TORSDOF 11
