REMARK  10 active torsions:
REMARK  status: ('A' for Active; 'I' for Inactive)
REMARK    1  A    between atoms: C_4  and  C_7 
REMARK    2  A    between atoms: C_4  and  C_8 
REMARK    3  A    between atoms: C_7  and  C_21 
REMARK    4  A    between atoms: C_8  and  N_9 
REMARK       I    between atoms: N_9  and  C_10 
REMARK    5  A    between atoms: C_10  and  O_11 
REMARK    6  A    between atoms: O_11  and  C_13 
REMARK    7  A    between atoms: C_13  and  O_14 
REMARK    8  A    between atoms: O_14  and  C_16 
REMARK    9  A    between atoms: C_16  and  C_17 
REMARK   10  A    between atoms: C_21  and  O_22 
ROOT
HETATM    1  N   UNK N   1      -0.620   0.194  -1.041  0.00  0.00    -0.336 N 
HETATM    2  C   UNK N   1      -0.188   0.837   0.080  0.00  0.00     0.362 C 
HETATM    3  O   UNK N   1      -0.960   1.099   0.985  0.00  0.00    -0.238 OA
HETATM    4  H   UNK N   1       0.043   0.016  -1.746  0.00  0.00     0.164 HD
ENDROOT
BRANCH   1   5
HETATM    5  C   UNK N   1      -1.983  -0.248  -1.274  0.00  0.00     0.135 C 
BRANCH   5   6
HETATM    6  C   UNK N   1      -2.491  -1.303  -0.270  0.00  0.00    -0.015 C 
HETATM    7  C   UNK N   1      -1.317  -2.156   0.249  0.00  0.00     0.012 C 
HETATM    8  C   UNK N   1      -1.787  -3.301   1.141  0.00  0.00     0.001 C 
HETATM    9  C   UNK N   1      -2.737  -4.199   0.360  0.00  0.00     0.000 C 
HETATM   10  C   UNK N   1      -3.933  -3.392  -0.133  0.00  0.00     0.001 C 
HETATM   11  C   UNK N   1      -3.465  -2.230  -1.015  0.00  0.00     0.012 C 
BRANCH   6  12
HETATM   12  C   UNK N   1      -3.197  -0.599   0.906  0.00  0.00     0.121 C 
BRANCH  12  13
HETATM   13  C   UNK N   1      -4.333   0.295   0.490  0.00  0.00     0.140 C 
HETATM   14  O   UNK N   1      -5.357  -0.180   0.028  0.00  0.00    -0.650 OA
BRANCH  13  15
HETATM   15  O   UNK N   1      -4.221   1.628   0.637  0.00  0.00    -0.776 OA
HETATM   16  H   UNK N   1      -3.379   2.025   0.740  0.00  0.00     0.167 HD
ENDBRANCH  13  15
ENDBRANCH  12  13
ENDBRANCH   6  12
ENDBRANCH   5   6
ENDBRANCH   1   5
BRANCH   2  17
HETATM   17  O   UNK N   1       1.115   1.186   0.201  0.00  0.00    -0.272 OA
BRANCH  17  18
HETATM   18  C   UNK N   1       2.035   0.969  -0.802  0.00  0.00     0.276 C 
HETATM   19  C   UNK N   1       2.032   2.129  -1.787  0.00  0.00     0.072 C 
BRANCH  18  20
HETATM   20  O   UNK N   1       3.296   0.758  -0.274  0.00  0.00    -0.289 OA
BRANCH  20  21
HETATM   21  C   UNK N   1       3.960   1.647   0.516  0.00  0.00     0.264 C 
HETATM   22  O   UNK N   1       3.427   2.694   0.858  0.00  0.00    -0.265 OA
BRANCH  21  23
HETATM   23  C   UNK N   1       5.356   1.347   0.986  0.00  0.00     0.077 C 
HETATM   24  C   UNK N   1       6.316   2.404   0.475  0.00  0.00     0.020 C 
HETATM   25  C   UNK N   1       5.835  -0.019   0.525  0.00  0.00     0.020 C 
ENDBRANCH  21  23
ENDBRANCH  20  21
ENDBRANCH  18  20
ENDBRANCH  17  18
ENDBRANCH   2  17
TORSDOF 10
