REMARK  7 active torsions:
REMARK  status: ('A' for Active; 'I' for Inactive)
REMARK    1  A    between atoms: C_14  and  O_21 
REMARK    2  A    between atoms: C_17  and  O_23 
REMARK    3  A    between atoms: C_17  and  C_26 
REMARK    4  A    between atoms: C_31  and  O_23 
REMARK    5  A    between atoms: C_26  and  S_28 
REMARK    6  A    between atoms: S_28  and  C_29 
REMARK    7  A    between atoms: C_31  and  C_32 
ROOT
HETATM    1  C   UNK N   1       9.939 -17.349   1.439  0.00  0.00     0.052 C 
HETATM    2  C   UNK N   1       9.675 -18.760   1.044  0.00  0.00     0.172 C 
HETATM    3  C   UNK N   1      10.808 -19.530   0.499  0.00  0.00     0.061 C 
HETATM    4  C   UNK N   1      11.845 -18.850  -0.026  0.00  0.00    -0.027 C 
HETATM    5  C   UNK N   1      11.741 -17.337  -0.264  0.00  0.00     0.039 C 
HETATM    6  C   UNK N   1      11.022 -16.719   0.928  0.00  0.00    -0.006 C 
HETATM    7  C   UNK N   1      13.171 -19.516  -0.221  0.00  0.00     0.201 C 
HETATM    8  C   UNK N   1      14.156 -18.777   0.688  0.00  0.00     0.050 C 
HETATM    9  C   UNK N   1      14.146 -17.233   0.496  0.00  0.00     0.037 C 
HETATM   10  C   UNK N   1      13.174 -16.753  -0.589  0.00  0.00     0.147 C 
HETATM   11  C   UNK N   1      15.604 -16.761   0.302  0.00  0.00     0.005 C 
HETATM   12  C   UNK N   1      15.933 -15.437  -0.493  0.00  0.00     0.003 C 
HETATM   13  C   UNK N   1      14.676 -14.797  -1.159  0.00  0.00     0.048 C 
HETATM   14  C   UNK N   1      13.295 -15.212  -0.605  0.00  0.00     0.160 C 
HETATM   15  C   UNK N   1      16.124 -16.554   1.716  0.00  0.00     0.013 C 
HETATM   16  C   UNK N   1      17.187 -15.515   1.635  0.00  0.00     0.027 C 
HETATM   17  C   UNK N   1      16.744 -14.519   0.534  0.00  0.00     0.152 C 
HETATM   18  O   UNK N   1       8.632 -19.315   1.346  0.00  0.00    -0.289 OA
HETATM   19  C   UNK N   1      10.823 -17.115  -1.466  0.00  0.00     0.028 C 
HETATM   20  F   UNK N   1      13.579 -17.247  -1.825  0.00  0.00    -0.238 F 
HETATM   21  C   UNK N   1      16.800 -15.849  -1.680  0.00  0.00     0.019 C 
HETATM   22  C   UNK N   1      18.461 -16.278   1.277  0.00  0.00     0.014 C 
HETATM   23  F   UNK N   1      13.149 -20.861   0.107  0.00  0.00    -0.245 F 
ENDROOT
BRANCH  17  24
HETATM   24  O   UNK N   1      17.937 -13.876   0.193  0.00  0.00    -0.294 OA
BRANCH  24  25
HETATM   25  C   UNK N   1      18.691 -13.810  -0.932  0.00  0.00     0.318 C 
HETATM   26  O   UNK N   1      18.203 -13.509  -2.005  0.00  0.00    -0.257 OA
BRANCH  25  27
HETATM   27  C   UNK N   1      20.135 -14.092  -0.800  0.00  0.00     0.149 A 
HETATM   28  C   UNK N   1      20.768 -14.434   0.375  0.00  0.00     0.045 A 
HETATM   29  C   UNK N   1      22.086 -14.664   0.035  0.00  0.00     0.027 A 
HETATM   30  C   UNK N   1      22.175 -14.446  -1.329  0.00  0.00     0.143 A 
HETATM   31  O   UNK N   1      20.991 -14.108  -1.791  0.00  0.00    -0.317 OA
ENDBRANCH  25  27
ENDBRANCH  24  25
ENDBRANCH  17  24
BRANCH  17  32
HETATM   32  C   UNK N   1      15.837 -13.395   1.006  0.00  0.00     0.224 C 
HETATM   33  O   UNK N   1      15.631 -12.466   0.236  0.00  0.00    -0.282 OA
BRANCH  32  34
HETATM   34  S   UNK N   1      15.099 -13.323   2.641  0.00  0.00    -0.058 SA
BRANCH  34  35
HETATM   35  C   UNK N   1      13.451 -12.907   1.972  0.00  0.00     0.304 C 
HETATM   36  F   UNK N   1      13.424 -11.590   1.539  0.00  0.00    -0.244 F 
ENDBRANCH  34  35
ENDBRANCH  32  34
ENDBRANCH  17  32
BRANCH  14  37
HETATM   37  O   UNK N   1      12.298 -14.625  -1.384  0.00  0.00    -0.392 OA
HETATM   38  H   UNK N   1      12.305 -13.820  -1.926  0.00  0.00     0.210 HD
ENDBRANCH  14  37
TORSDOF 7
