REMARK  3 active torsions:
REMARK  status: ('A' for Active; 'I' for Inactive)
REMARK    1  A    between atoms: C_7  and  C_1 
REMARK    2  A    between atoms: C_11  and  N_2 
REMARK    3  A    between atoms: C_10  and  C_4 
ROOT
HETATM    1  C   UNK N   1       2.232  -2.045   0.094  0.00  0.00     0.000 A 
HETATM    2  N   UNK N   1       4.207   0.860  -0.569  0.00  0.00    -0.191 NA
HETATM    3  C   UNK N   1       3.915  -0.233  -0.322  0.00  0.00     0.100 C 
HETATM    4  C   UNK N   1       3.574  -1.597  -0.016  0.00  0.00     0.055 A 
HETATM    5  C   UNK N   1       1.996  -3.427   0.242  0.00  0.00     0.014 A 
HETATM    6  C   UNK N   1       4.621  -2.526   0.061  0.00  0.00     0.023 A 
HETATM    7  C   UNK N   1       3.038  -4.336   0.322  0.00  0.00     0.001 A 
HETATM    8  C   UNK N   1       4.353  -3.886   0.243  0.00  0.00     0.002 A 
ENDROOT
BRANCH   1   9
HETATM    9  C   UNK N   1       1.032  -1.169  -0.013  0.00  0.00     0.045 C 
HETATM   10  C   UNK N   1       0.945   0.194   0.341  0.00  0.00     0.263 C 
HETATM   11  N   UNK N   1      -0.219   0.906   0.082  0.00  0.00    -0.288 N 
HETATM   12  O   UNK N   1       1.876   0.745   0.898  0.00  0.00    -0.267 OA
HETATM   13  C   UNK N   1      -1.351   0.251  -0.317  0.00  0.00     0.114 C 
HETATM   14  C   UNK N   1      -1.312  -1.121  -0.559  0.00  0.00     0.008 C 
HETATM   15  C   UNK N   1      -0.112  -1.781  -0.458  0.00  0.00     0.033 C 
BRANCH  11  16
HETATM   16  C   UNK N   1      -0.208   2.350   0.060  0.00  0.00     0.042 A 
HETATM   17  C   UNK N   1       0.999   3.007  -0.244  0.00  0.00     0.030 A 
HETATM   18  C   UNK N   1       1.015   4.346  -0.613  0.00  0.00     0.002 A 
HETATM   19  C   UNK N   1      -0.181   5.058  -0.675  0.00  0.00     0.000 A 
HETATM   20  C   UNK N   1      -1.387   4.437  -0.336  0.00  0.00     0.002 A 
HETATM   21  C   UNK N   1      -1.406   3.082   0.005  0.00  0.00     0.030 A 
ENDBRANCH  11  16
BRANCH  14  22
HETATM   22  C   UNK N   1      -2.506  -1.958  -0.517  0.00  0.00     0.043 A 
HETATM   23  N   UNK N   1      -3.712  -1.403  -0.229  0.00  0.00    -0.365 N 
HETATM   24  C   UNK N   1      -4.749  -2.172   0.198  0.00  0.00     0.088 A 
ATOM     25  HN  UNK N   1      -3.841  -0.397  -0.335  1.00  0.00     0.165 HD
HETATM   26  C   UNK N   1      -4.580  -3.548   0.385  0.00  0.00     0.017 A 
HETATM   27  C   UNK N   1      -3.366  -4.142   0.063  0.00  0.00     0.004 A 
HETATM   28  C   UNK N   1      -2.328  -3.349  -0.388  0.00  0.00     0.030 A 
ENDBRANCH  14  22
ENDBRANCH   1   9
TORSDOF 3
