REMARK  11 active torsions:
REMARK  status: ('A' for Active; 'I' for Inactive)
REMARK    1  A    between atoms: C_1  and  C_2 
REMARK    2  A    between atoms: C_2  and  N_3 
REMARK    3  A    between atoms: N_3  and  S_4 
REMARK    4  A    between atoms: S_4  and  N_6 
REMARK    5  A    between atoms: N_6  and  C_9 
REMARK    6  A    between atoms: C_15  and  O_17 
REMARK    7  A    between atoms: C_16  and  C_32 
REMARK    8  A    between atoms: O_17  and  C_18 
REMARK    9  A    between atoms: C_18  and  C_19 
REMARK   10  A    between atoms: C_19  and  O_20 
REMARK   11  A    between atoms: O_20  and  C_23 
ROOT
HETATM    1  C   UNK N   1      -1.826   1.172  -0.165  0.00  0.00     0.132 A 
HETATM    2  N   UNK N   1      -2.942   0.408  -0.307  0.00  0.00    -0.337 N 
ATOM      3  HN  UNK N   1      -3.839   0.861  -0.480  1.00  0.00     0.168 HD
HETATM    4  C   UNK N   1      -2.886  -0.945  -0.223  0.00  0.00     0.184 A 
HETATM    5  N   UNK N   1      -1.701  -1.566  -0.007  0.00  0.00    -0.332 N 
ATOM      6  HN  UNK N   1      -1.671  -2.585   0.035  1.00  0.00     0.168 HD
HETATM    7  C   UNK N   1      -0.550  -0.857   0.156  0.00  0.00     0.158 A 
HETATM    8  C   UNK N   1      -0.572   0.557   0.089  0.00  0.00     0.070 A 
ENDROOT
BRANCH   7   9
HETATM    9  O   UNK N   1       0.616  -1.505   0.355  0.00  0.00    -0.333 OA
BRANCH   9  10
HETATM   10  C   UNK N   1       0.878  -2.744  -0.174  0.00  0.00     0.204 C 
BRANCH  10  11
HETATM   11  C   UNK N   1       1.503  -2.554  -1.558  0.00  0.00     0.205 C 
BRANCH  11  12
HETATM   12  O   UNK N   1       2.538  -1.636  -1.520  0.00  0.00    -0.320 OA
BRANCH  12  13
HETATM   13  C   UNK N   1       3.729  -1.890  -0.937  0.00  0.00     0.223 A 
HETATM   14  N   UNK N   1       4.687  -0.920  -0.900  0.00  0.00    -0.331 N 
HETATM   15  C   UNK N   1       5.892  -1.149  -0.321  0.00  0.00     0.112 A 
ATOM     16  HN  UNK N   1       4.494  -0.008  -1.314  1.00  0.00     0.168 HD
HETATM   17  C   UNK N   1       6.164  -2.394   0.245  0.00  0.00     0.042 A 
HETATM   18  C   UNK N   1       5.179  -3.376   0.202  0.00  0.00     0.112 A 
HETATM   19 Br   UNK N   1       7.848  -2.755   1.057  0.00  0.00    -0.048 Br
HETATM   20  N   UNK N   1       3.987  -3.110  -0.383  0.00  0.00    -0.331 N 
ATOM     21  HN  UNK N   1       3.269  -3.835  -0.411  1.00  0.00     0.168 HD
ENDBRANCH  12  13
ENDBRANCH  11  12
ENDBRANCH  10  11
ENDBRANCH   9  10
ENDBRANCH   7   9
BRANCH   8  22
HETATM   22  C   UNK N   1       0.696   1.379   0.241  0.00  0.00    -0.018 A 
HETATM   23  C   UNK N   1       0.657   2.784   0.213  0.00  0.00     0.014 A 
HETATM   24  C   UNK N   1       1.812   3.552   0.323  0.00  0.00     0.020 A 
HETATM   25  C   UNK N   1       3.046   2.928   0.463  0.00  0.00     0.011 A 
HETATM   26  C   UNK N   1       3.119   1.535   0.506  0.00  0.00     0.020 A 
HETATM   27 Br   UNK N   1       4.625   3.981   0.586  0.00  0.00    -0.051 Br
HETATM   28  C   UNK N   1       1.954   0.770   0.398  0.00  0.00     0.014 A 
ENDBRANCH   8  22
BRANCH   1  29
HETATM   29  N   UNK N   1      -1.903   2.581  -0.298  0.00  0.00    -0.252 N 
HETATM   30  H   UNK N   1      -1.048   3.067  -0.315  0.00  0.00     0.182 HD
BRANCH  29  31
HETATM   31  S   UNK N   1      -3.352   3.547  -0.434  0.00  0.00     0.320 S 
HETATM   32  O   UNK N   1      -3.766   3.711  -1.905  0.00  0.00    -0.182 OA
HETATM   33  O   UNK N   1      -2.970   4.961   0.031  0.00  0.00    -0.182 OA
BRANCH  31  34
HETATM   34  N   UNK N   1      -4.683   2.993   0.581  0.00  0.00    -0.303 N 
HETATM   35  H   UNK N   1      -4.867   3.281   1.542  0.00  0.00     0.173 HD
BRANCH  34  36
HETATM   36  C   UNK N   1      -5.472   2.053  -0.195  0.00  0.00     0.133 C 
BRANCH  36  37
HETATM   37  C   UNK N   1      -6.212   1.118   0.739  0.00  0.00     0.016 C 
HETATM   38  C   UNK N   1      -7.307   1.869   1.470  0.00  0.00     0.006 C 
ENDBRANCH  36  37
ENDBRANCH  34  36
ENDBRANCH  31  34
ENDBRANCH  29  31
ENDBRANCH   1  29
TORSDOF 11
