REMARK  10 active torsions:
REMARK  status: ('A' for Active; 'I' for Inactive)
REMARK    1  A    between atoms: C_3  and  N_4 
REMARK    2  A    between atoms: N_4  and  C_5 
REMARK    3  A    between atoms: C_6  and  C_7 
REMARK    4  A    between atoms: C_7  and  O_8 
REMARK    5  A    between atoms: O_8  and  C_9 
REMARK    6  A    between atoms: C_9  and  C_10 
REMARK    7  A    between atoms: C_10  and  C_11 
REMARK    8  A    between atoms: C_10  and  O_13 
REMARK    9  A    between atoms: C_11  and  O_12 
REMARK   10  A    between atoms: C_26  and  C_27 
ROOT
HETATM    1  N   UNK N   1       0.218   0.281  -0.926  0.00  0.00    -0.355 N 
HETATM    2  H   UNK N   1       0.988   0.666  -1.403  0.00  0.00     0.166 HD
ENDROOT
BRANCH   1   3
HETATM    3  C   UNK N   1      -0.913   1.140  -0.729  0.00  0.00     0.046 A 
HETATM    4  C   UNK N   1      -2.180   0.731  -0.212  0.00  0.00     0.018 A 
HETATM    5  C   UNK N   1      -3.230   1.686  -0.108  0.00  0.00     0.059 A 
HETATM    6  C   UNK N   1      -2.440  -0.589   0.176  0.00  0.00     0.016 A 
HETATM    7  N   UNK N   1      -2.989   2.982  -0.457  0.00  0.00    -0.364 N 
HETATM    8  C   UNK N   1      -4.521   1.287   0.329  0.00  0.00     0.075 A 
HETATM    9  C   UNK N   1      -1.781   3.394  -0.909  0.00  0.00     0.090 A 
ATOM     10  HN  UNK N   1      -3.744   3.663  -0.376  1.00  0.00     0.165 HD
HETATM   11  C   UNK N   1      -0.741   2.485  -1.065  0.00  0.00     0.047 A 
HETATM   12  C   UNK N   1      -4.730  -0.049   0.696  0.00  0.00     0.018 A 
HETATM   13  C   UNK N   1      -3.695  -0.976   0.634  0.00  0.00     0.002 A 
BRANCH   8  14
HETATM   14  C   UNK N   1      -5.717   2.214   0.384  0.00  0.00     0.419 C 
HETATM   15  F   UNK N   1      -6.219   2.252   1.672  0.00  0.00    -0.166 F 
HETATM   16  F   UNK N   1      -5.429   3.509  -0.008  0.00  0.00    -0.166 F 
HETATM   17  F   UNK N   1      -6.696   1.722  -0.460  0.00  0.00    -0.166 F 
ENDBRANCH   8  14
ENDBRANCH   1   3
BRANCH   1  18
HETATM   18  C   UNK N   1       0.340  -1.068  -0.501  0.00  0.00     0.049 A 
HETATM   19  C   UNK N   1       1.165  -1.365   0.596  0.00  0.00     0.066 A 
HETATM   20  C   UNK N   1       1.201  -2.666   1.109  0.00  0.00     0.020 A 
HETATM   21  C   UNK N   1       0.457  -3.680   0.499  0.00  0.00     0.001 A 
HETATM   22  C   UNK N   1      -0.325  -3.397  -0.625  0.00  0.00     0.002 A 
HETATM   23  C   UNK N   1      -0.393  -2.092  -1.121  0.00  0.00     0.030 A 
BRANCH  19  24
HETATM   24  C   UNK N   1       1.982  -0.300   1.215  0.00  0.00     0.295 C 
HETATM   25  O   UNK N   1       1.765   0.035   2.367  0.00  0.00    -0.259 OA
BRANCH  24  26
HETATM   26  O   UNK N   1       2.989   0.296   0.526  0.00  0.00    -0.315 OA
BRANCH  26  27
HETATM   27  C   UNK N   1       3.689  -0.367  -0.465  0.00  0.00     0.212 C 
BRANCH  27  28
HETATM   28  C   UNK N   1       4.676  -1.343   0.181  0.00  0.00     0.166 C 
BRANCH  28  29
HETATM   29  C   UNK N   1       5.784  -0.607   0.927  0.00  0.00     0.198 C 
BRANCH  29  30
HETATM   30  O   UNK N   1       6.582   0.115   0.037  0.00  0.00    -0.398 OA
HETATM   31  H   UNK N   1       7.294  -0.115  -0.581  0.00  0.00     0.209 HD
ENDBRANCH  29  30
ENDBRANCH  28  29
BRANCH  28  32
HETATM   32  O   UNK N   1       5.228  -2.197  -0.775  0.00  0.00    -0.391 OA
HETATM   33  H   UNK N   1       4.905  -2.825  -1.440  0.00  0.00     0.210 HD
ENDBRANCH  28  32
ENDBRANCH  27  28
ENDBRANCH  26  27
ENDBRANCH  24  26
ENDBRANCH  19  24
ENDBRANCH   1  18
TORSDOF 10
