REMARK  3 active torsions:
REMARK  status: ('A' for Active; 'I' for Inactive)
REMARK    1  A    between atoms: C_21  and  C_23 
REMARK    2  A    between atoms: C_23  and  C_25 
REMARK    3  A    between atoms: C_25  and  O_26 
ROOT
HETATM    1  C   UNK N   1      -5.200  -2.821  -0.423  0.00  0.00     0.078 C 
HETATM    2  C   UNK N   1      -4.401  -1.529  -0.374  0.00  0.00     0.159 C 
HETATM    3  O   UNK N   1      -4.447  -0.994   0.947  0.00  0.00    -0.347 OA
HETATM    4  C   UNK N   1      -3.113  -0.729   1.281  0.00  0.00     0.168 C 
HETATM    5  C   UNK N   1      -2.198   0.543   1.267  0.00  0.00     0.041 C 
HETATM    6  C   UNK N   1      -1.186   0.276   0.131  0.00  0.00     0.006 C 
HETATM    7  C   UNK N   1       0.031   1.212  -0.172  0.00  0.00     0.020 C 
HETATM    8  C   UNK N   1      -0.028   2.551   0.591  0.00  0.00     0.049 C 
HETATM    9  C   UNK N   1       1.046   3.538   0.113  0.00  0.00     0.201 C 
HETATM   10  C   UNK N   1       2.388   2.857   0.080  0.00  0.00    -0.029 A 
HETATM   11  C   UNK N   1       3.403   3.399   0.769  0.00  0.00     0.061 A 
HETATM   12  C   UNK N   1       4.722   2.751   0.800  0.00  0.00     0.172 A 
HETATM   13  O   UNK N   1       5.642   3.264   1.413  0.00  0.00    -0.289 OA
HETATM   14  C   UNK N   1       4.925   1.483   0.089  0.00  0.00     0.052 A 
HETATM   15  C   UNK N   1       3.920   0.919  -0.592  0.00  0.00    -0.007 A 
HETATM   16  C   UNK N   1       2.525   1.528  -0.682  0.00  0.00     0.023 A 
HETATM   17  C   UNK N   1       1.443   0.533  -0.092  0.00  0.00     0.072 C 
HETATM   18  C   UNK N   1       1.396  -0.909  -0.766  0.00  0.00     0.108 C 
HETATM   19  C   UNK N   1       0.038  -1.684  -0.742  0.00  0.00     0.035 C 
HETATM   20  C   UNK N   1      -0.900  -1.199   0.355  0.00  0.00     0.003 C 
HETATM   21  C   UNK N   1      -2.347  -1.773   0.447  0.00  0.00     0.160 C 
HETATM   22  O   UNK N   1      -3.055  -1.775  -0.761  0.00  0.00    -0.334 OA
HETATM   23  C   UNK N   1      -0.239  -1.496   1.713  0.00  0.00     0.019 C 
HETATM   24 Cl   UNK N   1       2.103  -1.124  -2.393  0.00  0.00    -0.123 Cl
HETATM   25 Cl   UNK N   1       1.922   0.318   1.643  0.00  0.00    -0.116 Cl
HETATM   26  F   UNK N   1       0.717   4.024  -1.140  0.00  0.00    -0.245 F 
HETATM   27  C   UNK N   1      -5.023  -0.534  -1.335  0.00  0.00     0.078 C 
HETATM   28  C   UNK N   1       2.292   1.844  -2.159  0.00  0.00     0.027 C 
ENDROOT
BRANCH  21  29
HETATM   29  C   UNK N   1      -2.377  -3.193   1.019  0.00  0.00     0.188 C 
HETATM   30  O   UNK N   1      -2.916  -3.413   2.093  0.00  0.00    -0.292 OA
BRANCH  29  31
HETATM   31  C   UNK N   1      -1.739  -4.329   0.281  0.00  0.00     0.245 C 
BRANCH  31  32
HETATM   32  O   UNK N   1      -2.397  -4.548  -0.930  0.00  0.00    -0.393 OA
HETATM   33  H   UNK N   1      -2.758  -4.228  -1.771  0.00  0.00     0.209 HD
ENDBRANCH  31  32
ENDBRANCH  29  31
ENDBRANCH  21  29
TORSDOF 3
