REMARK  19 active torsions:
REMARK  status: ('A' for Active; 'I' for Inactive)
REMARK    1  A    between atoms: C_2  and  C_1 
REMARK    2  A    between atoms: C_3  and  C_1 
REMARK    3  A    between atoms: C_4  and  C_2 
REMARK    4  A    between atoms: C_10  and  C_3 
REMARK    5  A    between atoms: C_11  and  C_4 
REMARK    6  A    between atoms: N_27  and  C_10 
REMARK    7  A    between atoms: O_31  and  C_11 
REMARK    8  A    between atoms: C_13  and  C_12 
REMARK    9  A    between atoms: O_31  and  C_12 
REMARK   10  A    between atoms: O_32  and  C_13 
REMARK   11  A    between atoms: C_24  and  C_15 
REMARK   12  A    between atoms: N_27  and  C_15 
REMARK   13  A    between atoms: C_19  and  C_16 
REMARK   14  A    between atoms: O_28  and  C_16 
REMARK   15  A    between atoms: C_20  and  C_17 
REMARK   16  A    between atoms: O_32  and  C_17 
REMARK   17  A    between atoms: C_24  and  C_18 
REMARK   18  A    between atoms: O_29  and  C_23 
REMARK   19  A    between atoms: C_24  and  O_30 
ROOT
HETATM    1  C   UNK N   1      -3.104   0.729   0.381  0.00  0.00     0.019 C 
ENDROOT
BRANCH   1   2
HETATM    2  C   UNK N   1      -3.708  -0.528  -0.214  0.00  0.00     0.002 C 
BRANCH   2   3
HETATM    3  C   UNK N   1      -4.986  -0.187  -0.953  0.00  0.00     0.002 C 
BRANCH   3   4
HETATM    4  C   UNK N   1      -6.124  -0.076   0.038  0.00  0.00     0.026 C 
BRANCH   4   5
HETATM    5  C   UNK N   1      -6.856   1.233  -0.184  0.00  0.00     0.167 C 
BRANCH   5   6
HETATM    6  O   UNK N   1      -8.086   1.207   0.475  0.00  0.00    -0.389 OA
BRANCH   6   7
HETATM    7  C   UNK N   1      -8.988   0.786  -0.502  0.00  0.00     0.193 C 
BRANCH   7   8
HETATM    8  C   UNK N   1      -9.827  -0.366   0.022  0.00  0.00     0.194 C 
BRANCH   8   9
HETATM    9  O   UNK N   1     -10.997   0.120   0.613  0.00  0.00    -0.384 OA
BRANCH   9  10
HETATM   10  C   UNK N   1     -11.947   0.077  -0.412  0.00  0.00     0.209 C 
BRANCH  10  11
HETATM   11  C   UNK N   1     -13.057   1.054  -0.163  0.00  0.00     0.009 A 
HETATM   12  C   UNK N   1     -14.375   0.581  -0.016  0.00  0.00     0.044 A 
HETATM   13  C   UNK N   1     -15.422   1.481   0.201  0.00  0.00     0.024 A 
HETATM   14 Cl   UNK N   1     -14.746  -1.136  -0.104  0.00  0.00    -0.084 Cl
HETATM   15  C   UNK N   1     -15.170   2.851   0.271  0.00  0.00     0.003 A 
HETATM   16  C   UNK N   1     -13.868   3.329   0.124  0.00  0.00     0.024 A 
HETATM   17  C   UNK N   1     -12.810   2.444  -0.093  0.00  0.00     0.044 A 
HETATM   18 Cl   UNK N   1     -11.199   3.118  -0.283  0.00  0.00    -0.084 Cl
ENDBRANCH  10  11
ENDBRANCH   9  10
ENDBRANCH   8   9
ENDBRANCH   7   8
ENDBRANCH   6   7
ENDBRANCH   5   6
ENDBRANCH   4   5
ENDBRANCH   3   4
ENDBRANCH   2   3
ENDBRANCH   1   2
BRANCH   1  19
HETATM   19  C   UNK N   1      -2.289   1.460  -0.678  0.00  0.00     0.113 C 
BRANCH  19  20
HETATM   20  N   UNK N   1      -1.572   2.584  -0.093  0.00  0.00    -0.418 N 
HETATM   21  H   UNK N   1      -1.751   3.573  -0.266  0.00  0.00     0.153 HD
BRANCH  20  22
HETATM   22  C   UNK N   1      -0.549   2.031   0.786  0.00  0.00     0.150 C 
BRANCH  22  23
HETATM   23  C   UNK N   1       0.872   2.478   0.429  0.00  0.00     0.168 C 
BRANCH  23  24
HETATM   24  C   UNK N   1       1.801   1.310   0.214  0.00  0.00    -0.027 A 
HETATM   25  C   UNK N   1       1.332  -0.014   0.165  0.00  0.00     0.012 A 
HETATM   26  C   UNK N   1       2.225  -1.073  -0.014  0.00  0.00     0.038 A 
HETATM   27  C   UNK N   1       3.595  -0.825  -0.129  0.00  0.00     0.074 A 
HETATM   28  C   UNK N   1       4.078   0.494  -0.076  0.00  0.00    -0.001 A 
HETATM   29  C   UNK N   1       3.173   1.552   0.088  0.00  0.00     0.022 A 
BRANCH  27  30
HETATM   30  O   UNK N   1       4.444  -1.857  -0.284  0.00  0.00    -0.360 OA
HETATM   31  H   UNK N   1       4.116  -2.728  -0.392  0.00  0.00     0.217 HD
ENDBRANCH  27  30
BRANCH  28  32
HETATM   32  C   UNK N   1       5.552   0.760  -0.176  0.00  0.00     0.205 C 
BRANCH  32  33
HETATM   33  O   UNK N   1       5.843   2.119  -0.035  0.00  0.00    -0.396 OA
HETATM   34  H   UNK N   1       6.762   2.416   0.063  0.00  0.00     0.209 HD
ENDBRANCH  32  33
ENDBRANCH  28  32
ENDBRANCH  23  24
BRANCH  23  35
HETATM   35  O   UNK N   1       0.889   3.306  -0.699  0.00  0.00    -0.389 OA
HETATM   36  H   UNK N   1       1.393   3.582  -1.481  0.00  0.00     0.210 HD
ENDBRANCH  23  35
ENDBRANCH  22  23
ENDBRANCH  20  22
ENDBRANCH  19  20
ENDBRANCH   1  19
TORSDOF 19
