REMARK  9 active torsions:
REMARK  status: ('A' for Active; 'I' for Inactive)
REMARK    1  A    between atoms: C_21  and  C_13 
REMARK    2  A    between atoms: C_19  and  C_18 
REMARK    3  A    between atoms: C_24  and  C_20 
REMARK    4  A    between atoms: N_31  and  C_22 
REMARK    5  A    between atoms: C_25  and  C_24 
REMARK    6  A    between atoms: C_27  and  C_25 
REMARK    7  A    between atoms: C_27  and  C_26 
REMARK    8  A    between atoms: O_38  and  C_28 
REMARK    9  A    between atoms: O_37  and  C_29 
ROOT
HETATM    1  C   UNK N   1       5.642  -1.777   0.000  0.00  0.00     0.034 A 
HETATM    2  C   UNK N   1      -0.398   2.975   0.000  0.00  0.00     0.040 A 
HETATM    3  C   UNK N   1       4.928  -1.365   0.000  0.00  0.00     0.175 A 
HETATM    4  C   UNK N   1      -0.073   8.123   0.000  0.00  0.00     0.004 A 
HETATM    5  C   UNK N   1      -0.073   7.298   0.000  0.00  0.00     0.012 A 
HETATM    6  C   UNK N   1       0.641   8.535   0.000  0.00  0.00     0.042 A 
HETATM    7  C   UNK N   1      -0.073   5.648   0.000  0.00  0.00     0.016 A 
HETATM    8  C   UNK N   1      -0.073   4.823   0.000  0.00  0.00     0.030 A 
HETATM    9  C   UNK N   1       0.641   3.585   0.000  0.00  0.00     0.026 A 
HETATM   10  C   UNK N   1       3.499   1.935   0.000  0.00  0.00     0.026 A 
HETATM   11  C   UNK N   1       2.784   2.348   0.000  0.00  0.00     0.007 A 
HETATM   12  C   UNK N   1       1.356   3.173   0.000  0.00  0.00    -0.019 A 
HETATM   13  C   UNK N   1       1.356   7.298   0.000  0.00  0.00     0.054 A 
HETATM   14  C   UNK N   1       2.784   0.698   0.000  0.00  0.00     0.030 A 
HETATM   15  C   UNK N   1       1.356   0.698   0.000  0.00  0.00     0.020 A 
HETATM   16  C   UNK N   1       1.356   5.648   0.000  0.00  0.00     0.100 A 
HETATM   17  C   UNK N   1      -0.143   2.190   0.000  0.00  0.00     0.133 A 
HETATM   18  C   UNK N   1       0.641   6.885   0.000  0.00  0.00    -0.022 A 
HETATM   19  C   UNK N   1       0.641   6.060   0.000  0.00  0.00    -0.010 A 
HETATM   20  C   UNK N   1       2.070   1.110   0.000  0.00  0.00    -0.007 A 
HETATM   21  C   UNK N   1       1.356   8.123   0.000  0.00  0.00     0.117 A 
HETATM   22  C   UNK N   1       0.641   4.410   0.000  0.00  0.00     0.031 A 
HETATM   23  C   UNK N   1       3.499   1.110   0.000  0.00  0.00     0.085 A 
HETATM   24  C   UNK N   1       2.070   1.935   0.000  0.00  0.00    -0.002 A 
HETATM   25  C   UNK N   1       1.356   2.348   0.000  0.00  0.00     0.020 A 
HETATM   26  C   UNK N   1       0.641   1.110   0.000  0.00  0.00     0.093 A 
HETATM   27  C   UNK N   1       0.641   1.935   0.000  0.00  0.00     0.036 A 
HETATM   28  C   UNK N   1      -0.143   0.856   0.000  0.00  0.00     0.263 A 
HETATM   29  C   UNK N   1       4.213  -0.127   0.000  0.00  0.00     0.258 A 
HETATM   30  F   UNK N   1       2.070   8.535   0.000  0.00  0.00    -0.206 F 
HETATM   31  N   UNK N   1       1.356   4.823   0.000  0.00  0.00    -0.365 N 
ATOM     32  HN  UNK N   1       2.239   4.313   0.000  1.00  0.00     0.165 HD
HETATM   33  N   UNK N   1       4.213   0.698   0.000  0.00  0.00    -0.346 N 
ATOM     34  HN  UNK N   1       5.097   1.208   0.000  1.00  0.00     0.164 HD
HETATM   35  O   UNK N   1      -0.398   0.071   0.000  0.00  0.00    -0.265 OA
HETATM   36  O   UNK N   1       3.499  -0.540   0.000  0.00  0.00    -0.327 OA
HETATM   37  O   UNK N   1       4.928  -0.540   0.000  0.00  0.00    -0.317 OA
HETATM   38  O   UNK N   1      -0.628   1.523   0.000  0.00  0.00    -0.316 OA
HETATM   39  H   UNK N   1       2.688  -0.071   0.000  0.00  0.00     0.221 HD
ENDROOT
TORSDOF 9
