REMARK  2 active torsions:
REMARK  status: ('A' for Active; 'I' for Inactive)
REMARK    1  A    between atoms: C_15  and  C_20 
REMARK    2  A    between atoms: C_15  and  O_23 
ROOT
HETATM    1  C   UNK N   1       3.107   2.602  -0.655  0.00  0.00     0.162 C 
HETATM    2  C   UNK N   1       4.000   3.388   0.178  0.00  0.00     0.062 C 
HETATM    3  N   UNK N   1       4.700   4.004   0.838  0.00  0.00    -0.197 NA
ENDROOT
BRANCH   1   4
HETATM    4  C   UNK N   1       3.031   1.047  -0.500  0.00  0.00     0.077 C 
HETATM    5  C   UNK N   1       1.590   0.700  -0.163  0.00  0.00    -0.007 C 
HETATM    6  C   UNK N   1       0.581   1.052  -1.242  0.00  0.00     0.017 C 
HETATM    7  C   UNK N   1       1.180   1.376   1.171  0.00  0.00     0.019 C 
HETATM    8  C   UNK N   1       1.671  -0.819  -0.017  0.00  0.00     0.005 C 
HETATM    9  C   UNK N   1      -0.808   0.719  -0.729  0.00  0.00     0.036 C 
HETATM   10  C   UNK N   1      -0.909  -0.720  -0.292  0.00  0.00    -0.069 C 
HETATM   11  C   UNK N   1       0.293  -1.432   0.393  0.00  0.00     0.020 C 
HETATM   12  C   UNK N   1      -2.122  -1.300  -0.307  0.00  0.00    -0.049 C 
HETATM   13  C   UNK N   1       0.287  -2.969   0.243  0.00  0.00     0.014 C 
HETATM   14  C   UNK N   1      -1.042  -3.607  -0.177  0.00  0.00     0.040 C 
HETATM   15  C   UNK N   1      -2.240  -2.727   0.015  0.00  0.00    -0.048 C 
HETATM   16  C   UNK N   1      -3.426  -3.258   0.332  0.00  0.00     0.057 C 
HETATM   17  C   UNK N   1      -4.629  -2.410   0.484  0.00  0.00     0.150 C 
HETATM   18  O   UNK N   1      -5.653  -2.903   0.924  0.00  0.00    -0.293 OA
HETATM   19  C   UNK N   1      -4.573  -0.928   0.181  0.00  0.00     0.087 C 
HETATM   20  C   UNK N   1      -3.381  -0.549  -0.691  0.00  0.00     0.047 C 
HETATM   21  C   UNK N   1       2.898  -0.962   0.904  0.00  0.00     0.009 C 
HETATM   22  C   UNK N   1       3.780   0.303   0.603  0.00  0.00     0.040 C 
BRANCH   4  23
HETATM   23  O   UNK N   1       3.407   0.503  -1.739  0.00  0.00    -0.388 OA
HETATM   24  H   UNK N   1       3.212   0.090  -2.595  0.00  0.00     0.210 HD
ENDBRANCH   4  23
ENDBRANCH   1   4
TORSDOF 2
