REMARK  3 active torsions:
REMARK  status: ('A' for Active; 'I' for Inactive)
REMARK    1  A    between atoms: P_8  and  C_1 
REMARK    2  A    between atoms: P_9  and  C_1 
REMARK    3  A    between atoms: Tc_12  and  Tc_12 
ROOT
HETATM    1  O   UNK N   1       4.950   0.200  -0.018  0.00  0.00    -0.411 OA
HETATM    2  H   UNK N   1       5.920   0.200  -0.018  0.00  0.00     0.205 HD
HETATM    3  H   UNK N   1       4.465   1.040  -0.018  0.00  0.00     0.205 HD
ENDROOT
TORSDOF 3
