REMARK  1 active torsions:
REMARK  status: ('A' for Active; 'I' for Inactive)
REMARK    1  A    between atoms: C_14  and  C_9 
ROOT
HETATM    1  C   UNK N   1       0.577  -4.218  -0.546  0.00  0.00     0.091 C 
HETATM    2  C   UNK N   1       4.758  -1.227   0.415  0.00  0.00     0.043 A 
HETATM    3  C   UNK N   1       0.730   0.482   0.997  0.00  0.00     0.198 C 
HETATM    4  C   UNK N   1       0.215  -2.811  -0.211  0.00  0.00     0.100 A 
HETATM    5  C   UNK N   1       3.398  -0.780   0.334  0.00  0.00     0.027 A 
HETATM    6  C   UNK N   1       4.902  -2.612   0.465  0.00  0.00     0.054 A 
HETATM    7  C   UNK N   1       0.284  -0.778   0.367  0.00  0.00     0.122 A 
HETATM    8  C   UNK N   1       3.044   0.696   0.162  0.00  0.00     0.053 C 
HETATM    9  C   UNK N   1       2.497  -1.877   0.318  0.00  0.00     0.097 A 
HETATM   10 Br   UNK N   1       6.542  -3.578   0.541  0.00  0.00    -0.043 Br
HETATM   11  N   UNK N   1       1.851   1.150   0.383  0.00  0.00    -0.381 N 
ATOM     12  HN  UNK N   1       1.682   2.110   0.083  1.00  0.00     0.160 HD
HETATM   13  N   UNK N   1      -1.050  -2.352  -0.236  0.00  0.00    -0.287 N 
ATOM     14  HN  UNK N   1      -1.883  -2.882  -0.492  1.00  0.00     0.188 HD
HETATM   15  N   UNK N   1      -1.008  -1.081   0.136  0.00  0.00    -0.286 N 
ATOM     16  HN  UNK N   1      -1.804  -0.450   0.230  1.00  0.00     0.188 HD
HETATM   17  N   UNK N   1       1.074  -1.833   0.155  0.00  0.00    -0.280 N 
HETATM   18  S   UNK N   1       3.397  -3.269   0.388  0.00  0.00    -0.063 SA
ENDROOT
BRANCH   8  19
HETATM   19  C   UNK N   1       4.108   1.721  -0.224  0.00  0.00     0.013 A 
HETATM   20  C   UNK N   1       5.437   1.304  -0.423  0.00  0.00     0.015 A 
HETATM   21  C   UNK N   1       6.458   2.201  -0.733  0.00  0.00     0.001 A 
HETATM   22  C   UNK N   1       6.176   3.555  -0.858  0.00  0.00     0.002 A 
HETATM   23  C   UNK N   1       4.873   4.008  -0.682  0.00  0.00     0.025 A 
HETATM   24  C   UNK N   1       3.835   3.121  -0.369  0.00  0.00     0.046 A 
HETATM   25 Cl   UNK N   1       2.244   3.852  -0.173  0.00  0.00    -0.083 Cl
ENDBRANCH   8  19
TORSDOF 1
