REMARK  7 active torsions:
REMARK  status: ('A' for Active; 'I' for Inactive)
REMARK    1  A    between atoms: C_6  and  C_9 
REMARK    2  A    between atoms: C_12  and  C_16 
REMARK    3  A    between atoms: C_19  and  N_23 
REMARK    4  A    between atoms: C_25  and  C_26 
REMARK    5  A    between atoms: C_26  and  O_27 
REMARK    6  A    between atoms: O_27  and  P_28 
REMARK    7  A    between atoms: P_28  and  O_31 
ROOT
HETATM    1  P   UNK N   1      -4.950 -15.625   0.123  0.00  0.00     0.390 P 
HETATM    2  O   UNK N   1      -5.047 -17.093  -0.369  0.00  0.00    -0.632 OA
HETATM    3  O   UNK N   1      -5.203 -15.637   1.839  0.00  0.00    -0.307 OA
HETATM    4  H   UNK N   1      -5.280 -15.518   2.799  0.00  0.00     0.222 HD
ENDROOT
BRANCH   1   5
HETATM    5  O   UNK N   1      -6.209 -14.716  -0.677  0.00  0.00    -0.294 OA
BRANCH   5   6
HETATM    6  C   UNK N   1      -5.650 -13.474  -0.988  0.00  0.00     0.214 C 
BRANCH   6   7
HETATM    7  C   UNK N   1      -5.573 -12.588   0.247  0.00  0.00     0.176 A 
HETATM    8  C   UNK N   1      -4.211 -11.853   0.207  0.00  0.00     0.169 A 
HETATM    9  N   UNK N   1      -4.604 -10.483   0.063  0.00  0.00    -0.291 N 
HETATM   10  C   UNK N   1      -5.938 -10.399   0.077  0.00  0.00     0.368 A 
HETATM   11  O   UNK N   1      -6.529 -11.587   0.180  0.00  0.00    -0.294 OA
HETATM   12  O   UNK N   1      -6.561  -9.352  -0.006  0.00  0.00    -0.238 OA
BRANCH   9  13
HETATM   13  C   UNK N   1      -3.672  -9.413  -0.083  0.00  0.00     0.042 A 
HETATM   14  C   UNK N   1      -2.297  -9.680  -0.054  0.00  0.00     0.031 A 
HETATM   15  C   UNK N   1      -1.372  -8.645  -0.174  0.00  0.00     0.017 A 
HETATM   16  C   UNK N   1      -1.798  -7.318  -0.334  0.00  0.00     0.014 A 
HETATM   17  C   UNK N   1      -3.187  -7.053  -0.393  0.00  0.00     0.129 A 
HETATM   18  C   UNK N   1      -4.104  -8.095  -0.265  0.00  0.00     0.073 A 
HETATM   19  F   UNK N   1      -3.666  -5.794  -0.549  0.00  0.00    -0.205 F 
BRANCH  16  20
HETATM   20  C   UNK N   1      -0.782  -6.232  -0.370  0.00  0.00    -0.007 A 
HETATM   21  C   UNK N   1       0.586  -6.532  -0.269  0.00  0.00     0.016 A 
HETATM   22  C   UNK N   1       1.525  -5.504  -0.178  0.00  0.00     0.034 A 
HETATM   23  C   UNK N   1       1.088  -4.176  -0.182  0.00  0.00     0.079 A 
HETATM   24  N   UNK N   1      -0.237  -3.900  -0.308  0.00  0.00    -0.362 N 
HETATM   25  C   UNK N   1      -1.165  -4.885  -0.403  0.00  0.00     0.100 A 
ATOM     26  HN  UNK N   1      -0.542  -2.926  -0.332  1.00  0.00     0.165 HD
BRANCH  23  27
HETATM   27  C   UNK N   1       2.036  -3.078   0.019  0.00  0.00     0.161 A 
HETATM   28  N   UNK N   1       3.365  -3.219   0.197  0.00  0.00    -0.265 N 
HETATM   29  N   UNK N   1       3.827  -1.994   0.402  0.00  0.00    -0.003 NA
ATOM     30  HN  UNK N   1       3.902  -4.086   0.178  1.00  0.00     0.186 HD
HETATM   31  N   UNK N   1       2.816  -1.146   0.353  0.00  0.00    -0.221 N 
HETATM   32  C   UNK N   1       2.927   0.287   0.551  0.00  0.00     0.197 C 
HETATM   33  N   UNK N   1       1.684  -1.783   0.118  0.00  0.00    -0.268 N 
ATOM     34  HN  UNK N   1       0.750  -1.382   0.031  1.00  0.00     0.190 HD
ENDBRANCH  23  27
ENDBRANCH  16  20
ENDBRANCH   9  13
ENDBRANCH   6   7
ENDBRANCH   5   6
ENDBRANCH   1   5
BRANCH   1  35
HETATM   35  O   UNK N   1      -3.352 -15.061  -0.271  0.00  0.00    -0.307 OA
HETATM   36  H   UNK N   1      -2.634 -15.676  -0.490  0.00  0.00     0.222 HD
ENDBRANCH   1  35
TORSDOF 7
