REMARK  0 active torsions:
REMARK  status: ('A' for Active; 'I' for Inactive)
ROOT
HETATM    1  C   UNK N   1       3.238  -1.062  -0.000  0.00  0.00     0.071 C 
HETATM    2  C   UNK N   1       0.634   3.196  -0.000  0.00  0.00     0.071 C 
HETATM    3  C   UNK N   1      -1.738  -1.184  -0.000  0.00  0.00     0.071 C 
HETATM    4  C   UNK N   1       1.911  -0.332   0.000  0.00  0.00     0.262 A 
HETATM    5  C   UNK N   1       0.678   1.683   0.000  0.00  0.00     0.262 A 
HETATM    6  C   UNK N   1      -0.448  -0.392   0.000  0.00  0.00     0.262 A 
HETATM    7  O   UNK N   1       1.937   1.068  -0.000  0.00  0.00    -0.332 OA
HETATM    8  O   UNK N   1       0.750  -1.115  -0.000  0.00  0.00    -0.332 OA
HETATM    9  O   UNK N   1      -0.547   1.004  -0.000  0.00  0.00    -0.332 OA
ENDROOT
TORSDOF 0
