REMARK  8 active torsions:
REMARK  status: ('A' for Active; 'I' for Inactive)
REMARK       I    between atoms: C_3  and  N_9 
REMARK    1  A    between atoms: C_8  and  N_10 
REMARK    2  A    between atoms: N_9  and  C_18 
REMARK    3  A    between atoms: N_10  and  C_11 
REMARK    4  A    between atoms: C_12  and  S_35 
REMARK    5  A    between atoms: C_20  and  O_30 
REMARK    6  A    between atoms: C_23  and  C_24 
REMARK    7  A    between atoms: O_30  and  C_31 
REMARK    8  A    between atoms: S_35  and  C_36 
ROOT
HETATM    1  N   UNK N   1      19.859  -3.786  -0.361  0.00  0.00    -0.200 N 
ATOM      2  HN  UNK N   1      20.802  -3.398  -0.370  1.00  0.00     0.183 HD
HETATM    3  C   UNK N   1      19.663  -5.081  -0.009  0.00  0.00     0.684 A 
HETATM    4  C   UNK N   1      18.800  -3.001  -0.703  0.00  0.00     0.133 A 
HETATM    5  N   UNK N   1      18.406  -5.570   0.032  0.00  0.00    -0.175 N 
ATOM      6  HN  UNK N   1      18.280  -6.545   0.306  1.00  0.00     0.186 HD
HETATM    7  C   UNK N   1      17.491  -3.508  -0.684  0.00  0.00     0.094 A 
HETATM    8  C   UNK N   1      17.308  -4.851  -0.265  0.00  0.00     0.144 A 
HETATM    9  N   UNK N   1      20.772  -5.951   0.201  0.00  0.00    -0.189 N 
HETATM   10 Cl   UNK N   1      16.225  -2.456  -1.287  0.00  0.00    -0.079 Cl
HETATM   11  H   UNK N   1      21.661  -5.552   0.338  0.00  0.00     0.184 HD
ENDROOT
BRANCH   9  12
HETATM   12  C   UNK N   1      20.653  -7.380   0.223  0.00  0.00     0.083 A 
HETATM   13  C   UNK N   1      19.397  -8.000   0.262  0.00  0.00     0.040 A 
HETATM   14  C   UNK N   1      19.253  -9.376   0.198  0.00  0.00    -0.053 A 
HETATM   15  C   UNK N   1      20.391 -10.189   0.061  0.00  0.00    -0.045 A 
HETATM   16  C   UNK N   1      17.873  -9.943   0.238  0.00  0.00     0.049 C 
HETATM   17  C   UNK N   1      21.662  -9.582   0.039  0.00  0.00     0.047 A 
HETATM   18  C   UNK N   1      21.801  -8.179   0.140  0.00  0.00     0.097 A 
BRANCH  15  19
HETATM   19  C   UNK N   1      20.227 -11.683  -0.091  0.00  0.00     0.022 C 
HETATM   20  C   UNK N   1      19.603 -12.327   1.147  0.00  0.00     0.028 C 
HETATM   21  C   UNK N   1      19.329 -13.823   0.918  0.00  0.00     0.114 C 
HETATM   22  N   UNK N   1      19.828 -14.293  -0.379  0.00  0.00    -0.421 N 
HETATM   23  C   UNK N   1      21.252 -13.965  -0.494  0.00  0.00     0.114 C 
HETATM   24  H   UNK N   1      19.273 -14.771  -1.088  0.00  0.00     0.153 HD
HETATM   25  C   UNK N   1      21.491 -12.446  -0.496  0.00  0.00     0.028 C 
ENDBRANCH  15  19
BRANCH  18  26
HETATM   26  O   UNK N   1      23.018  -7.575   0.161  0.00  0.00    -0.344 OA
BRANCH  26  27
HETATM   27  C   UNK N   1      24.246  -8.201   0.059  0.00  0.00     0.120 C 
HETATM   28  C   UNK N   1      25.322  -7.155   0.268  0.00  0.00     0.040 C 
HETATM   29  C   UNK N   1      24.426  -9.268   1.126  0.00  0.00     0.040 C 
ENDBRANCH  26  27
ENDBRANCH  18  26
ENDBRANCH   9  12
BRANCH   8  30
HETATM   30  N   UNK N   1      16.077  -5.561  -0.192  0.00  0.00    -0.339 N 
HETATM   31  H   UNK N   1      16.188  -6.525  -0.359  0.00  0.00     0.167 HD
BRANCH  30  32
HETATM   32  C   UNK N   1      14.729  -5.207   0.064  0.00  0.00     0.055 A 
HETATM   33  C   UNK N   1      13.762  -6.236   0.098  0.00  0.00     0.086 A 
HETATM   34  C   UNK N   1      12.429  -5.930   0.387  0.00  0.00     0.026 A 
HETATM   35  C   UNK N   1      12.050  -4.613   0.647  0.00  0.00     0.002 A 
HETATM   36  C   UNK N   1      13.008  -3.598   0.643  0.00  0.00     0.002 A 
HETATM   37  C   UNK N   1      14.342  -3.898   0.364  0.00  0.00     0.031 A 
BRANCH  33  38
HETATM   38  S   UNK N   1      14.225  -7.965  -0.142  0.00  0.00     0.181 S 
HETATM   39  O   UNK N   1      15.140  -8.343   1.034  0.00  0.00    -0.222 OA
HETATM   40  O   UNK N   1      15.251  -8.016  -1.285  0.00  0.00    -0.222 OA
BRANCH  38  41
HETATM   41  C   UNK N   1      13.065  -9.343  -0.411  0.00  0.00     0.105 C 
HETATM   42  C   UNK N   1      11.974  -9.303   0.637  0.00  0.00     0.026 C 
HETATM   43  C   UNK N   1      13.797 -10.668  -0.311  0.00  0.00     0.026 C 
ENDBRANCH  38  41
ENDBRANCH  33  38
ENDBRANCH  30  32
ENDBRANCH   8  30
TORSDOF 8
