REMARK  7 active torsions:
REMARK  status: ('A' for Active; 'I' for Inactive)
REMARK    1  A    between atoms: C_7  and  C_8 
REMARK    2  A    between atoms: C_10  and  N_36 
REMARK    3  A    between atoms: C_14  and  N_15 
REMARK       I    between atoms: N_15  and  C_17 
REMARK    4  A    between atoms: C_17  and  C_19 
REMARK    5  A    between atoms: C_19  and  C_22 
REMARK    6  A    between atoms: C_24  and  C_32 
REMARK    7  A    between atoms: C_26  and  C_28 
ROOT
HETATM    1  C   UNK N   1      -1.080  -1.664  -0.130  0.00  0.00     0.006 A 
HETATM    2  C   UNK N   1      -0.993  -0.261  -0.092  0.00  0.00     0.063 A 
HETATM    3  C   UNK N   1       0.231   0.392  -0.254  0.00  0.00     0.103 A 
HETATM    4  N   UNK N   1       1.338  -0.338  -0.505  0.00  0.00    -0.350 N 
ATOM      5  HN  UNK N   1       2.226   0.141  -0.656  1.00  0.00     0.166 HD
HETATM    6  C   UNK N   1       1.302  -1.683  -0.560  0.00  0.00     0.120 A 
HETATM    7  C   UNK N   1       0.142  -2.411  -0.348  0.00  0.00     0.063 A 
ENDROOT
BRANCH   7   8
HETATM    8  N   UNK N   1       0.181  -3.857  -0.335  0.00  0.00    -0.319 N 
HETATM    9  C   UNK N   1      -0.932  -4.566  -0.936  0.00  0.00     0.159 C 
HETATM   10  C   UNK N   1       1.127  -4.648   0.306  0.00  0.00     0.236 C 
HETATM   11  O   UNK N   1       0.731  -5.742   0.693  0.00  0.00    -0.272 OA
BRANCH  10  12
HETATM   12  C   UNK N   1       2.642  -4.330   0.617  0.00  0.00     0.061 C 
HETATM   13  C   UNK N   1       2.797  -3.883   2.061  0.00  0.00     0.030 C 
HETATM   14  C   UNK N   1       3.313  -3.318  -0.293  0.00  0.00     0.030 C 
BRANCH  12  15
HETATM   15  C   UNK N   1       3.516  -5.580   0.374  0.00  0.00    -0.039 A 
HETATM   16  C   UNK N   1       4.927  -5.521   0.399  0.00  0.00     0.024 A 
HETATM   17  C   UNK N   1       5.695  -6.651   0.060  0.00  0.00     0.049 A 
HETATM   18  C   UNK N   1       5.052  -7.859  -0.261  0.00  0.00     0.032 A 
HETATM   19  C   UNK N   1       3.657  -7.930  -0.260  0.00  0.00     0.049 A 
HETATM   20  C   UNK N   1       2.927  -6.798   0.030  0.00  0.00     0.024 A 
BRANCH  17  21
HETATM   21  C   UNK N   1       7.190  -6.545  -0.010  0.00  0.00     0.417 C 
HETATM   22  F   UNK N   1       7.694  -6.192   1.227  0.00  0.00    -0.166 F 
HETATM   23  F   UNK N   1       7.755  -7.748  -0.400  0.00  0.00    -0.166 F 
HETATM   24  F   UNK N   1       7.536  -5.577  -0.936  0.00  0.00    -0.166 F 
ENDBRANCH  17  21
BRANCH  19  25
HETATM   25  C   UNK N   1       2.903  -9.187  -0.563  0.00  0.00     0.417 C 
HETATM   26  F   UNK N   1       2.131  -9.527   0.536  0.00  0.00    -0.166 F 
HETATM   27  F   UNK N   1       3.759 -10.231  -0.853  0.00  0.00    -0.166 F 
HETATM   28  F   UNK N   1       2.066  -8.970  -1.644  0.00  0.00    -0.166 F 
ENDBRANCH  19  25
ENDBRANCH  12  15
ENDBRANCH  10  12
ENDBRANCH   7   8
BRANCH   1  29
HETATM   29  C   UNK N   1      -2.429  -2.268   0.212  0.00  0.00    -0.018 A 
HETATM   30  C   UNK N   1      -2.496  -3.467   0.948  0.00  0.00     0.013 A 
HETATM   31  C   UNK N   1      -3.715  -4.059   1.277  0.00  0.00     0.001 A 
HETATM   32  C   UNK N   1      -4.907  -3.450   0.901  0.00  0.00     0.001 A 
HETATM   33  C   UNK N   1      -4.878  -2.241   0.208  0.00  0.00     0.007 A 
HETATM   34  C   UNK N   1      -3.662  -1.638  -0.132  0.00  0.00    -0.051 A 
HETATM   35  C   UNK N   1      -3.728  -0.360  -0.899  0.00  0.00     0.049 C 
ENDBRANCH   1  29
BRANCH   3  36
HETATM   36  N   UNK N   1       0.359   1.789  -0.034  0.00  0.00    -0.364 N 
HETATM   37  C   UNK N   1      -0.769   2.578   0.419  0.00  0.00     0.154 C 
HETATM   38  C   UNK N   1      -0.665   3.988  -0.160  0.00  0.00     0.291 C 
HETATM   39  N   UNK N   1       0.648   4.555   0.151  0.00  0.00     0.087 N 
HETATM   40  C   UNK N   1       1.672   3.768  -0.528  0.00  0.00     0.291 C 
HETATM   41  C   UNK N   1       0.692   5.890  -0.413  0.00  0.00     0.310 C 
HETATM   42  C   UNK N   1       1.686   2.365   0.055  0.00  0.00     0.154 C 
ENDBRANCH   3  36
TORSDOF 7
