REMARK  9 active torsions:
REMARK  status: ('A' for Active; 'I' for Inactive)
REMARK    1  A    between atoms: C_27  and  C_20 
REMARK    2  A    between atoms: N_37  and  C_20 
REMARK    3  A    between atoms: C_29  and  C_21 
REMARK    4  A    between atoms: C_31  and  C_22 
REMARK    5  A    between atoms: N_32  and  C_23 
REMARK    6  A    between atoms: N_36  and  C_24 
REMARK       I    between atoms: N_36  and  C_27 
REMARK    7  A    between atoms: N_32  and  C_29 
REMARK    8  A    between atoms: O_39  and  C_30 
REMARK    9  A    between atoms: O_41  and  C_31 
ROOT
HETATM    1  C   UNK N   1       5.368  -0.244   0.211  0.00  0.00     0.018 A 
HETATM    2  C   UNK N   1       4.135   0.265   0.547  0.00  0.00     0.016 A 
HETATM    3  C   UNK N   1       4.300  -2.268  -0.662  0.00  0.00     0.048 A 
HETATM    4  C   UNK N   1       5.477  -1.489  -0.429  0.00  0.00     0.041 A 
HETATM    5  C   UNK N   1       3.004  -0.473   0.244  0.00  0.00     0.007 A 
HETATM    6  C   UNK N   1       3.063  -1.720  -0.291  0.00  0.00     0.046 A 
HETATM    7  C   UNK N   1       1.610  -0.091   0.269  0.00  0.00     0.055 A 
HETATM    8  C   UNK N   1       1.173   1.169   0.430  0.00  0.00     0.058 C 
HETATM    9  C   UNK N   1       0.906  -1.310  -0.161  0.00  0.00     0.154 A 
HETATM   10  N   UNK N   1       1.753  -2.228  -0.504  0.00  0.00    -0.336 N 
ATOM     11  HN  UNK N   1       1.521  -3.154  -0.865  1.00  0.00     0.168 HD
ENDROOT
BRANCH   8  12
HETATM   12  C   UNK N   1       2.202   2.246   0.428  0.00  0.00    -0.008 A 
HETATM   13  C   UNK N   1       2.599   2.747  -0.820  0.00  0.00     0.014 A 
HETATM   14  C   UNK N   1       3.611   3.698  -0.910  0.00  0.00     0.001 A 
HETATM   15  C   UNK N   1       4.234   4.157   0.251  0.00  0.00     0.000 A 
HETATM   16  C   UNK N   1       3.839   3.668   1.503  0.00  0.00     0.001 A 
HETATM   17  C   UNK N   1       2.827   2.704   1.597  0.00  0.00     0.014 A 
ENDBRANCH   8  12
BRANCH   8  18
HETATM   18  N   UNK N   1      -0.187   1.519   0.188  0.00  0.00    -0.355 N 
HETATM   19  H   UNK N   1      -0.876   0.833   0.036  0.00  0.00     0.166 HD
BRANCH  18  20
HETATM   20  C   UNK N   1      -0.499   2.896   0.177  0.00  0.00     0.032 A 
HETATM   21  C   UNK N   1      -0.049   3.693   1.235  0.00  0.00     0.031 A 
HETATM   22  C   UNK N   1      -0.012   5.063   1.116  0.00  0.00     0.032 A 
HETATM   23  C   UNK N   1      -0.433   5.689  -0.057  0.00  0.00     0.036 A 
HETATM   24  C   UNK N   1      -0.919   4.888  -1.116  0.00  0.00     0.032 A 
HETATM   25  C   UNK N   1      -0.913   3.496  -1.013  0.00  0.00     0.031 A 
BRANCH  23  26
HETATM   26  N   UNK N   1      -0.610   7.100  -0.022  0.00  0.00    -0.321 N 
HETATM   27  C   UNK N   1       0.090   7.858   1.007  0.00  0.00     0.159 C 
HETATM   28  C   UNK N   1      -1.660   7.683  -0.666  0.00  0.00     0.252 C 
HETATM   29  O   UNK N   1      -2.245   7.106  -1.578  0.00  0.00    -0.271 OA
BRANCH  28  30
HETATM   30  C   UNK N   1      -2.327   8.866  -0.051  0.00  0.00     0.375 C 
BRANCH  30  31
HETATM   31  N   UNK N   1      -3.311   8.463   0.993  0.00  0.00     0.100 N 
HETATM   32  C   UNK N   1      -3.415   7.033   1.375  0.00  0.00     0.303 C 
HETATM   33  C   UNK N   1      -4.151   6.176   0.321  0.00  0.00     0.302 C 
HETATM   34  N   UNK N   1      -5.427   6.760  -0.104  0.00  0.00     0.087 N 
HETATM   35  C   UNK N   1      -6.428   6.597   0.941  0.00  0.00     0.310 C 
HETATM   36  C   UNK N   1      -5.283   8.175  -0.459  0.00  0.00     0.302 C 
HETATM   37  C   UNK N   1      -4.632   8.987   0.667  0.00  0.00     0.303 C 
ENDBRANCH  30  31
ENDBRANCH  28  30
ENDBRANCH  23  26
ENDBRANCH  18  20
ENDBRANCH   8  18
BRANCH   9  38
HETATM   38  O   UNK N   1      -0.428  -1.446  -0.299  0.00  0.00    -0.345 OA
HETATM   39  H   UNK N   1      -0.974  -0.691  -0.396  0.00  0.00     0.219 HD
ENDBRANCH   9  38
BRANCH   4  40
HETATM   40  C   UNK N   1       6.831  -1.851  -0.927  0.00  0.00     0.293 C 
HETATM   41  O   UNK N   1       7.712  -1.003  -0.877  0.00  0.00    -0.259 OA
BRANCH  40  42
HETATM   42  O   UNK N   1       7.135  -3.052  -1.475  0.00  0.00    -0.323 OA
HETATM   43  C   UNK N   1       6.323  -4.156  -1.425  0.00  0.00     0.213 C 
ENDBRANCH  40  42
ENDBRANCH   4  40
TORSDOF 9
