REMARK WARNING: 32 MAX_TORS EXCEEDED!!!
REMARK  37 active torsions:
REMARK  status: ('A' for Active; 'I' for Inactive)
REMARK    1  A    between atoms: C_2  and  C_1 
REMARK    2  A    between atoms: C_1  and  C_40 
REMARK    3  A    between atoms: C_2  and  N_3 
REMARK    4  A    between atoms: C_2  and  C_4 
REMARK       I    between atoms: N_3  and  C_6 
REMARK       I    between atoms: C_4  and  N_7 
REMARK    5  A    between atoms: C_6  and  C_35 
REMARK    6  A    between atoms: N_7  and  C_8 
REMARK    7  A    between atoms: C_8  and  C_9 
REMARK    8  A    between atoms: C_8  and  C_10 
REMARK       I    between atoms: C_9  and  N_14 
REMARK    9  A    between atoms: C_10  and  C_11 
REMARK   10  A    between atoms: C_11  and  S_12 
REMARK   11  A    between atoms: N_14  and  C_16 
REMARK   12  A    between atoms: C_16  and  C_17 
REMARK   13  A    between atoms: C_16  and  C_20 
REMARK       I    between atoms: C_17  and  N_18 
REMARK   14  A    between atoms: N_18  and  C_24 
REMARK   15  A    between atoms: C_20  and  C_21 
REMARK   16  A    between atoms: C_21  and  O_22 
REMARK   17  A    between atoms: C_24  and  C_25 
REMARK   18  A    between atoms: C_24  and  C_26 
REMARK       I    between atoms: C_25  and  N_28 
REMARK   19  A    between atoms: C_26  and  C_27 
REMARK   20  A    between atoms: C_35  and  N_36 
REMARK       I    between atoms: N_36  and  C_37 
REMARK   21  A    between atoms: C_37  and  C_38 
REMARK   22  A    between atoms: C_38  and  N_39 
REMARK   23  A    between atoms: C_38  and  C_51 
REMARK       I    between atoms: N_39  and  C_55 
REMARK   24  A    between atoms: C_51  and  C_52 
REMARK   25  A    between atoms: C_52  and  S_53 
REMARK   26  A    between atoms: C_55  and  C_56 
REMARK   27  A    between atoms: C_56  and  C_57 
REMARK   28  A    between atoms: C_56  and  N_59 
REMARK   29  A    between atoms: C_57  and  C_61 
REMARK       I    between atoms: N_59  and  C_60 
REMARK   30  A    between atoms: C_73  and  C_60 
REMARK   31  A    between atoms: C_64  and  O_67 
REMARK   32  A    between atoms: O_67  and  S_68 
REMARK   33  A    between atoms: S_68  and  O_69 
REMARK   34  A    between atoms: C_73  and  N_74 
REMARK   35  A    between atoms: C_73  and  C_75 
REMARK   36  A    between atoms: C_75  and  C_76 
REMARK   37  A    between atoms: C_76  and  O_77 
ROOT
HETATM    1  C   UNK N   1      -1.328  -0.539   1.338  0.00  0.00     0.181 C 
ENDROOT
BRANCH   1   2
HETATM    2  C   UNK N   1      -1.740   0.903   1.673  0.00  0.00     0.075 C 
BRANCH   2   3
HETATM    3  C   UNK N   1      -2.389   1.752   0.621  0.00  0.00    -0.028 A 
HETATM    4  C   UNK N   1      -2.331   3.117   0.563  0.00  0.00    -0.002 A 
HETATM    5  C   UNK N   1      -3.089   3.512  -0.499  0.00  0.00     0.042 A 
HETATM    6  C   UNK N   1      -1.676   4.042   1.379  0.00  0.00     0.014 A 
HETATM    7  N   UNK N   1      -3.633   2.445  -1.119  0.00  0.00    -0.365 N 
HETATM    8  C   UNK N   1      -3.256   4.847  -0.837  0.00  0.00     0.030 A 
HETATM    9  C   UNK N   1      -3.217   1.359  -0.428  0.00  0.00     0.096 A 
HETATM   10  H   UNK N   1      -4.215   2.455  -1.913  0.00  0.00     0.165 HD
HETATM   11  C   UNK N   1      -2.608   5.808  -0.037  0.00  0.00     0.002 A 
HETATM   12  C   UNK N   1      -1.821   5.406   1.066  0.00  0.00     0.001 A 
ENDBRANCH   2   3
ENDBRANCH   1   2
BRANCH   1  13
HETATM   13  N   UNK N   1      -0.245  -0.678   0.430  0.00  0.00    -0.346 N 
HETATM   14  C   UNK N   1      -0.124  -0.429  -0.901  0.00  0.00     0.236 C 
HETATM   15  O   UNK N   1      -1.052  -0.011  -1.572  0.00  0.00    -0.272 OA
HETATM   16  H   UNK N   1       0.578  -1.021   0.845  0.00  0.00     0.163 HD
BRANCH  14  17
HETATM   17  C   UNK N   1       1.229  -0.654  -1.501  0.00  0.00     0.225 C 
BRANCH  17  18
HETATM   18  N   UNK N   1       2.016  -1.284  -0.460  0.00  0.00    -0.351 N 
HETATM   19  C   UNK N   1       2.460  -0.629   0.654  0.00  0.00     0.240 C 
HETATM   20  O   UNK N   1       2.875  -1.285   1.594  0.00  0.00    -0.271 OA
HETATM   21  H   UNK N   1       2.244  -2.236  -0.561  0.00  0.00     0.163 HD
BRANCH  19  22
HETATM   22  C   UNK N   1       2.605   0.885   0.705  0.00  0.00     0.177 C 
BRANCH  22  23
HETATM   23  N   UNK N   1       3.604   1.160  -0.276  0.00  0.00    -0.346 N 
HETATM   24  C   UNK N   1       4.873   0.844   0.030  0.00  0.00     0.241 C 
HETATM   25  O   UNK N   1       5.239   0.834   1.201  0.00  0.00    -0.271 OA
HETATM   26  H   UNK N   1       3.373   1.564  -1.144  0.00  0.00     0.163 HD
BRANCH  24  27
HETATM   27  C   UNK N   1       5.601   0.022  -0.953  0.00  0.00     0.180 C 
BRANCH  27  28
HETATM   28  C   UNK N   1       7.082   0.433  -0.930  0.00  0.00     0.073 C 
BRANCH  28  29
HETATM   29  C   UNK N   1       8.086  -0.482  -0.280  0.00  0.00    -0.056 A 
HETATM   30  C   UNK N   1       7.725  -1.560   0.546  0.00  0.00     0.010 A 
HETATM   31  C   UNK N   1       8.663  -2.513   0.921  0.00  0.00     0.039 A 
HETATM   32  C   UNK N   1       9.980  -2.391   0.486  0.00  0.00     0.091 A 
HETATM   33  C   UNK N   1      10.366  -1.258  -0.246  0.00  0.00     0.039 A 
HETATM   34  C   UNK N   1       9.420  -0.316  -0.635  0.00  0.00     0.010 A 
BRANCH  32  35
HETATM   35  O   UNK N   1      10.840  -3.413   0.712  0.00  0.00    -0.221 OA
BRANCH  35  36
HETATM   36  S   UNK N   1      12.448  -3.520   0.129  0.00  0.00     0.245 S 
HETATM   37  O   UNK N   1      11.812  -3.317  -1.258  0.00  0.00    -0.579 OA
HETATM   38  O   UNK N   1      11.869  -4.903   0.465  0.00  0.00    -0.579 OA
BRANCH  36  39
HETATM   39  O   UNK N   1      13.179  -4.797  -0.752  0.00  0.00    -0.273 OA
HETATM   40  H   UNK N   1      12.760  -5.516  -1.250  0.00  0.00     0.234 HD
ENDBRANCH  36  39
ENDBRANCH  35  36
ENDBRANCH  32  35
ENDBRANCH  28  29
ENDBRANCH  27  28
BRANCH  27  41
HETATM   41  N   UNK N   1       5.367  -1.352  -0.541  0.00  0.00    -0.346 N 
HETATM   42  C   UNK N   1       4.688  -2.308  -1.217  0.00  0.00     0.241 C 
HETATM   43  O   UNK N   1       4.236  -2.084  -2.331  0.00  0.00    -0.271 OA
HETATM   44  H   UNK N   1       5.743  -1.617   0.330  0.00  0.00     0.163 HD
BRANCH  42  45
HETATM   45  C   UNK N   1       4.449  -3.631  -0.523  0.00  0.00     0.177 C 
BRANCH  45  46
HETATM   46  N   UNK N   1       5.717  -4.274  -0.228  0.00  0.00    -0.418 N 
HETATM   47  H   UNK N   1       5.771  -5.271  -0.022  0.00  0.00     0.150 HD
HETATM   48  H   UNK N   1       6.572  -3.717  -0.228  0.00  0.00     0.150 HD
ENDBRANCH  45  46
BRANCH  45  49
HETATM   49  C   UNK N   1       3.541  -4.606  -1.264  0.00  0.00     0.144 C 
BRANCH  49  50
HETATM   50  C   UNK N   1       2.098  -4.350  -0.957  0.00  0.00     0.141 C 
HETATM   51  O   UNK N   1       1.324  -4.076  -1.858  0.00  0.00    -0.650 OA
BRANCH  50  52
HETATM   52  O   UNK N   1       1.645  -4.447   0.309  0.00  0.00    -0.776 OA
HETATM   53  H   UNK N   1       1.429  -4.208   1.189  0.00  0.00     0.167 HD
ENDBRANCH  50  52
ENDBRANCH  49  50
ENDBRANCH  45  49
ENDBRANCH  42  45
ENDBRANCH  27  41
ENDBRANCH  24  27
ENDBRANCH  22  23
BRANCH  22  54
HETATM   54  C   UNK N   1       1.358   1.733   0.492  0.00  0.00     0.045 C 
BRANCH  54  55
HETATM   55  C   UNK N   1       1.601   3.178   0.905  0.00  0.00     0.076 C 
BRANCH  55  56
HETATM   56  S   UNK N   1       2.555   4.081  -0.355  0.00  0.00    -0.173 SA
HETATM   57  C   UNK N   1       1.060   4.788  -1.099  0.00  0.00     0.089 C 
ENDBRANCH  55  56
ENDBRANCH  54  55
ENDBRANCH  22  54
ENDBRANCH  19  22
ENDBRANCH  17  18
ENDBRANCH  14  17
ENDBRANCH   1  13
BRANCH   1  58
HETATM   58  C   UNK N   1      -2.385  -1.525   1.114  0.00  0.00     0.241 C 
HETATM   59  O   UNK N   1      -2.651  -2.321   2.001  0.00  0.00    -0.271 OA
HETATM   60  N   UNK N   1      -3.126  -1.446  -0.008  0.00  0.00    -0.346 N 
HETATM   61  H   UNK N   1      -2.734  -1.025  -0.807  0.00  0.00     0.163 HD
BRANCH  60  62
HETATM   62  C   UNK N   1      -4.461  -1.952  -0.076  0.00  0.00     0.177 C 
BRANCH  62  63
HETATM   63  C   UNK N   1      -5.286  -1.288   0.993  0.00  0.00     0.241 C 
HETATM   64  N   UNK N   1      -5.994  -0.176   0.695  0.00  0.00    -0.346 N 
HETATM   65  H   UNK N   1      -6.373   0.359   1.429  0.00  0.00     0.163 HD
HETATM   66  O   UNK N   1      -5.216  -1.660   2.153  0.00  0.00    -0.271 OA
BRANCH  64  67
HETATM   67  C   UNK N   1      -6.214   0.254  -0.673  0.00  0.00     0.186 C 
BRANCH  67  68
HETATM   68  C   UNK N   1      -7.005  -0.829  -1.364  0.00  0.00     0.241 C 
HETATM   69  N   UNK N   1      -8.142  -1.317  -0.802  0.00  0.00    -0.346 N 
HETATM   70  H   UNK N   1      -8.681  -1.976  -1.296  0.00  0.00     0.163 HD
HETATM   71  O   UNK N   1      -6.600  -1.294  -2.417  0.00  0.00    -0.271 OA
BRANCH  69  72
HETATM   72  C   UNK N   1      -8.577  -0.881   0.515  0.00  0.00     0.180 C 
BRANCH  72  73
HETATM   73  C   UNK N   1      -9.703   0.104   0.467  0.00  0.00     0.238 C 
HETATM   74  N   UNK N   1     -10.085   0.733   1.595  0.00  0.00    -0.368 N 
HETATM   75  H   UNK N   1      -9.827   1.205   2.419  0.00  0.00     0.159 HD
HETATM   76  H   UNK N   1     -11.069   0.711   1.595  0.00  0.00     0.159 HD
HETATM   77  O   UNK N   1     -10.233   0.387  -0.595  0.00  0.00    -0.271 OA
ENDBRANCH  72  73
BRANCH  72  78
HETATM   78  C   UNK N   1      -8.792  -2.065   1.456  0.00  0.00     0.073 C 
BRANCH  78  79
HETATM   79  C   UNK N   1      -9.768  -3.027   0.881  0.00  0.00    -0.056 A 
HETATM   80  C   UNK N   1     -11.107  -2.658   0.716  0.00  0.00     0.007 A 
HETATM   81  C   UNK N   1     -12.003  -3.539   0.113  0.00  0.00     0.001 A 
HETATM   82  C   UNK N   1     -11.561  -4.789  -0.328  0.00  0.00     0.000 A 
HETATM   83  C   UNK N   1     -10.223  -5.162  -0.156  0.00  0.00     0.001 A 
HETATM   84  C   UNK N   1      -9.326  -4.279   0.448  0.00  0.00     0.007 A 
ENDBRANCH  78  79
ENDBRANCH  72  78
ENDBRANCH  69  72
ENDBRANCH  67  68
BRANCH  67  85
HETATM   85  C   UNK N   1      -7.061   1.530  -0.736  0.00  0.00     0.144 C 
BRANCH  85  86
HETATM   86  C   UNK N   1      -6.693   2.591   0.248  0.00  0.00     0.141 C 
HETATM   87  O   UNK N   1      -6.320   3.682  -0.145  0.00  0.00    -0.650 OA
BRANCH  86  88
HETATM   88  O   UNK N   1      -6.858   2.374   1.567  0.00  0.00    -0.776 OA
HETATM   89  H   UNK N   1      -7.045   2.397   2.484  0.00  0.00     0.167 HD
ENDBRANCH  86  88
ENDBRANCH  85  86
ENDBRANCH  67  85
ENDBRANCH  64  67
ENDBRANCH  62  63
BRANCH  62  90
HETATM   90  C   UNK N   1      -4.623  -3.425  -0.431  0.00  0.00     0.045 C 
BRANCH  90  91
HETATM   91  C   UNK N   1      -4.204  -4.401   0.648  0.00  0.00     0.076 C 
BRANCH  91  92
HETATM   92  S   UNK N   1      -3.720  -5.963  -0.147  0.00  0.00    -0.173 SA
HETATM   93  C   UNK N   1      -5.430  -6.407  -0.575  0.00  0.00     0.089 C 
ENDBRANCH  91  92
ENDBRANCH  90  91
ENDBRANCH  62  90
ENDBRANCH  60  62
ENDBRANCH   1  58
TORSDOF 37
