REMARK  9 active torsions:
REMARK  status: ('A' for Active; 'I' for Inactive)
REMARK    1  A    between atoms: N_27  and  C_11 
REMARK    2  A    between atoms: O_33  and  C_12 
REMARK    3  A    between atoms: C_20  and  C_14 
REMARK    4  A    between atoms: N_29  and  C_16 
REMARK    5  A    between atoms: O_33  and  C_18 
REMARK    6  A    between atoms: O_32  and  C_19 
REMARK    7  A    between atoms: O_30  and  C_20 
REMARK    8  A    between atoms: N_29  and  C_21 
REMARK    9  A    between atoms: O_31  and  C_21 
ROOT
HETATM    1  C   UNK N   1       0.363  -1.359  -1.022  0.00  0.00     0.055 A 
HETATM    2  C   UNK N   1       0.485  -2.743  -0.873  0.00  0.00     0.091 A 
HETATM    3  C   UNK N   1       3.874  -0.353  -0.443  0.00  0.00     0.035 A 
HETATM    4  C   UNK N   1       4.025  -3.120  -0.102  0.00  0.00     0.068 A 
HETATM    5  C   UNK N   1       2.729  -1.135  -0.600  0.00  0.00     0.026 A 
HETATM    6  C   UNK N   1       5.105  -0.930  -0.115  0.00  0.00     0.049 A 
HETATM    7  C   UNK N   1       2.806  -2.530  -0.435  0.00  0.00     0.047 A 
HETATM    8  C   UNK N   1       1.495  -0.540  -0.881  0.00  0.00     0.089 A 
HETATM    9  C   UNK N   1       5.183  -2.335   0.067  0.00  0.00     0.085 A 
HETATM   10  N   UNK N   1       1.692  -3.297  -0.576  0.00  0.00    -0.365 N 
ATOM     11  HN  UNK N   1       1.762  -4.307  -0.457  1.00  0.00     0.165 HD
ENDROOT
BRANCH   8  12
HETATM   12  O   UNK N   1       1.426   0.817  -0.977  0.00  0.00    -0.310 OA
BRANCH  12  13
HETATM   13  C   UNK N   1       0.395   1.604  -0.576  0.00  0.00     0.077 A 
HETATM   14  C   UNK N   1       0.536   2.991  -0.657  0.00  0.00     0.039 A 
HETATM   15  C   UNK N   1      -0.462   3.832  -0.156  0.00  0.00     0.034 A 
HETATM   16  C   UNK N   1      -1.620   3.297   0.418  0.00  0.00     0.057 A 
HETATM   17  C   UNK N   1      -1.766   1.891   0.500  0.00  0.00     0.063 A 
HETATM   18  C   UNK N   1      -0.758   1.067   0.010  0.00  0.00     0.063 A 
HETATM   19 Cl   UNK N   1      -3.130   1.111   1.288  0.00  0.00    -0.082 Cl
BRANCH  16  20
HETATM   20  N   UNK N   1      -2.593   4.190   0.944  0.00  0.00    -0.321 N 
HETATM   21  H   UNK N   1      -2.283   4.948   1.490  0.00  0.00     0.169 HD
BRANCH  20  22
HETATM   22  C   UNK N   1      -3.987   4.046   0.725  0.00  0.00     0.217 C 
HETATM   23  N   UNK N   1      -4.416   3.355  -0.275  0.00  0.00    -0.352 N 
ATOM     24  HN  UNK N   1      -3.734   2.910  -0.890  1.00  0.00     0.163 HD
BRANCH  23  25
HETATM   25  C   UNK N   1      -5.817   3.184  -0.560  0.00  0.00     0.085 A 
HETATM   26  C   UNK N   1      -6.353   1.994   0.211  0.00  0.00     0.027 A 
HETATM   27  C   UNK N   1      -6.011   1.853  -1.256  0.00  0.00     0.027 A 
ENDBRANCH  23  25
BRANCH  22  28
HETATM   28  O   UNK N   1      -4.854   4.667   1.553  0.00  0.00    -0.333 OA
HETATM   29  H   UNK N   1      -4.782   5.404   2.127  0.00  0.00     0.220 HD
ENDBRANCH  22  28
ENDBRANCH  20  22
ENDBRANCH  16  20
ENDBRANCH  12  13
ENDBRANCH   8  12
BRANCH   6  30
HETATM   30  C   UNK N   1       6.276  -0.025   0.035  0.00  0.00     0.146 C 
HETATM   31  N   UNK N   1       7.434  -0.481   0.345  0.00  0.00    -0.379 N 
HETATM   32  H   UNK N   1       7.575  -1.426   0.583  0.00  0.00     0.158 HD
ATOM     33  HN  UNK N   1       8.232   0.154   0.345  1.00  0.00     0.158 HD
BRANCH  30  34
HETATM   34  O   UNK N   1       6.125   1.301  -0.160  0.00  0.00    -0.346 OA
HETATM   35  H   UNK N   1       6.870   1.852  -0.296  0.00  0.00     0.219 HD
ENDBRANCH  30  34
ENDBRANCH   6  30
BRANCH   9  36
HETATM   36  O   UNK N   1       6.363  -2.913   0.406  0.00  0.00    -0.355 OA
HETATM   37  C   UNK N   1       6.508  -4.262   0.635  0.00  0.00     0.210 C 
ENDBRANCH   9  36
TORSDOF 9
