REMARK  8 active torsions:
REMARK  status: ('A' for Active; 'I' for Inactive)
REMARK    1  A    between atoms: C_1  and  O_2 
REMARK    2  A    between atoms: C_1  and  P_3 
REMARK    3  A    between atoms: C_1  and  P_7 
REMARK    4  A    between atoms: P_3  and  O_5 
REMARK    5  A    between atoms: P_3  and  O_6 
REMARK    6  A    between atoms: P_7  and  O_9 
REMARK    7  A    between atoms: P_7  and  O_10 
REMARK    8  A    between atoms: Tc_11  and  Tc_11 
ROOT
HETATM    1 Tc   UNK N   1       3.468  -0.798   0.002  0.00  0.00     0.000 Tc
ENDROOT
TORSDOF 8
