REMARK  1 active torsions:
REMARK  status: ('A' for Active; 'I' for Inactive)
REMARK    1  A    between atoms: C_21  and  O_23 
ROOT
HETATM    1  C   UNK N   1      -1.060  -2.765   0.248  0.00  0.00     0.015 C 
HETATM    2  C   UNK N   1       5.014   2.284   1.483  0.00  0.00     0.010 C 
HETATM    3  C   UNK N   1       1.787  -1.503   1.561  0.00  0.00     0.020 C 
HETATM    4  C   UNK N   1      -0.009  -2.484  -0.276  0.00  0.00    -0.078 C 
HETATM    5  C   UNK N   1       8.469  -2.016  -0.946  0.00  0.00     0.083 C 
HETATM    6  C   UNK N   1       7.253  -2.088  -0.015  0.00  0.00     0.042 C 
HETATM    7  C   UNK N   1       4.611  -2.301   1.305  0.00  0.00     0.010 C 
HETATM    8  C   UNK N   1       1.910   0.326  -0.832  0.00  0.00     0.010 C 
HETATM    9  C   UNK N   1       3.521  -2.821   0.334  0.00  0.00     0.014 C 
HETATM   10  C   UNK N   1       1.010  -0.687  -1.527  0.00  0.00     0.052 C 
HETATM   11  C   UNK N   1       5.715   1.466  -0.755  0.00  0.00     0.039 C 
HETATM   12  C   UNK N   1       7.834   0.340  -1.608  0.00  0.00     0.112 C 
HETATM   13  C   UNK N   1       4.572   1.512   0.250  0.00  0.00    -0.010 C 
HETATM   14  C   UNK N   1       6.603   0.248  -0.741  0.00  0.00    -0.070 C 
HETATM   15  C   UNK N   1       8.868  -0.600  -1.109  0.00  0.00     0.131 C 
HETATM   16  C   UNK N   1       6.320  -0.873  -0.004  0.00  0.00    -0.072 C 
HETATM   17  C   UNK N   1       5.163  -0.877   0.990  0.00  0.00     0.019 C 
HETATM   18  C   UNK N   1       3.093  -0.512  -0.407  0.00  0.00     0.003 C 
HETATM   19  C   UNK N   1       4.029   0.126   0.644  0.00  0.00     0.002 C 
HETATM   20  C   UNK N   1       2.416  -1.766   0.170  0.00  0.00     0.003 C 
HETATM   21  C   UNK N   1       1.275  -2.042  -0.864  0.00  0.00     0.128 C 
HETATM   22  O   UNK N   1       9.969  -0.205  -0.757  0.00  0.00    -0.298 OA
ENDROOT
BRANCH  21  23
HETATM   23  O   UNK N   1       1.683  -2.953  -1.840  0.00  0.00    -0.377 OA
HETATM   24  H   UNK N   1       1.276  -3.515  -2.518  0.00  0.00     0.211 HD
ENDBRANCH  21  23
TORSDOF 1
