REMARK  17 active torsions:
REMARK  status: ('A' for Active; 'I' for Inactive)
REMARK    1  A    between atoms: C_8  and  C_3 
REMARK    2  A    between atoms: N_22  and  C_3 
REMARK    3  A    between atoms: C_9  and  C_4 
REMARK    4  A    between atoms: N_26  and  C_4 
REMARK    5  A    between atoms: C_8  and  C_5 
REMARK    6  A    between atoms: O_27  and  C_5 
REMARK    7  A    between atoms: C_9  and  C_6 
REMARK    8  A    between atoms: O_28  and  C_6 
REMARK    9  A    between atoms: C_10  and  C_7 
REMARK   10  A    between atoms: O_34  and  C_7 
REMARK   11  A    between atoms: O_29  and  C_8 
REMARK   12  A    between atoms: O_30  and  C_9 
REMARK   13  A    between atoms: O_31  and  C_10 
REMARK   14  A    between atoms: C_17  and  C_11 
REMARK   15  A    between atoms: C_18  and  C_12 
REMARK   16  A    between atoms: N_24  and  C_16 
REMARK   17  A    between atoms: O_32  and  C_17 
REMARK       I    between atoms: N_26  and  C_18 
ROOT
HETATM    1  C   UNK N   1      10.580  -0.066   0.293  0.00  0.00     0.051 A 
HETATM    2  C   UNK N   1       8.265  -0.309  -0.531  0.00  0.00     0.068 A 
HETATM    3  C   UNK N   1       9.385   0.513  -0.230  0.00  0.00     0.039 A 
HETATM    4  C   UNK N   1      10.615  -1.465   0.548  0.00  0.00     0.050 A 
HETATM    5  C   UNK N   1       8.375  -1.710  -0.377  0.00  0.00     0.051 A 
HETATM    6  C   UNK N   1       9.530  -2.280   0.161  0.00  0.00     0.069 A 
HETATM    7  I   UNK N   1       9.248   2.636  -0.554  0.00  0.00    -0.042 I 
HETATM    8  I   UNK N   1      12.192  -2.361   1.717  0.00  0.00    -0.041 I 
HETATM    9  I   UNK N   1       6.845  -3.065  -1.061  0.00  0.00    -0.041 I 
ENDROOT
BRANCH   1  10
HETATM   10  C   UNK N   1      11.767   0.805   0.614  0.00  0.00     0.149 C 
HETATM   11  N   UNK N   1      12.973   0.523   0.229  0.00  0.00    -0.368 N 
ATOM     12  HN  UNK N   1      13.726   1.132   0.547  1.00  0.00     0.161 HD
BRANCH  11  13
HETATM   13  C   UNK N   1      13.326  -0.597  -0.622  0.00  0.00     0.155 C 
BRANCH  13  14
HETATM   14  C   UNK N   1      14.810  -0.987  -0.531  0.00  0.00     0.159 C 
BRANCH  14  15
HETATM   15  C   UNK N   1      15.620  -0.187   0.485  0.00  0.00     0.197 C 
BRANCH  15  16
HETATM   16  O   UNK N   1      16.962  -0.564   0.428  0.00  0.00    -0.398 OA
HETATM   17  H   UNK N   1      17.201  -1.504   0.389  0.00  0.00     0.209 HD
ENDBRANCH  15  16
ENDBRANCH  14  15
BRANCH  14  18
HETATM   18  O   UNK N   1      14.912  -2.349  -0.240  0.00  0.00    -0.392 OA
HETATM   19  H   UNK N   1      14.128  -2.883  -0.038  0.00  0.00     0.210 HD
ENDBRANCH  14  18
ENDBRANCH  13  14
ENDBRANCH  11  13
BRANCH  10  20
HETATM   20  O   UNK N   1      11.572   1.957   1.283  0.00  0.00    -0.346 OA
HETATM   21  H   UNK N   1      12.199   2.475   1.749  0.00  0.00     0.219 HD
ENDBRANCH  10  20
ENDBRANCH   1  10
BRANCH   2  22
HETATM   22  C   UNK N   1       6.986   0.274  -1.052  0.00  0.00     0.256 C 
HETATM   23  N   UNK N   1       5.770  -0.018  -0.484  0.00  0.00    -0.350 N 
HETATM   24  C   UNK N   1       5.706  -0.727   0.782  0.00  0.00     0.153 C 
HETATM   25  O   UNK N   1       7.033   1.033  -2.013  0.00  0.00    -0.267 OA
BRANCH  23  26
HETATM   26  C   UNK N   1       4.549   0.472  -1.114  0.00  0.00     0.159 C 
BRANCH  26  27
HETATM   27  C   UNK N   1       3.228  -0.103  -0.576  0.00  0.00     0.159 C 
BRANCH  27  28
HETATM   28  C   UNK N   1       2.846   0.476   0.775  0.00  0.00     0.197 C 
BRANCH  28  29
HETATM   29  O   UNK N   1       1.539   0.105   1.093  0.00  0.00    -0.398 OA
HETATM   30  H   UNK N   1       0.861   0.762   1.314  0.00  0.00     0.209 HD
ENDBRANCH  28  29
ENDBRANCH  27  28
BRANCH  27  31
HETATM   31  O   UNK N   1       3.255  -1.500  -0.534  0.00  0.00    -0.392 OA
HETATM   32  H   UNK N   1       2.425  -2.001  -0.506  0.00  0.00     0.210 HD
ENDBRANCH  27  31
ENDBRANCH  26  27
ENDBRANCH  23  26
ENDBRANCH   2  22
BRANCH   6  33
HETATM   33  N   UNK N   1       9.557  -3.694   0.327  0.00  0.00    -0.337 N 
HETATM   34  C   UNK N   1      10.462  -4.468  -0.170  0.00  0.00     0.140 C 
ATOM     35  HN  UNK N   1       8.812  -4.123   0.875  1.00  0.00     0.168 HD
BRANCH  34  36
HETATM   36  C   UNK N   1      10.362  -5.939   0.060  0.00  0.00     0.251 C 
BRANCH  36  37
HETATM   37  O   UNK N   1      11.479  -6.396   0.758  0.00  0.00    -0.388 OA
HETATM   38  C   UNK N   1      12.120  -7.262  -0.128  0.00  0.00     0.202 C 
ENDBRANCH  36  37
ENDBRANCH  34  36
BRANCH  34  39
HETATM   39  O   UNK N   1      11.460  -3.976  -0.936  0.00  0.00    -0.348 OA
HETATM   40  H   UNK N   1      12.102  -4.405  -1.468  0.00  0.00     0.219 HD
ENDBRANCH  34  39
ENDBRANCH   6  33
TORSDOF 17
