REMARK  12 active torsions:
REMARK  status: ('A' for Active; 'I' for Inactive)
REMARK    1  A    between atoms: C_26  and  C_5 
REMARK    2  A    between atoms: C_27  and  C_6 
REMARK    3  A    between atoms: C_28  and  C_20 
REMARK    4  A    between atoms: C_28  and  C_21 
REMARK    5  A    between atoms: O_33  and  C_22 
REMARK    6  A    between atoms: O_34  and  C_23 
REMARK    7  A    between atoms: C_26  and  C_24 
REMARK    8  A    between atoms: O_30  and  C_24 
REMARK    9  A    between atoms: C_27  and  C_25 
REMARK   10  A    between atoms: O_32  and  C_25 
REMARK   11  A    between atoms: O_33  and  C_26 
REMARK   12  A    between atoms: O_34  and  C_27 
ROOT
HETATM    1  C   UNK N   1      -2.112  -1.193   0.870  0.00  0.00     0.000 C 
HETATM    2  C   UNK N   1      -1.277  -0.708  -0.325  0.00  0.00     0.001 C 
HETATM    3  C   UNK N   1      -2.731  -0.045   1.685  0.00  0.00     0.001 C 
HETATM    4  C   UNK N   1      -1.797   0.639  -0.817  0.00  0.00     0.019 C 
HETATM    5  C   UNK N   1      -1.803   1.171   1.681  0.00  0.00     0.019 C 
HETATM    6  C   UNK N   1      -1.608   1.747   0.252  0.00  0.00     0.014 C 
ENDROOT
BRANCH   6   7
HETATM    7  C   UNK N   1      -0.240   2.420   0.163  0.00  0.00    -0.045 A 
HETATM    8  C   UNK N   1       0.671   2.072  -0.843  0.00  0.00     0.011 A 
HETATM    9  C   UNK N   1       1.738   2.917  -1.147  0.00  0.00     0.037 A 
HETATM   10  C   UNK N   1       1.889   4.136  -0.480  0.00  0.00     0.070 A 
HETATM   11  C   UNK N   1       1.045   4.440   0.597  0.00  0.00     0.037 A 
HETATM   12  C   UNK N   1      -0.007   3.588   0.920  0.00  0.00     0.011 A 
BRANCH  10  13
HETATM   13  O   UNK N   1       2.840   5.002  -0.920  0.00  0.00    -0.330 OA
BRANCH  13  14
HETATM   14  C   UNK N   1       2.890   6.389  -0.790  0.00  0.00     0.148 C 
HETATM   15  C   UNK N   1       3.363   6.942  -2.127  0.00  0.00     0.058 C 
BRANCH  14  16
HETATM   16  C   UNK N   1       1.508   7.028  -0.494  0.00  0.00     0.045 C 
HETATM   17  C   UNK N   1       1.531   8.553  -0.437  0.00  0.00     0.009 C 
ENDBRANCH  14  16
BRANCH  14  18
HETATM   18  C   UNK N   1       3.925   6.707   0.260  0.00  0.00     0.176 C 
HETATM   19  O   UNK N   1       3.636   7.352   1.255  0.00  0.00    -0.648 OA
BRANCH  18  20
HETATM   20  O   UNK N   1       5.182   6.245   0.110  0.00  0.00    -0.774 OA
HETATM   21  H   UNK N   1       5.341   5.328   0.006  0.00  0.00     0.167 HD
ENDBRANCH  18  20
ENDBRANCH  14  18
ENDBRANCH  13  14
ENDBRANCH  10  13
ENDBRANCH   6   7
BRANCH   6  22
HETATM   22  C   UNK N   1      -2.556   2.899  -0.065  0.00  0.00    -0.045 A 
HETATM   23  C   UNK N   1      -2.422   3.570  -1.300  0.00  0.00     0.011 A 
HETATM   24  C   UNK N   1      -3.015   4.815  -1.501  0.00  0.00     0.037 A 
HETATM   25  C   UNK N   1      -3.726   5.422  -0.466  0.00  0.00     0.070 A 
HETATM   26  C   UNK N   1      -3.930   4.727   0.736  0.00  0.00     0.037 A 
HETATM   27  C   UNK N   1      -3.349   3.475   0.938  0.00  0.00     0.011 A 
BRANCH  25  28
HETATM   28  O   UNK N   1      -4.168   6.695  -0.623  0.00  0.00    -0.330 OA
BRANCH  28  29
HETATM   29  C   UNK N   1      -3.760   7.759   0.182  0.00  0.00     0.148 C 
HETATM   30  C   UNK N   1      -4.062   7.502   1.663  0.00  0.00     0.058 C 
BRANCH  29  31
HETATM   31  C   UNK N   1      -4.507   9.021  -0.246  0.00  0.00     0.045 C 
HETATM   32  C   UNK N   1      -6.017   8.873  -0.120  0.00  0.00     0.009 C 
ENDBRANCH  29  31
BRANCH  29  33
HETATM   33  C   UNK N   1      -2.278   8.013  -0.031  0.00  0.00     0.176 C 
HETATM   34  O   UNK N   1      -1.488   7.954   0.900  0.00  0.00    -0.648 OA
BRANCH  33  35
HETATM   35  O   UNK N   1      -1.821   8.306  -1.266  0.00  0.00    -0.774 OA
HETATM   36  H   UNK N   1      -1.486   8.133  -2.124  0.00  0.00     0.167 HD
ENDBRANCH  33  35
ENDBRANCH  29  33
ENDBRANCH  28  29
ENDBRANCH  25  28
ENDBRANCH   6  22
TORSDOF 12
