REMARK  5 active torsions:
REMARK  status: ('A' for Active; 'I' for Inactive)
REMARK    1  A    between atoms: C_7  and  O_1 
REMARK    2  A    between atoms: O_3  and  C_26 
REMARK    3  A    between atoms: C_7  and  C_17 
REMARK    4  A    between atoms: C_17  and  C_25 
REMARK    5  A    between atoms: C_25  and  C_26 
ROOT
HETATM    1  O   UNK N   1      -4.946  -2.839   0.730  0.00  0.00    -0.293 OA
HETATM    2  C   UNK N   1       2.512  -0.112   0.021  0.00  0.00    -0.009 C 
HETATM    3  C   UNK N   1       2.355  -1.532  -0.554  0.00  0.00     0.005 C 
HETATM    4  C   UNK N   1       4.063   0.133  -0.008  0.00  0.00     0.066 C 
HETATM    5  C   UNK N   1       0.984  -2.118  -0.184  0.00  0.00     0.018 C 
HETATM    6  C   UNK N   1      -0.173  -1.083  -0.483  0.00  0.00     0.006 C 
HETATM    7  C   UNK N   1      -1.455  -1.720  -1.088  0.00  0.00    -0.012 C 
HETATM    8  C   UNK N   1       1.622   0.801  -0.847  0.00  0.00     0.013 C 
HETATM    9  C   UNK N   1       3.614  -2.240  -0.136  0.00  0.00     0.009 C 
HETATM   10  C   UNK N   1       4.638  -1.181  -0.541  0.00  0.00     0.039 C 
HETATM   11  C   UNK N   1      -1.647  -3.110  -0.486  0.00  0.00    -0.046 C 
HETATM   12  C   UNK N   1       0.291   0.153  -1.305  0.00  0.00     0.007 C 
HETATM   13  C   UNK N   1       0.737  -3.535  -0.654  0.00  0.00    -0.021 C 
HETATM   14  C   UNK N   1       2.014   0.010   1.473  0.00  0.00     0.019 C 
HETATM   15  C   UNK N   1      -0.505  -4.041  -0.597  0.00  0.00     0.004 C 
HETATM   16  C   UNK N   1      -2.645  -0.765  -0.830  0.00  0.00     0.022 C 
HETATM   17  C   UNK N   1      -2.809  -3.513   0.050  0.00  0.00     0.058 C 
HETATM   18  C   UNK N   1      -1.297  -1.917  -2.598  0.00  0.00     0.021 C 
HETATM   19  C   UNK N   1      -3.982  -2.623   0.015  0.00  0.00     0.149 C 
HETATM   20  C   UNK N   1      -3.987  -1.470  -0.938  0.00  0.00     0.084 C 
ENDROOT
BRANCH   4  21
HETATM   21  O   UNK N   1       4.598   0.269   1.283  0.00  0.00    -0.389 OA
HETATM   22  H   UNK N   1       4.864  -0.004   2.175  0.00  0.00     0.210 HD
ENDBRANCH   4  21
BRANCH   4  23
HETATM   23  C   UNK N   1       4.512   1.331  -0.862  0.00  0.00     0.049 C 
BRANCH  23  24
HETATM   24  C   UNK N   1       4.542   2.655  -0.082  0.00  0.00     0.113 C 
BRANCH  24  25
HETATM   25  C   UNK N   1       3.188   3.193   0.258  0.00  0.00     0.139 C 
HETATM   26  O   UNK N   1       2.832   3.251   1.424  0.00  0.00    -0.650 OA
BRANCH  25  27
HETATM   27  O   UNK N   1       2.375   3.645  -0.714  0.00  0.00    -0.776 OA
HETATM   28  H   UNK N   1       2.364   4.293  -1.391  0.00  0.00     0.167 HD
ENDBRANCH  25  27
ENDBRANCH  24  25
ENDBRANCH  23  24
ENDBRANCH   4  23
TORSDOF 5
