REMARK  3 active torsions:
REMARK  status: ('A' for Active; 'I' for Inactive)
REMARK    1  A    between atoms: Ca_1  and  Ca_1 
REMARK    2  A    between atoms: C_2  and  N_3 
REMARK    3  A    between atoms: C_2  and  N_5 
ROOT
HETATM    1 Ca   UNK N   1       0.358   1.627   0.000  0.00  0.00     0.000 Ca
ENDROOT
TORSDOF 3
