REMARK  9 active torsions:
REMARK  status: ('A' for Active; 'I' for Inactive)
REMARK    1  A    between atoms: C_13  and  C_7 
REMARK    2  A    between atoms: C_14  and  C_7 
REMARK    3  A    between atoms: C_19  and  C_11 
REMARK    4  A    between atoms: O_27  and  C_11 
REMARK    5  A    between atoms: C_19  and  C_12 
REMARK    6  A    between atoms: C_23  and  C_16 
REMARK    7  A    between atoms: C_19  and  N_26 
REMARK    8  A    between atoms: O_31  and  C_20 
REMARK    9  A    between atoms: O_30  and  C_23 
ROOT
HETATM    1  C   UNK N   1       1.095   2.705  -0.084  0.00  0.00     0.028 A 
HETATM    2  C   UNK N   1       1.069  -0.036  -0.359  0.00  0.00     0.067 A 
HETATM    3  C   UNK N   1       4.684   0.694  -0.484  0.00  0.00     0.114 A 
HETATM    4  C   UNK N   1      -0.132   2.056  -0.026  0.00  0.00    -0.019 A 
HETATM    5  C   UNK N   1       2.298   2.031  -0.231  0.00  0.00     0.043 A 
HETATM    6  C   UNK N   1       4.704   2.080  -0.316  0.00  0.00     0.104 A 
HETATM    7  C   UNK N   1       2.316   0.620  -0.362  0.00  0.00     0.051 A 
HETATM    8  C   UNK N   1      -0.150   0.640  -0.182  0.00  0.00     0.077 A 
HETATM    9  C   UNK N   1       3.489   2.755  -0.209  0.00  0.00     0.202 A 
HETATM   10  N   UNK N   1       3.532  -0.048  -0.498  0.00  0.00    -0.348 N 
HETATM   11  O   UNK N   1       3.462   3.972  -0.075  0.00  0.00    -0.286 OA
ENDROOT
BRANCH   4  12
HETATM   12  C   UNK N   1      -1.372   2.878   0.284  0.00  0.00     0.083 C 
BRANCH  12  13
HETATM   13  C   UNK N   1      -1.249   4.384   0.162  0.00  0.00    -0.013 A 
HETATM   14  C   UNK N   1      -2.145   5.047  -0.684  0.00  0.00     0.011 A 
HETATM   15  C   UNK N   1      -2.070   6.432  -0.853  0.00  0.00     0.002 A 
HETATM   16  C   UNK N   1      -1.078   7.165  -0.201  0.00  0.00     0.027 A 
HETATM   17  C   UNK N   1      -0.179   6.521   0.652  0.00  0.00     0.073 A 
HETATM   18  C   UNK N   1      -0.274   5.139   0.860  0.00  0.00     0.144 A 
HETATM   19 Cl   UNK N   1       1.086   7.452   1.433  0.00  0.00    -0.081 Cl
HETATM   20  F   UNK N   1       0.593   4.544   1.719  0.00  0.00    -0.204 F 
ENDBRANCH  12  13
ENDBRANCH   4  12
BRANCH   8  21
HETATM   21  O   UNK N   1      -1.280  -0.117  -0.159  0.00  0.00    -0.355 OA
HETATM   22  C   UNK N   1      -2.571   0.350  -0.084  0.00  0.00     0.210 C 
ENDBRANCH   8  21
BRANCH  10  23
HETATM   23  C   UNK N   1       3.720  -1.531  -0.708  0.00  0.00     0.116 C 
BRANCH  23  24
HETATM   24  C   UNK N   1       2.439  -2.377  -0.607  0.00  0.00     0.190 C 
BRANCH  24  25
HETATM   25  O   UNK N   1       2.013  -2.484   0.722  0.00  0.00    -0.399 OA
HETATM   26  H   UNK N   1       1.801  -2.265   1.643  0.00  0.00     0.209 HD
ENDBRANCH  24  25
ENDBRANCH  23  24
BRANCH  23  27
HETATM   27  C   UNK N   1       4.794  -2.170   0.235  0.00  0.00     0.003 C 
HETATM   28  C   UNK N   1       4.916  -3.674   0.017  0.00  0.00     0.011 C 
HETATM   29  C   UNK N   1       6.197  -1.615   0.033  0.00  0.00     0.011 C 
ENDBRANCH  23  27
ENDBRANCH  10  23
BRANCH   6  30
HETATM   30  C   UNK N   1       6.014   2.778  -0.224  0.00  0.00     0.181 C 
HETATM   31  O   UNK N   1       6.069   3.991  -0.084  0.00  0.00    -0.646 OA
BRANCH  30  32
HETATM   32  O   UNK N   1       7.157   2.067  -0.249  0.00  0.00    -0.772 OA
HETATM   33  H   UNK N   1       7.127   1.131  -0.266  0.00  0.00     0.167 HD
ENDBRANCH  30  32
ENDBRANCH   6  30
TORSDOF 9
