REMARK  6 active torsions:
REMARK  status: ('A' for Active; 'I' for Inactive)
REMARK    1  A    between atoms: C_2  and  C_3 
REMARK       I    between atoms: C_2  and  N_21 
REMARK    2  A    between atoms: C_7  and  C_8 
REMARK    3  A    between atoms: C_11  and  O_14 
REMARK    4  A    between atoms: O_14  and  C_15 
REMARK    5  A    between atoms: N_21  and  C_22 
REMARK    6  A    between atoms: C_25  and  N_29 
ROOT
HETATM    1  O   UNK N   1       0.831  -4.621  -0.020  0.00  0.00    -0.267 OA
HETATM    2  C   UNK N   1       1.488  -3.600  -0.082  0.00  0.00     0.256 C 
HETATM    3  N   UNK N   1       2.836  -3.659   0.166  0.00  0.00    -0.322 N 
HETATM    4  H   UNK N   1       3.283  -4.534   0.235  0.00  0.00     0.169 HD
ENDROOT
BRANCH   2   5
HETATM    5  C   UNK N   1       0.798  -2.285  -0.398  0.00  0.00     0.039 A 
HETATM    6  C   UNK N   1       1.408  -1.349  -1.256  0.00  0.00     0.017 A 
HETATM    7  C   UNK N   1       0.830  -0.106  -1.501  0.00  0.00     0.002 A 
HETATM    8  C   UNK N   1      -0.398   0.208  -0.935  0.00  0.00     0.013 A 
HETATM    9  C   UNK N   1      -1.061  -0.704  -0.099  0.00  0.00    -0.019 A 
HETATM   10  C   UNK N   1      -0.439  -1.963   0.190  0.00  0.00    -0.035 A 
HETATM   11  C   UNK N   1      -1.046  -2.957   1.136  0.00  0.00     0.050 C 
BRANCH   9  12
HETATM   12  C   UNK N   1      -2.466  -0.400   0.292  0.00  0.00    -0.025 C 
HETATM   13  C   UNK N   1      -3.101   0.775  -0.160  0.00  0.00     0.015 C 
HETATM   14  C   UNK N   1      -4.501   0.849  -0.184  0.00  0.00     0.038 C 
HETATM   15  C   UNK N   1      -5.259  -0.261   0.210  0.00  0.00     0.078 C 
HETATM   16  C   UNK N   1      -4.622  -1.365   0.773  0.00  0.00     0.038 C 
HETATM   17  C   UNK N   1      -3.251  -1.425   0.814  0.00  0.00     0.015 C 
BRANCH  15  18
HETATM   18  O   UNK N   1      -6.577  -0.321  -0.088  0.00  0.00    -0.255 OA
BRANCH  18  19
HETATM   19  C   UNK N   1      -7.208  -1.533  -0.339  0.00  0.00     0.530 C 
HETATM   20  F   UNK N   1      -8.509  -1.307  -0.731  0.00  0.00    -0.144 F 
HETATM   21  F   UNK N   1      -6.547  -2.196  -1.365  0.00  0.00    -0.144 F 
HETATM   22  F   UNK N   1      -7.208  -2.335   0.791  0.00  0.00    -0.144 F 
ENDBRANCH  18  19
ENDBRANCH  15  18
ENDBRANCH   9  12
ENDBRANCH   2   5
BRANCH   3  23
HETATM   23  C   UNK N   1       3.584  -2.474   0.324  0.00  0.00     0.050 C 
HETATM   24  C   UNK N   1       4.636  -2.218  -0.552  0.00  0.00     0.035 C 
HETATM   25  C   UNK N   1       5.029  -0.901  -0.777  0.00  0.00     0.051 C 
HETATM   26  C   UNK N   1       4.304   0.136  -0.173  0.00  0.00     0.103 C 
HETATM   27  N   UNK N   1       3.360  -0.146   0.761  0.00  0.00    -0.350 N 
HETATM   28  C   UNK N   1       3.021  -1.416   1.052  0.00  0.00     0.119 C 
ATOM     29  HN  UNK N   1       2.898   0.619   1.252  1.00  0.00     0.166 HD
BRANCH  26  30
HETATM   30  N   UNK N   1       4.469   1.464  -0.599  0.00  0.00    -0.362 N 
HETATM   31  C   UNK N   1       5.777   2.016  -0.744  0.00  0.00     0.156 C 
HETATM   32  C   UNK N   1       5.905   2.987   0.421  0.00  0.00     0.136 C 
HETATM   33  O   UNK N   1       4.912   4.006   0.342  0.00  0.00    -0.378 OA
HETATM   34  C   UNK N   1       7.277   3.615   0.384  0.00  0.00     0.041 C 
HETATM   35  C   UNK N   1       3.588   3.479   0.413  0.00  0.00     0.136 C 
HETATM   36  C   UNK N   1       3.350   2.372  -0.605  0.00  0.00     0.156 C 
HETATM   37  C   UNK N   1       3.230   3.009   1.816  0.00  0.00     0.041 C 
ENDBRANCH  26  30
ENDBRANCH   3  23
TORSDOF 6
