REMARK  4 active torsions:
REMARK  status: ('A' for Active; 'I' for Inactive)
REMARK    1  A    between atoms: C_16  and  C_14 
REMARK    2  A    between atoms: C_21  and  C_14 
REMARK    3  A    between atoms: C_16  and  C_15 
REMARK    4  A    between atoms: N_22  and  C_15 
ROOT
HETATM    1  C   UNK N   1       4.362   5.963   0.698  0.00  0.00     0.001 A 
HETATM    2  C   UNK N   1      -3.365   4.926  -0.039  0.00  0.00     0.001 A 
HETATM    3  C   UNK N   1       4.209   4.751   1.368  0.00  0.00     0.001 A 
HETATM    4  C   UNK N   1      -3.046   3.579   0.090  0.00  0.00     0.001 A 
HETATM    5  C   UNK N   1       3.341   6.434  -0.128  0.00  0.00     0.007 A 
HETATM    6  C   UNK N   1      -2.349   5.875  -0.104  0.00  0.00     0.007 A 
HETATM    7  C   UNK N   1       3.044   4.004   1.197  0.00  0.00     0.008 A 
HETATM    8  C   UNK N   1      -1.710   3.182   0.159  0.00  0.00     0.008 A 
HETATM    9  C   UNK N   1       1.085   6.266  -1.123  0.00  0.00     0.043 C 
HETATM   10  C   UNK N   1      -0.005   6.594  -0.130  0.00  0.00     0.043 C 
HETATM   11  C   UNK N   1       2.172   5.688  -0.303  0.00  0.00    -0.051 A 
HETATM   12  C   UNK N   1      -1.002   5.496  -0.032  0.00  0.00    -0.051 A 
HETATM   13  C   UNK N   1       2.005   4.452   0.357  0.00  0.00    -0.043 A 
HETATM   14  C   UNK N   1      -0.660   4.118   0.116  0.00  0.00    -0.043 A 
HETATM   15  C   UNK N   1       0.777   3.567   0.143  0.00  0.00     0.053 C 
ENDROOT
BRANCH  15  16
HETATM   16  C   UNK N   1       0.889   2.200   0.855  0.00  0.00     0.020 C 
BRANCH  16  17
HETATM   17  C   UNK N   1       1.271   1.040  -0.073  0.00  0.00     0.011 C 
HETATM   18  C   UNK N   1       0.154   0.732  -1.049  0.00  0.00     0.011 C 
BRANCH  17  19
HETATM   19  C   UNK N   1       2.576   1.271  -0.834  0.00  0.00     0.275 C 
BRANCH  19  20
HETATM   20  N   UNK N   1       3.727   1.209   0.055  0.00  0.00     0.080 N 
HETATM   21  C   UNK N   1       4.833   1.838  -0.644  0.00  0.00     0.309 C 
HETATM   22  C   UNK N   1       4.086  -0.189   0.225  0.00  0.00     0.309 C 
ENDBRANCH  19  20
ENDBRANCH  17  19
ENDBRANCH  16  17
ENDBRANCH  15  16
TORSDOF 4
