REMARK  18 active torsions:
REMARK  status: ('A' for Active; 'I' for Inactive)
REMARK    1  A    between atoms: C_9  and  C_1 
REMARK       I    between atoms: C_1  and  N_2 
REMARK    2  A    between atoms: N_2  and  C_4 
REMARK    3  A    between atoms: C_4  and  C_5 
REMARK    4  A    between atoms: C_5  and  O_8 
REMARK    5  A    between atoms: C_5  and  C_6 
REMARK    6  A    between atoms: C_6  and  O_7 
REMARK    7  A    between atoms: C_11  and  N_26 
REMARK    8  A    between atoms: C_13  and  C_18 
REMARK       I    between atoms: C_18  and  N_19 
REMARK    9  A    between atoms: N_19  and  C_20 
REMARK   10  A    between atoms: C_20  and  C_21 
REMARK   11  A    between atoms: C_21  and  O_25 
REMARK   12  A    between atoms: C_21  and  C_22 
REMARK   13  A    between atoms: C_22  and  O_23 
REMARK   14  A    between atoms: N_26  and  C_27 
REMARK       I    between atoms: N_26  and  C_29 
REMARK   15  A    between atoms: C_27  and  C_28 
REMARK   16  A    between atoms: C_28  and  O_32 
REMARK   17  A    between atoms: C_29  and  C_31 
REMARK   18  A    between atoms: C_31  and  O_33 
ROOT
HETATM    1  C   UNK N   1       0.677   0.853   0.429  0.00  0.00     0.068 C 
HETATM    2  C   UNK N   1       1.836   0.050   0.517  0.00  0.00     0.051 C 
HETATM    3  C   UNK N   1       1.814  -1.358   0.180  0.00  0.00     0.072 C 
HETATM    4  C   UNK N   1       0.489  -1.955   0.077  0.00  0.00     0.051 C 
HETATM    5  C   UNK N   1      -0.677  -1.125  -0.050  0.00  0.00     0.068 C 
HETATM    6  C   UNK N   1      -0.556   0.284   0.078  0.00  0.00     0.040 C 
HETATM    7  I   UNK N   1       0.046  -4.059   0.541  0.00  0.00    -0.041 I 
HETATM    8  I   UNK N   1      -2.220   1.645  -0.246  0.00  0.00    -0.042 I 
HETATM    9  I   UNK N   1       3.512   0.972   1.568  0.00  0.00    -0.041 I 
ENDROOT
BRANCH   1  10
HETATM   10  C   UNK N   1       0.739   2.325   0.735  0.00  0.00     0.254 C 
HETATM   11  N   UNK N   1       1.579   3.180   0.088  0.00  0.00    -0.354 N 
HETATM   12  H   UNK N   1       1.608   4.116   0.391  0.00  0.00     0.162 HD
HETATM   13  O   UNK N   1      -0.035   2.788   1.560  0.00  0.00    -0.268 OA
BRANCH  11  14
HETATM   14  C   UNK N   1       2.429   2.797  -1.015  0.00  0.00     0.156 C 
BRANCH  14  15
HETATM   15  C   UNK N   1       3.870   3.166  -0.710  0.00  0.00     0.159 C 
BRANCH  15  16
HETATM   16  O   UNK N   1       4.055   4.549  -0.741  0.00  0.00    -0.392 OA
HETATM   17  H   UNK N   1       4.952   4.918  -0.763  0.00  0.00     0.210 HD
ENDBRANCH  15  16
BRANCH  15  18
HETATM   18  C   UNK N   1       4.808   2.473  -1.675  0.00  0.00     0.197 C 
BRANCH  18  19
HETATM   19  O   UNK N   1       6.083   2.406  -1.116  0.00  0.00    -0.398 OA
HETATM   20  H   UNK N   1       6.486   1.614  -0.726  0.00  0.00     0.209 HD
ENDBRANCH  18  19
ENDBRANCH  15  18
ENDBRANCH  14  15
ENDBRANCH  11  14
ENDBRANCH   1  10
BRANCH   5  21
HETATM   21  C   UNK N   1      -2.027  -1.747  -0.340  0.00  0.00     0.254 C 
HETATM   22  N   UNK N   1      -3.172  -1.120   0.008  0.00  0.00    -0.354 N 
HETATM   23  H   UNK N   1      -3.112  -0.255   0.475  0.00  0.00     0.162 HD
HETATM   24  O   UNK N   1      -2.098  -2.818  -0.927  0.00  0.00    -0.268 OA
BRANCH  22  25
HETATM   25  C   UNK N   1      -4.474  -1.663  -0.275  0.00  0.00     0.156 C 
BRANCH  25  26
HETATM   26  C   UNK N   1      -5.522  -0.726   0.293  0.00  0.00     0.159 C 
BRANCH  26  27
HETATM   27  O   UNK N   1      -6.258  -0.142  -0.739  0.00  0.00    -0.392 OA
HETATM   28  H   UNK N   1      -6.162   0.504  -1.456  0.00  0.00     0.210 HD
ENDBRANCH  26  27
BRANCH  26  29
HETATM   29  C   UNK N   1      -6.440  -1.459   1.258  0.00  0.00     0.197 C 
BRANCH  29  30
HETATM   30  O   UNK N   1      -7.172  -2.444   0.592  0.00  0.00    -0.398 OA
HETATM   31  H   UNK N   1      -8.019  -2.345   0.130  0.00  0.00     0.209 HD
ENDBRANCH  29  30
ENDBRANCH  26  29
ENDBRANCH  25  26
ENDBRANCH  22  25
ENDBRANCH   5  21
BRANCH   3  32
HETATM   32  N   UNK N   1       3.109  -2.073  -0.036  0.00  0.00    -0.312 N 
HETATM   33  C   UNK N   1       3.261  -3.368  -0.512  0.00  0.00     0.247 C 
HETATM   34  O   UNK N   1       2.332  -4.013  -0.917  0.00  0.00    -0.271 OA
BRANCH  32  35
HETATM   35  C   UNK N   1       4.288  -1.242  -0.247  0.00  0.00     0.158 C 
BRANCH  35  36
HETATM   36  C   UNK N   1       5.508  -1.545   0.602  0.00  0.00     0.184 C 
BRANCH  36  37
HETATM   37  O   UNK N   1       6.615  -0.961  -0.016  0.00  0.00    -0.399 OA
HETATM   38  H   UNK N   1       7.351  -1.425  -0.446  0.00  0.00     0.209 HD
ENDBRANCH  36  37
ENDBRANCH  35  36
ENDBRANCH  32  35
BRANCH  33  39
HETATM   39  C   UNK N   1       4.620  -3.991  -0.712  0.00  0.00     0.267 C 
BRANCH  39  40
HETATM   40  O   UNK N   1       5.155  -4.366   0.522  0.00  0.00    -0.392 OA
HETATM   41  H   UNK N   1       5.116  -4.819   1.379  0.00  0.00     0.210 HD
ENDBRANCH  39  40
ENDBRANCH  33  39
ENDBRANCH   3  32
TORSDOF 18
