REMARK  6 active torsions:
REMARK  status: ('A' for Active; 'I' for Inactive)
REMARK    1  A    between atoms: C_16  and  C_15 
REMARK    2  A    between atoms: N_22  and  C_15 
REMARK    3  A    between atoms: O_23  and  C_16 
REMARK    4  A    between atoms: C_20  and  C_17 
REMARK    5  A    between atoms: C_20  and  C_18 
REMARK    6  A    between atoms: O_23  and  C_20 
ROOT
HETATM    1  C   UNK N   1       0.052   2.579   0.339  0.00  0.00     0.187 C 
ENDROOT
BRANCH   1   2
HETATM    2  C   UNK N   1       0.099   1.073   0.117  0.00  0.00    -0.025 A 
HETATM    3  C   UNK N   1       1.251   0.398  -0.309  0.00  0.00     0.010 A 
HETATM    4  C   UNK N   1       1.246  -0.991  -0.473  0.00  0.00     0.001 A 
HETATM    5  C   UNK N   1       0.083  -1.719  -0.214  0.00  0.00     0.000 A 
HETATM    6  C   UNK N   1      -1.071  -1.059   0.211  0.00  0.00     0.001 A 
HETATM    7  C   UNK N   1      -1.062   0.329   0.380  0.00  0.00     0.010 A 
ENDBRANCH   1   2
BRANCH   1   8
HETATM    8  C   UNK N   1       1.305   3.430   0.163  0.00  0.00    -0.025 A 
HETATM    9  C   UNK N   1       2.518   2.919  -0.317  0.00  0.00     0.012 A 
HETATM   10  C   UNK N   1       3.643   3.743  -0.439  0.00  0.00     0.024 A 
HETATM   11  C   UNK N   1       3.560   5.090  -0.082  0.00  0.00     0.034 A 
HETATM   12  C   UNK N   1       2.357   5.613   0.393  0.00  0.00     0.024 A 
HETATM   13 Cl   UNK N   1       4.967   6.121  -0.227  0.00  0.00    -0.084 Cl
HETATM   14  C   UNK N   1       1.235   4.787   0.518  0.00  0.00     0.012 A 
ENDBRANCH   1   8
BRANCH   1  15
HETATM   15  O   UNK N   1      -1.021   3.143  -0.361  0.00  0.00    -0.375 OA
BRANCH  15  16
HETATM   16  C   UNK N   1      -1.825   3.688   0.646  0.00  0.00     0.199 C 
BRANCH  16  17
HETATM   17  C   UNK N   1      -3.232   4.009   0.148  0.00  0.00     0.298 C 
BRANCH  17  18
HETATM   18  N   UNK N   1      -3.985   2.827  -0.267  0.00  0.00     0.090 N 
HETATM   19  C   UNK N   1      -4.047   1.865   0.839  0.00  0.00     0.272 C 
HETATM   20  C   UNK N   1      -4.837   0.631   0.412  0.00  0.00     0.030 C 
HETATM   21  C   UNK N   1      -6.259   1.051   0.063  0.00  0.00     0.003 C 
HETATM   22  C   UNK N   1      -6.236   2.144  -1.000  0.00  0.00     0.030 C 
HETATM   23  C   UNK N   1      -5.345   3.298  -0.541  0.00  0.00     0.272 C 
ENDBRANCH  17  18
ENDBRANCH  16  17
ENDBRANCH  15  16
ENDBRANCH   1  15
TORSDOF 6
