REMARK  5 active torsions:
REMARK  status: ('A' for Active; 'I' for Inactive)
REMARK    1  A    between atoms: C_2  and  C_3 
REMARK       I    between atoms: C_3  and  N_5 
REMARK    2  A    between atoms: N_5  and  S_6 
REMARK    3  A    between atoms: S_6  and  C_9 
REMARK    4  A    between atoms: C_12  and  C_15 
REMARK    5  A    between atoms: C_17  and  C_21 
ROOT
HETATM    1  C   UNK N   1      -0.291   2.364   0.022  0.00  0.00     0.080 A 
HETATM    2  C   UNK N   1       0.991   2.859   0.264  0.00  0.00     0.026 A 
HETATM    3  C   UNK N   1       2.082   1.991   0.312  0.00  0.00     0.014 A 
HETATM    4  C   UNK N   1       1.919   0.609   0.118  0.00  0.00    -0.021 A 
HETATM    5  C   UNK N   1       0.624   0.127  -0.113  0.00  0.00     0.014 A 
HETATM    6  C   UNK N   1      -0.476   0.994  -0.167  0.00  0.00     0.026 A 
ENDROOT
BRANCH   4   7
HETATM    7  C   UNK N   1       3.129  -0.283   0.072  0.00  0.00     0.035 A 
HETATM    8  C   UNK N   1       4.448   0.175   0.036  0.00  0.00     0.086 A 
HETATM    9  O   UNK N   1       5.251  -0.854  -0.053  0.00  0.00    -0.241 OA
HETATM   10  C   UNK N   1       4.942   1.581   0.052  0.00  0.00     0.079 C 
HETATM   11  N   UNK N   1       4.589  -1.969  -0.073  0.00  0.00    -0.259 N 
HETATM   12  C   UNK N   1       3.270  -1.685   0.008  0.00  0.00     0.078 A 
ATOM     13  HN  UNK N   1       4.996  -2.902  -0.138  1.00  0.00     0.195 HD
BRANCH  12  14
HETATM   14  C   UNK N   1       2.275  -2.793   0.042  0.00  0.00    -0.007 A 
HETATM   15  C   UNK N   1       2.727  -4.108  -0.163  0.00  0.00     0.014 A 
HETATM   16  C   UNK N   1       1.838  -5.186  -0.115  0.00  0.00     0.001 A 
HETATM   17  C   UNK N   1       0.487  -4.963   0.150  0.00  0.00     0.000 A 
HETATM   18  C   UNK N   1       0.027  -3.664   0.368  0.00  0.00     0.001 A 
HETATM   19  C   UNK N   1       0.919  -2.589   0.316  0.00  0.00     0.014 A 
ENDBRANCH  12  14
ENDBRANCH   4   7
BRANCH   1  20
HETATM   20  S   UNK N   1      -1.640   3.524  -0.211  0.00  0.00     0.265 S 
HETATM   21  O   UNK N   1      -1.728   3.966  -1.680  0.00  0.00    -0.200 OA
HETATM   22  O   UNK N   1      -1.324   4.868   0.462  0.00  0.00    -0.200 OA
BRANCH  20  23
HETATM   23  N   UNK N   1      -3.308   3.212   0.250  0.00  0.00    -0.250 N 
HETATM   24  C   UNK N   1      -4.009   2.134  -0.169  0.00  0.00     0.230 C 
HETATM   25  O   UNK N   1      -3.473   1.259  -0.832  0.00  0.00    -0.273 OA
HETATM   26  H   UNK N   1      -3.756   3.857   0.844  0.00  0.00     0.181 HD
BRANCH  24  27
HETATM   27  C   UNK N   1      -5.470   2.052   0.139  0.00  0.00     0.099 C 
HETATM   28  C   UNK N   1      -5.789   0.850   1.002  0.00  0.00     0.014 C 
ENDBRANCH  24  27
ENDBRANCH  20  23
ENDBRANCH   1  20
TORSDOF 5
