REMARK  3 active torsions:
REMARK  status: ('A' for Active; 'I' for Inactive)
REMARK    1  A    between atoms: C_2  and  C_3 
REMARK    2  A    between atoms: C_2  and  O_4 
REMARK    3  A    between atoms: C_3  and  O_6 
ROOT
HETATM    1  C   UNK N   1       0.302   2.600   0.000  0.00  0.00     0.050 C 
HETATM    2  C   UNK N   1       1.273   1.435  -0.000  0.00  0.00     0.211 C 
ENDROOT
BRANCH   2   3
HETATM    3  C   UNK N   1       0.848  -0.002   0.000  0.00  0.00     0.169 C 
HETATM    4  O   UNK N   1       1.687  -0.885  -0.000  0.00  0.00    -0.648 OA
BRANCH   3   5
HETATM    5  O   UNK N   1      -0.461  -0.323   0.000  0.00  0.00    -0.774 OA
HETATM    6  H   UNK N   1      -1.110   0.353   0.001  0.00  0.00     0.167 HD
ENDBRANCH   3   5
ENDBRANCH   2   3
BRANCH   2   7
HETATM    7  O   UNK N   1       2.638   1.719  -0.000  0.00  0.00    -0.385 OA
HETATM    8  H   UNK N   1       3.284   0.995  -0.000  0.00  0.00     0.210 HD
ENDBRANCH   2   7
TORSDOF 3
