REMARK  6 active torsions:
REMARK  status: ('A' for Active; 'I' for Inactive)
REMARK    1  A    between atoms: C_7  and  C_10 
REMARK    2  A    between atoms: C_10  and  O_12 
REMARK    3  A    between atoms: O_12  and  C_13 
REMARK    4  A    between atoms: C_15  and  N_16 
REMARK    5  A    between atoms: C_20  and  C_21 
REMARK    6  A    between atoms: N_24  and  C_27 
ROOT
HETATM    1  C   UNK N   1      -1.072   2.060   0.801  0.00  0.00     0.114 A 
HETATM    2  C   UNK N   1      -0.809   0.714   0.631  0.00  0.00     0.054 A 
HETATM    3  C   UNK N   1      -2.402   2.505   0.814  0.00  0.00     0.132 A 
HETATM    4  N   UNK N   1      -3.415   1.607   0.652  0.00  0.00    -0.350 N 
ATOM      5  HN  UNK N   1      -4.381   1.934   0.682  1.00  0.00     0.166 HD
HETATM    6  C   UNK N   1      -3.164   0.282   0.452  0.00  0.00     0.102 A 
HETATM    7  C   UNK N   1      -1.844  -0.187   0.443  0.00  0.00    -0.005 A 
ENDROOT
BRANCH   7   8
HETATM    8  C   UNK N   1      -1.508  -1.571   0.104  0.00  0.00     0.009 A 
HETATM    9  C   UNK N   1      -0.229  -2.095   0.032  0.00  0.00     0.121 A 
HETATM   10  N   UNK N   1      -0.327  -3.351  -0.435  0.00  0.00    -0.309 N 
HETATM   11  N   UNK N   1      -1.601  -3.620  -0.655  0.00  0.00    -0.298 N 
ATOM     12  HN  UNK N   1       0.452  -3.990  -0.594  1.00  0.00     0.186 HD
HETATM   13  C   UNK N   1      -2.364  -2.554  -0.337  0.00  0.00     0.124 A 
BRANCH  11  14
HETATM   14  C   UNK N   1      -2.052  -4.875  -1.254  0.00  0.00     0.110 C 
HETATM   15  C   UNK N   1      -1.536  -6.080  -0.453  0.00  0.00     0.046 C 
HETATM   16  C   UNK N   1      -2.644  -6.917   0.173  0.00  0.00     0.115 C 
HETATM   17  N   UNK N   1      -3.724  -6.049   0.617  0.00  0.00    -0.421 N 
HETATM   18  C   UNK N   1      -4.454  -5.622  -0.572  0.00  0.00     0.115 C 
HETATM   19  H   UNK N   1      -3.933  -5.788   1.580  0.00  0.00     0.153 HD
HETATM   20  C   UNK N   1      -3.560  -4.889  -1.585  0.00  0.00     0.046 C 
ENDBRANCH  11  14
ENDBRANCH   7   8
BRANCH   1  21
HETATM   21  O   UNK N   1      -0.034   2.916   0.875  0.00  0.00    -0.338 OA
BRANCH  21  22
HETATM   22  C   UNK N   1       0.533   3.495  -0.252  0.00  0.00     0.161 C 
HETATM   23  C   UNK N   1       0.362   2.667  -1.533  0.00  0.00     0.045 C 
BRANCH  22  24
HETATM   24  C   UNK N   1       2.007   3.760  -0.001  0.00  0.00     0.017 A 
HETATM   25  C   UNK N   1       2.484   5.092   0.088  0.00  0.00     0.044 A 
HETATM   26 Cl   UNK N   1       1.421   6.490  -0.046  0.00  0.00    -0.084 Cl
HETATM   27  C   UNK N   1       3.838   5.337   0.310  0.00  0.00     0.028 A 
HETATM   28  C   UNK N   1       4.738   4.285   0.440  0.00  0.00     0.046 A 
HETATM   29  C   UNK N   1       4.294   2.968   0.361  0.00  0.00     0.138 A 
HETATM   30  F   UNK N   1       5.190   1.958   0.487  0.00  0.00    -0.204 F 
HETATM   31  C   UNK N   1       2.936   2.690   0.148  0.00  0.00     0.083 A 
HETATM   32 Cl   UNK N   1       2.447   0.997   0.061  0.00  0.00    -0.080 Cl
ENDBRANCH  22  24
ENDBRANCH  21  22
ENDBRANCH   1  21
BRANCH   3  33
HETATM   33  N   UNK N   1      -2.697   3.877   0.959  0.00  0.00    -0.383 N 
HETATM   34  H   UNK N   1      -1.971   4.534   1.060  0.00  0.00     0.157 HD
HETATM   35  H   UNK N   1      -3.634   4.179   0.959  0.00  0.00     0.157 HD
ENDBRANCH   3  33
TORSDOF 6
