MODEL 1
REMARK VINA RESULT:      -6.7      0.000      0.000
REMARK  12 active torsions:
REMARK  status: ('A' for Active; 'I' for Inactive)
REMARK    1  A    between atoms: C_2  and  C_3 
REMARK    2  A    between atoms: C_3  and  N_4 
REMARK       I    between atoms: N_4  and  C_5 
REMARK    3  A    between atoms: C_5  and  C_7 
REMARK    4  A    between atoms: C_7  and  C_8 
REMARK    5  A    between atoms: C_7  and  O_9 
REMARK    6  A    between atoms: C_8  and  C_10 
REMARK       I    between atoms: C_10  and  N_12 
REMARK    7  A    between atoms: C_13  and  N_12 
REMARK    8  A    between atoms: C_13  and  C_14 
REMARK    9  A    between atoms: C_13  and  C_18 
REMARK   10  A    between atoms: C_14  and  C_16 
REMARK       I    between atoms: C_18  and  N_20 
REMARK   11  A    between atoms: C_24  and  C_25 
REMARK   12  A    between atoms: C_25  and  O_27 
ROOT
HETATM    1  C   UNK N   1      32.307  15.618   7.122  0.00  0.00     0.180 C 
ENDROOT
BRANCH   1   2
HETATM    2  N   UNK N   1      33.391  15.234   8.034  0.00  0.00    -0.347 N 
HETATM    3  C   UNK N   1      33.449  14.051   8.716  0.00  0.00     0.221 C 
HETATM    4  O   UNK N   1      32.589  13.199   8.557  0.00  0.00    -0.273 OA
HETATM    5  H   UNK N   1      34.129  15.873   8.162  0.00  0.00     0.163 HD
BRANCH   3   6
HETATM    6  C   UNK N   1      34.566  13.746   9.674  0.00  0.00     0.144 C 
BRANCH   6   7
HETATM    7  C   UNK N   1      34.543  14.466  11.022  0.00  0.00     0.218 C 
BRANCH   7   8
HETATM    8  C   UNK N   1      34.828  13.452  12.093  0.00  0.00     0.246 C 
HETATM    9  N   UNK N   1      34.837  12.130  11.783  0.00  0.00    -0.359 N 
HETATM   10  H   UNK N   1      34.622  11.853  10.863  0.00  0.00     0.162 HD
HETATM   11  O   UNK N   1      35.062  13.822  13.234  0.00  0.00    -0.271 OA
BRANCH   9  12
HETATM   12  C   UNK N   1      35.152  11.122  12.763  0.00  0.00     0.122 C 
BRANCH  12  13
HETATM   13  C   UNK N   1      33.888  10.424  13.212  0.00  0.00     0.015 C 
HETATM   14  C   UNK N   1      33.620  10.771  14.661  0.00  0.00     0.006 C 
ENDBRANCH  12  13
ENDBRANCH   9  12
ENDBRANCH   7   8
BRANCH   7  15
HETATM   15  O   UNK N   1      33.287  15.022  11.256  0.00  0.00    -0.386 OA
HETATM   16  H   UNK N   1      33.172  15.967  11.437  0.00  0.00     0.210 HD
ENDBRANCH   7  15
ENDBRANCH   6   7
ENDBRANCH   3   6
ENDBRANCH   1   2
BRANCH   1  17
HETATM   17  C   UNK N   1      32.921  15.954   5.710  0.00  0.00     0.013 C 
HETATM   18  C   UNK N   1      34.389  15.628   5.554  0.00  0.00     0.012 C 
BRANCH  17  19
HETATM   19  C   UNK N   1      32.816  17.443   5.376  0.00  0.00     0.002 C 
HETATM   20  C   UNK N   1      32.179  17.718   4.031  0.00  0.00     0.005 C 
ENDBRANCH  17  19
ENDBRANCH   1  17
BRANCH   1  21
HETATM   21  C   UNK N   1      31.436  16.741   7.733  0.00  0.00     0.243 C 
HETATM   22  O   UNK N   1      31.905  17.439   8.620  0.00  0.00    -0.271 OA
HETATM   23  N   UNK N   1      30.142  16.967   7.322  0.00  0.00    -0.336 N 
HETATM   24  C   UNK N   1      29.465  16.139   6.367  0.00  0.00     0.127 C 
HETATM   25  C   UNK N   1      29.349  18.082   7.798  0.00  0.00     0.185 C 
HETATM   26  C   UNK N   1      28.216  16.905   5.978  0.00  0.00     0.022 C 
HETATM   27  C   UNK N   1      28.053  18.017   7.005  0.00  0.00     0.038 C 
BRANCH  25  28
HETATM   28  C   UNK N   1      29.021  18.003   9.268  0.00  0.00     0.163 C 
HETATM   29  O   UNK N   1      28.046  17.366   9.635  0.00  0.00    -0.648 OA
BRANCH  28  30
HETATM   30  O   UNK N   1      29.802  18.605  10.186  0.00  0.00    -0.775 OA
HETATM   31  H   UNK N   1      30.709  18.816  10.293  0.00  0.00     0.167 HD
ENDBRANCH  28  30
ENDBRANCH  25  28
ENDBRANCH   1  21
TORSDOF 12
ENDMDL
MODEL 2
REMARK VINA RESULT:      -6.3      2.516      4.736
REMARK  12 active torsions:
REMARK  status: ('A' for Active; 'I' for Inactive)
REMARK    1  A    between atoms: C_2  and  C_3 
REMARK    2  A    between atoms: C_3  and  N_4 
REMARK       I    between atoms: N_4  and  C_5 
REMARK    3  A    between atoms: C_5  and  C_7 
REMARK    4  A    between atoms: C_7  and  C_8 
REMARK    5  A    between atoms: C_7  and  O_9 
REMARK    6  A    between atoms: C_8  and  C_10 
REMARK       I    between atoms: C_10  and  N_12 
REMARK    7  A    between atoms: C_13  and  N_12 
REMARK    8  A    between atoms: C_13  and  C_14 
REMARK    9  A    between atoms: C_13  and  C_18 
REMARK   10  A    between atoms: C_14  and  C_16 
REMARK       I    between atoms: C_18  and  N_20 
REMARK   11  A    between atoms: C_24  and  C_25 
REMARK   12  A    between atoms: C_25  and  O_27 
ROOT
HETATM    1  C   UNK N   1      32.367  16.823   7.813  0.00  0.00     0.180 C 
ENDROOT
BRANCH   1   2
HETATM    2  N   UNK N   1      33.239  16.612   8.974  0.00  0.00    -0.347 N 
HETATM    3  C   UNK N   1      34.369  17.334   9.238  0.00  0.00     0.221 C 
HETATM    4  O   UNK N   1      34.697  18.261   8.514  0.00  0.00    -0.273 OA
HETATM    5  H   UNK N   1      32.991  15.900   9.609  0.00  0.00     0.163 HD
BRANCH   3   6
HETATM    6  C   UNK N   1      35.243  17.028  10.421  0.00  0.00     0.144 C 
BRANCH   6   7
HETATM    7  C   UNK N   1      35.923  15.659  10.450  0.00  0.00     0.218 C 
BRANCH   7   8
HETATM    8  C   UNK N   1      35.316  14.864  11.569  0.00  0.00     0.246 C 
HETATM    9  N   UNK N   1      36.104  14.412  12.579  0.00  0.00    -0.359 N 
HETATM   10  H   UNK N   1      37.072  14.585  12.544  0.00  0.00     0.162 HD
HETATM   11  O   UNK N   1      34.115  14.637  11.572  0.00  0.00    -0.271 OA
BRANCH   9  12
HETATM   12  C   UNK N   1      35.561  13.687  13.700  0.00  0.00     0.122 C 
BRANCH  12  13
HETATM   13  C   UNK N   1      36.594  13.587  14.800  0.00  0.00     0.015 C 
HETATM   14  C   UNK N   1      37.163  12.184  14.816  0.00  0.00     0.006 C 
ENDBRANCH  12  13
ENDBRANCH   9  12
ENDBRANCH   7   8
BRANCH   7  15
HETATM   15  O   UNK N   1      37.289  15.800  10.691  0.00  0.00    -0.386 OA
HETATM   16  H   UNK N   1      37.938  15.173  10.336  0.00  0.00     0.210 HD
ENDBRANCH   7  15
ENDBRANCH   6   7
ENDBRANCH   3   6
ENDBRANCH   1   2
BRANCH   1  17
HETATM   17  C   UNK N   1      30.892  17.057   8.316  0.00  0.00     0.013 C 
HETATM   18  C   UNK N   1      29.827  16.959   7.247  0.00  0.00     0.012 C 
BRANCH  17  19
HETATM   19  C   UNK N   1      30.705  18.448   8.924  0.00  0.00     0.002 C 
HETATM   20  C   UNK N   1      29.526  18.541   9.869  0.00  0.00     0.005 C 
ENDBRANCH  17  19
ENDBRANCH   1  17
BRANCH   1  21
HETATM   21  C   UNK N   1      32.525  15.679   6.782  0.00  0.00     0.243 C 
HETATM   22  O   UNK N   1      32.466  14.521   7.168  0.00  0.00    -0.271 OA
HETATM   23  N   UNK N   1      32.748  15.926   5.447  0.00  0.00    -0.336 N 
HETATM   24  C   UNK N   1      32.939  17.243   4.911  0.00  0.00     0.127 C 
HETATM   25  C   UNK N   1      32.785  14.876   4.449  0.00  0.00     0.185 C 
HETATM   26  C   UNK N   1      32.837  17.089   3.406  0.00  0.00     0.022 C 
HETATM   27  C   UNK N   1      32.932  15.596   3.117  0.00  0.00     0.038 C 
BRANCH  25  28
HETATM   28  C   UNK N   1      33.946  13.928   4.616  0.00  0.00     0.163 C 
HETATM   29  O   UNK N   1      35.061  14.269   4.252  0.00  0.00    -0.648 OA
BRANCH  28  30
HETATM   30  O   UNK N   1      33.777  12.718   5.182  0.00  0.00    -0.775 OA
HETATM   31  H   UNK N   1      34.240  12.160   5.776  0.00  0.00     0.167 HD
ENDBRANCH  28  30
ENDBRANCH  25  28
ENDBRANCH   1  21
TORSDOF 12
ENDMDL
MODEL 3
REMARK VINA RESULT:      -6.3     14.451     18.040
REMARK  12 active torsions:
REMARK  status: ('A' for Active; 'I' for Inactive)
REMARK    1  A    between atoms: C_2  and  C_3 
REMARK    2  A    between atoms: C_3  and  N_4 
REMARK       I    between atoms: N_4  and  C_5 
REMARK    3  A    between atoms: C_5  and  C_7 
REMARK    4  A    between atoms: C_7  and  C_8 
REMARK    5  A    between atoms: C_7  and  O_9 
REMARK    6  A    between atoms: C_8  and  C_10 
REMARK       I    between atoms: C_10  and  N_12 
REMARK    7  A    between atoms: C_13  and  N_12 
REMARK    8  A    between atoms: C_13  and  C_14 
REMARK    9  A    between atoms: C_13  and  C_18 
REMARK   10  A    between atoms: C_14  and  C_16 
REMARK       I    between atoms: C_18  and  N_20 
REMARK   11  A    between atoms: C_24  and  C_25 
REMARK   12  A    between atoms: C_25  and  O_27 
ROOT
HETATM    1  C   UNK N   1      26.576  25.103  -5.334  0.00  0.00     0.180 C 
ENDROOT
BRANCH   1   2
HETATM    2  N   UNK N   1      27.180  24.202  -4.346  0.00  0.00    -0.347 N 
HETATM    3  C   UNK N   1      28.510  23.890  -4.291  0.00  0.00     0.221 C 
HETATM    4  O   UNK N   1      29.302  24.406  -5.064  0.00  0.00    -0.273 OA
HETATM    5  H   UNK N   1      26.586  23.793  -3.676  0.00  0.00     0.163 HD
BRANCH   3   6
HETATM    6  C   UNK N   1      29.051  22.918  -3.281  0.00  0.00     0.144 C 
BRANCH   6   7
HETATM    7  C   UNK N   1      30.386  23.266  -2.624  0.00  0.00     0.218 C 
BRANCH   7   8
HETATM    8  C   UNK N   1      31.417  22.297  -3.128  0.00  0.00     0.246 C 
HETATM    9  N   UNK N   1      31.531  22.068  -4.461  0.00  0.00    -0.359 N 
HETATM   10  H   UNK N   1      30.909  22.517  -5.078  0.00  0.00     0.162 HD
HETATM   11  O   UNK N   1      32.156  21.729  -2.336  0.00  0.00    -0.271 OA
BRANCH   9  12
HETATM   12  C   UNK N   1      32.535  21.185  -4.997  0.00  0.00     0.122 C 
BRANCH  12  13
HETATM   13  C   UNK N   1      31.900  20.196  -5.949  0.00  0.00     0.015 C 
HETATM   14  C   UNK N   1      30.434  20.539  -6.111  0.00  0.00     0.006 C 
ENDBRANCH  12  13
ENDBRANCH   9  12
ENDBRANCH   7   8
BRANCH   7  15
HETATM   15  O   UNK N   1      30.294  23.140  -1.238  0.00  0.00    -0.386 OA
HETATM   16  H   UNK N   1      29.441  23.167  -0.779  0.00  0.00     0.210 HD
ENDBRANCH   7  15
ENDBRANCH   6   7
ENDBRANCH   3   6
ENDBRANCH   1   2
BRANCH   1  17
HETATM   17  C   UNK N   1      25.627  26.116  -4.590  0.00  0.00     0.013 C 
HETATM   18  C   UNK N   1      24.935  27.121  -5.482  0.00  0.00     0.012 C 
BRANCH  17  19
HETATM   19  C   UNK N   1      26.380  26.963  -3.562  0.00  0.00     0.002 C 
HETATM   20  C   UNK N   1      26.036  28.435  -3.622  0.00  0.00     0.005 C 
ENDBRANCH  17  19
ENDBRANCH   1  17
BRANCH   1  21
HETATM   21  C   UNK N   1      25.902  24.306  -6.477  0.00  0.00     0.243 C 
HETATM   22  O   UNK N   1      25.253  23.308  -6.201  0.00  0.00    -0.271 OA
HETATM   23  N   UNK N   1      26.026  24.676  -7.797  0.00  0.00    -0.336 N 
HETATM   24  C   UNK N   1      26.851  25.765  -8.234  0.00  0.00     0.127 C 
HETATM   25  C   UNK N   1      25.313  24.013  -8.870  0.00  0.00     0.185 C 
HETATM   26  C   UNK N   1      26.460  26.017  -9.677  0.00  0.00     0.022 C 
HETATM   27  C   UNK N   1      25.645  24.810 -10.122  0.00  0.00     0.038 C 
BRANCH  25  28
HETATM   28  C   UNK N   1      25.738  22.582  -9.081  0.00  0.00     0.163 C 
HETATM   29  O   UNK N   1      26.870  22.339  -9.471  0.00  0.00    -0.648 OA
BRANCH  28  30
HETATM   30  O   UNK N   1      24.896  21.563  -8.823  0.00  0.00    -0.775 OA
HETATM   31  H   UNK N   1      24.871  20.807  -8.270  0.00  0.00     0.167 HD
ENDBRANCH  28  30
ENDBRANCH  25  28
ENDBRANCH   1  21
TORSDOF 12
ENDMDL
MODEL 4
REMARK VINA RESULT:      -6.1     12.071     13.966
REMARK  12 active torsions:
REMARK  status: ('A' for Active; 'I' for Inactive)
REMARK    1  A    between atoms: C_2  and  C_3 
REMARK    2  A    between atoms: C_3  and  N_4 
REMARK       I    between atoms: N_4  and  C_5 
REMARK    3  A    between atoms: C_5  and  C_7 
REMARK    4  A    between atoms: C_7  and  C_8 
REMARK    5  A    between atoms: C_7  and  O_9 
REMARK    6  A    between atoms: C_8  and  C_10 
REMARK       I    between atoms: C_10  and  N_12 
REMARK    7  A    between atoms: C_13  and  N_12 
REMARK    8  A    between atoms: C_13  and  C_14 
REMARK    9  A    between atoms: C_13  and  C_18 
REMARK   10  A    between atoms: C_14  and  C_16 
REMARK       I    between atoms: C_18  and  N_20 
REMARK   11  A    between atoms: C_24  and  C_25 
REMARK   12  A    between atoms: C_25  and  O_27 
ROOT
HETATM    1  C   UNK N   1      19.736  16.435   3.412  0.00  0.00     0.180 C 
ENDROOT
BRANCH   1   2
HETATM    2  N   UNK N   1      20.273  16.146   4.747  0.00  0.00    -0.347 N 
HETATM    3  C   UNK N   1      19.511  15.951   5.864  0.00  0.00     0.221 C 
HETATM    4  O   UNK N   1      18.292  15.960   5.795  0.00  0.00    -0.273 OA
HETATM    5  H   UNK N   1      21.252  16.088   4.844  0.00  0.00     0.163 HD
BRANCH   3   6
HETATM    6  C   UNK N   1      20.132  15.710   7.211  0.00  0.00     0.144 C 
BRANCH   6   7
HETATM    7  C   UNK N   1      20.218  16.902   8.163  0.00  0.00     0.218 C 
BRANCH   7   8
HETATM    8  C   UNK N   1      18.979  16.907   9.012  0.00  0.00     0.246 C 
HETATM    9  N   UNK N   1      18.487  18.083   9.479  0.00  0.00    -0.359 N 
HETATM   10  H   UNK N   1      18.973  18.917   9.282  0.00  0.00     0.162 HD
HETATM   11  O   UNK N   1      18.414  15.854   9.268  0.00  0.00    -0.271 OA
BRANCH   9  12
HETATM   12  C   UNK N   1      17.276  18.145  10.256  0.00  0.00     0.122 C 
BRANCH  12  13
HETATM   13  C   UNK N   1      17.346  19.297  11.234  0.00  0.00     0.015 C 
HETATM   14  C   UNK N   1      17.400  18.745  12.643  0.00  0.00     0.006 C 
ENDBRANCH  12  13
ENDBRANCH   9  12
ENDBRANCH   7   8
BRANCH   7  15
HETATM   15  O   UNK N   1      20.272  18.096   7.444  0.00  0.00    -0.386 OA
HETATM   16  H   UNK N   1      20.955  18.259   6.775  0.00  0.00     0.210 HD
ENDBRANCH   7  15
ENDBRANCH   6   7
ENDBRANCH   3   6
ENDBRANCH   1   2
BRANCH   1  17
HETATM   17  C   UNK N   1      20.407  15.463   2.369  0.00  0.00     0.013 C 
HETATM   18  C   UNK N   1      20.149  15.801   0.918  0.00  0.00     0.012 C 
BRANCH  17  19
HETATM   19  C   UNK N   1      19.919  14.022   2.526  0.00  0.00     0.002 C 
HETATM   20  C   UNK N   1      20.094  13.184   1.278  0.00  0.00     0.005 C 
ENDBRANCH  17  19
ENDBRANCH   1  17
BRANCH   1  21
HETATM   21  C   UNK N   1      19.867  17.939   3.071  0.00  0.00     0.243 C 
HETATM   22  O   UNK N   1      18.865  18.567   2.765  0.00  0.00    -0.271 OA
HETATM   23  N   UNK N   1      21.082  18.587   3.084  0.00  0.00    -0.336 N 
HETATM   24  C   UNK N   1      22.327  17.918   3.326  0.00  0.00     0.127 C 
HETATM   25  C   UNK N   1      21.212  20.015   2.881  0.00  0.00     0.185 C 
HETATM   26  C   UNK N   1      23.342  19.021   3.560  0.00  0.00     0.022 C 
HETATM   27  C   UNK N   1      22.688  20.315   3.096  0.00  0.00     0.038 C 
BRANCH  25  28
HETATM   28  C   UNK N   1      20.825  20.463   1.494  0.00  0.00     0.163 C 
HETATM   29  O   UNK N   1      20.738  21.656   1.247  0.00  0.00    -0.648 OA
BRANCH  28  30
HETATM   30  O   UNK N   1      20.597  19.567   0.514  0.00  0.00    -0.775 OA
HETATM   31  H   UNK N   1      19.972  19.434  -0.171  0.00  0.00     0.167 HD
ENDBRANCH  28  30
ENDBRANCH  25  28
ENDBRANCH   1  21
TORSDOF 12
ENDMDL
MODEL 5
REMARK VINA RESULT:      -6.0      3.567      8.586
REMARK  12 active torsions:
REMARK  status: ('A' for Active; 'I' for Inactive)
REMARK    1  A    between atoms: C_2  and  C_3 
REMARK    2  A    between atoms: C_3  and  N_4 
REMARK       I    between atoms: N_4  and  C_5 
REMARK    3  A    between atoms: C_5  and  C_7 
REMARK    4  A    between atoms: C_7  and  C_8 
REMARK    5  A    between atoms: C_7  and  O_9 
REMARK    6  A    between atoms: C_8  and  C_10 
REMARK       I    between atoms: C_10  and  N_12 
REMARK    7  A    between atoms: C_13  and  N_12 
REMARK    8  A    between atoms: C_13  and  C_14 
REMARK    9  A    between atoms: C_13  and  C_18 
REMARK   10  A    between atoms: C_14  and  C_16 
REMARK       I    between atoms: C_18  and  N_20 
REMARK   11  A    between atoms: C_24  and  C_25 
REMARK   12  A    between atoms: C_25  and  O_27 
ROOT
HETATM    1  C   UNK N   1      30.223  16.934   7.672  0.00  0.00     0.180 C 
ENDROOT
BRANCH   1   2
HETATM    2  N   UNK N   1      30.049  17.160   6.233  0.00  0.00    -0.347 N 
HETATM    3  C   UNK N   1      29.872  16.170   5.307  0.00  0.00     0.221 C 
HETATM    4  O   UNK N   1      29.799  15.002   5.653  0.00  0.00    -0.273 OA
HETATM    5  H   UNK N   1      30.060  18.091   5.912  0.00  0.00     0.163 HD
BRANCH   3   6
HETATM    6  C   UNK N   1      29.752  16.474   3.840  0.00  0.00     0.144 C 
BRANCH   6   7
HETATM    7  C   UNK N   1      28.353  16.414   3.228  0.00  0.00     0.218 C 
BRANCH   7   8
HETATM    8  C   UNK N   1      27.526  17.497   3.857  0.00  0.00     0.246 C 
HETATM    9  N   UNK N   1      27.915  18.793   3.747  0.00  0.00    -0.359 N 
HETATM   10  H   UNK N   1      28.758  19.001   3.282  0.00  0.00     0.162 HD
HETATM   11  O   UNK N   1      26.499  17.208   4.456  0.00  0.00    -0.271 OA
BRANCH   9  12
HETATM   12  C   UNK N   1      27.131  19.872   4.291  0.00  0.00     0.122 C 
BRANCH  12  13
HETATM   13  C   UNK N   1      26.346  20.548   3.188  0.00  0.00     0.015 C 
HETATM   14  C   UNK N   1      24.878  20.220   3.356  0.00  0.00     0.006 C 
ENDBRANCH  12  13
ENDBRANCH   9  12
ENDBRANCH   7   8
BRANCH   7  15
HETATM   15  O   UNK N   1      27.757  15.182   3.497  0.00  0.00    -0.386 OA
HETATM   16  H   UNK N   1      27.559  14.897   4.402  0.00  0.00     0.210 HD
ENDBRANCH   7  15
ENDBRANCH   6   7
ENDBRANCH   3   6
ENDBRANCH   1   2
BRANCH   1  17
HETATM   17  C   UNK N   1      28.943  17.451   8.430  0.00  0.00     0.013 C 
HETATM   18  C   UNK N   1      28.364  18.744   7.903  0.00  0.00     0.012 C 
BRANCH  17  19
HETATM   19  C   UNK N   1      29.219  17.724   9.910  0.00  0.00     0.002 C 
HETATM   20  C   UNK N   1      29.149  16.486  10.777  0.00  0.00     0.005 C 
ENDBRANCH  17  19
ENDBRANCH   1  17
BRANCH   1  21
HETATM   21  C   UNK N   1      31.559  17.534   8.174  0.00  0.00     0.243 C 
HETATM   22  O   UNK N   1      31.646  18.743   8.324  0.00  0.00    -0.271 OA
HETATM   23  N   UNK N   1      32.658  16.749   8.438  0.00  0.00    -0.336 N 
HETATM   24  C   UNK N   1      32.693  15.336   8.193  0.00  0.00     0.127 C 
HETATM   25  C   UNK N   1      33.879  17.274   9.015  0.00  0.00     0.185 C 
HETATM   26  C   UNK N   1      33.936  14.831   8.900  0.00  0.00     0.022 C 
HETATM   27  C   UNK N   1      34.766  16.060   9.245  0.00  0.00     0.038 C 
BRANCH  25  28
HETATM   28  C   UNK N   1      34.605  18.239   8.112  0.00  0.00     0.163 C 
HETATM   29  O   UNK N   1      35.301  19.116   8.600  0.00  0.00    -0.648 OA
BRANCH  28  30
HETATM   30  O   UNK N   1      34.516  18.134   6.772  0.00  0.00    -0.775 OA
HETATM   31  H   UNK N   1      34.498  17.452   6.130  0.00  0.00     0.167 HD
ENDBRANCH  28  30
ENDBRANCH  25  28
ENDBRANCH   1  21
TORSDOF 12
ENDMDL
MODEL 6
REMARK VINA RESULT:      -6.0     14.216     17.609
REMARK  12 active torsions:
REMARK  status: ('A' for Active; 'I' for Inactive)
REMARK    1  A    between atoms: C_2  and  C_3 
REMARK    2  A    between atoms: C_3  and  N_4 
REMARK       I    between atoms: N_4  and  C_5 
REMARK    3  A    between atoms: C_5  and  C_7 
REMARK    4  A    between atoms: C_7  and  C_8 
REMARK    5  A    between atoms: C_7  and  O_9 
REMARK    6  A    between atoms: C_8  and  C_10 
REMARK       I    between atoms: C_10  and  N_12 
REMARK    7  A    between atoms: C_13  and  N_12 
REMARK    8  A    between atoms: C_13  and  C_14 
REMARK    9  A    between atoms: C_13  and  C_18 
REMARK   10  A    between atoms: C_14  and  C_16 
REMARK       I    between atoms: C_18  and  N_20 
REMARK   11  A    between atoms: C_24  and  C_25 
REMARK   12  A    between atoms: C_25  and  O_27 
ROOT
HETATM    1  C   UNK N   1      27.447  24.907  -5.751  0.00  0.00     0.180 C 
ENDROOT
BRANCH   1   2
HETATM    2  N   UNK N   1      27.954  24.111  -4.627  0.00  0.00    -0.347 N 
HETATM    3  C   UNK N   1      29.091  23.353  -4.663  0.00  0.00     0.221 C 
HETATM    4  O   UNK N   1      29.797  23.339  -5.660  0.00  0.00    -0.273 OA
HETATM    5  H   UNK N   1      27.439  24.124  -3.788  0.00  0.00     0.163 HD
BRANCH   3   6
HETATM    6  C   UNK N   1      29.523  22.521  -3.489  0.00  0.00     0.144 C 
BRANCH   6   7
HETATM    7  C   UNK N   1      30.742  23.003  -2.703  0.00  0.00     0.218 C 
BRANCH   7   8
HETATM    8  C   UNK N   1      31.876  22.061  -2.985  0.00  0.00     0.246 C 
HETATM    9  N   UNK N   1      32.237  21.804  -4.269  0.00  0.00    -0.359 N 
HETATM   10  H   UNK N   1      31.723  22.216  -5.000  0.00  0.00     0.162 HD
HETATM   11  O   UNK N   1      32.478  21.538  -2.057  0.00  0.00    -0.271 OA
BRANCH   9  12
HETATM   12  C   UNK N   1      33.348  20.946  -4.589  0.00  0.00     0.122 C 
BRANCH  12  13
HETATM   13  C   UNK N   1      34.585  21.777  -4.851  0.00  0.00     0.015 C 
HETATM   14  C   UNK N   1      35.754  21.173  -4.102  0.00  0.00     0.006 C 
ENDBRANCH  12  13
ENDBRANCH   9  12
ENDBRANCH   7   8
BRANCH   7  15
HETATM   15  O   UNK N   1      30.476  22.987  -1.335  0.00  0.00    -0.386 OA
HETATM   16  H   UNK N   1      30.275  22.165  -0.862  0.00  0.00     0.210 HD
ENDBRANCH   7  15
ENDBRANCH   6   7
ENDBRANCH   3   6
ENDBRANCH   1   2
BRANCH   1  17
HETATM   17  C   UNK N   1      27.015  26.326  -5.219  0.00  0.00     0.013 C 
HETATM   18  C   UNK N   1      26.293  26.321  -3.890  0.00  0.00     0.012 C 
BRANCH  17  19
HETATM   19  C   UNK N   1      26.059  27.035  -6.178  0.00  0.00     0.002 C 
HETATM   20  C   UNK N   1      24.679  27.261  -5.601  0.00  0.00     0.005 C 
ENDBRANCH  17  19
ENDBRANCH   1  17
BRANCH   1  21
HETATM   21  C   UNK N   1      26.345  24.143  -6.523  0.00  0.00     0.243 C 
HETATM   22  O   UNK N   1      25.312  23.844  -5.942  0.00  0.00    -0.271 OA
HETATM   23  N   UNK N   1      26.500  23.772  -7.839  0.00  0.00    -0.336 N 
HETATM   24  C   UNK N   1      27.712  23.979  -8.578  0.00  0.00     0.127 C 
HETATM   25  C   UNK N   1      25.439  23.158  -8.613  0.00  0.00     0.185 C 
HETATM   26  C   UNK N   1      27.353  23.723 -10.028  0.00  0.00     0.022 C 
HETATM   27  C   UNK N   1      25.996  23.032 -10.023  0.00  0.00     0.038 C 
BRANCH  25  28
HETATM   28  C   UNK N   1      25.053  21.786  -8.122  0.00  0.00     0.163 C 
HETATM   29  O   UNK N   1      25.823  20.850  -8.276  0.00  0.00    -0.648 OA
BRANCH  28  30
HETATM   30  O   UNK N   1      23.880  21.580  -7.493  0.00  0.00    -0.775 OA
HETATM   31  H   UNK N   1      23.456  21.863  -6.706  0.00  0.00     0.167 HD
ENDBRANCH  28  30
ENDBRANCH  25  28
ENDBRANCH   1  21
TORSDOF 12
ENDMDL
MODEL 7
REMARK VINA RESULT:      -6.0     14.102     17.883
REMARK  12 active torsions:
REMARK  status: ('A' for Active; 'I' for Inactive)
REMARK    1  A    between atoms: C_2  and  C_3 
REMARK    2  A    between atoms: C_3  and  N_4 
REMARK       I    between atoms: N_4  and  C_5 
REMARK    3  A    between atoms: C_5  and  C_7 
REMARK    4  A    between atoms: C_7  and  C_8 
REMARK    5  A    between atoms: C_7  and  O_9 
REMARK    6  A    between atoms: C_8  and  C_10 
REMARK       I    between atoms: C_10  and  N_12 
REMARK    7  A    between atoms: C_13  and  N_12 
REMARK    8  A    between atoms: C_13  and  C_14 
REMARK    9  A    between atoms: C_13  and  C_18 
REMARK   10  A    between atoms: C_14  and  C_16 
REMARK       I    between atoms: C_18  and  N_20 
REMARK   11  A    between atoms: C_24  and  C_25 
REMARK   12  A    between atoms: C_25  and  O_27 
ROOT
HETATM    1  C   UNK N   1      29.664  24.775  -3.309  0.00  0.00     0.180 C 
ENDROOT
BRANCH   1   2
HETATM    2  N   UNK N   1      28.430  24.581  -4.080  0.00  0.00    -0.347 N 
HETATM    3  C   UNK N   1      27.211  24.293  -3.533  0.00  0.00     0.221 C 
HETATM    4  O   UNK N   1      27.073  24.228  -2.322  0.00  0.00    -0.273 OA
HETATM    5  H   UNK N   1      28.485  24.665  -5.060  0.00  0.00     0.163 HD
BRANCH   3   6
HETATM    6  C   UNK N   1      25.999  24.056  -4.389  0.00  0.00     0.144 C 
BRANCH   6   7
HETATM    7  C   UNK N   1      25.678  25.107  -5.451  0.00  0.00     0.218 C 
BRANCH   7   8
HETATM    8  C   UNK N   1      26.148  24.583  -6.777  0.00  0.00     0.246 C 
HETATM    9  N   UNK N   1      25.323  23.806  -7.525  0.00  0.00    -0.359 N 
HETATM   10  H   UNK N   1      24.436  23.568  -7.168  0.00  0.00     0.162 HD
HETATM   11  O   UNK N   1      27.266  24.867  -7.183  0.00  0.00    -0.271 OA
BRANCH   9  12
HETATM   12  C   UNK N   1      25.709  23.319  -8.825  0.00  0.00     0.122 C 
BRANCH  12  13
HETATM   13  C   UNK N   1      26.241  21.907  -8.712  0.00  0.00     0.015 C 
HETATM   14  C   UNK N   1      25.238  21.062  -7.954  0.00  0.00     0.006 C 
ENDBRANCH  12  13
ENDBRANCH   9  12
ENDBRANCH   7   8
BRANCH   7  15
HETATM   15  O   UNK N   1      26.351  26.297  -5.177  0.00  0.00    -0.386 OA
HETATM   16  H   UNK N   1      26.399  26.662  -4.280  0.00  0.00     0.210 HD
ENDBRANCH   7  15
ENDBRANCH   6   7
ENDBRANCH   3   6
ENDBRANCH   1   2
BRANCH   1  17
HETATM   17  C   UNK N   1      30.571  25.827  -4.053  0.00  0.00     0.013 C 
HETATM   18  C   UNK N   1      30.956  27.037  -3.232  0.00  0.00     0.012 C 
BRANCH  17  19
HETATM   19  C   UNK N   1      29.890  26.400  -5.296  0.00  0.00     0.002 C 
HETATM   20  C   UNK N   1      30.373  27.786  -5.666  0.00  0.00     0.005 C 
ENDBRANCH  17  19
ENDBRANCH   1  17
BRANCH   1  21
HETATM   21  C   UNK N   1      30.353  23.422  -3.010  0.00  0.00     0.243 C 
HETATM   22  O   UNK N   1      30.737  23.191  -1.874  0.00  0.00    -0.271 OA
HETATM   23  N   UNK N   1      30.566  22.479  -3.990  0.00  0.00    -0.336 N 
HETATM   24  C   UNK N   1      30.251  22.696  -5.372  0.00  0.00     0.127 C 
HETATM   25  C   UNK N   1      31.105  21.164  -3.711  0.00  0.00     0.185 C 
HETATM   26  C   UNK N   1      30.343  21.333  -6.029  0.00  0.00     0.022 C 
HETATM   27  C   UNK N   1      31.056  20.423  -5.038  0.00  0.00     0.038 C 
BRANCH  25  28
HETATM   28  C   UNK N   1      32.532  21.189  -3.224  0.00  0.00     0.163 C 
HETATM   29  O   UNK N   1      33.441  21.326  -4.028  0.00  0.00    -0.648 OA
BRANCH  28  30
HETATM   30  O   UNK N   1      32.819  21.087  -1.912  0.00  0.00    -0.775 OA
HETATM   31  H   UNK N   1      33.522  21.318  -1.337  0.00  0.00     0.167 HD
ENDBRANCH  28  30
ENDBRANCH  25  28
ENDBRANCH   1  21
TORSDOF 12
ENDMDL
MODEL 8
REMARK VINA RESULT:      -6.0      7.751     11.152
REMARK  12 active torsions:
REMARK  status: ('A' for Active; 'I' for Inactive)
REMARK    1  A    between atoms: C_2  and  C_3 
REMARK    2  A    between atoms: C_3  and  N_4 
REMARK       I    between atoms: N_4  and  C_5 
REMARK    3  A    between atoms: C_5  and  C_7 
REMARK    4  A    between atoms: C_7  and  C_8 
REMARK    5  A    between atoms: C_7  and  O_9 
REMARK    6  A    between atoms: C_8  and  C_10 
REMARK       I    between atoms: C_10  and  N_12 
REMARK    7  A    between atoms: C_13  and  N_12 
REMARK    8  A    between atoms: C_13  and  C_14 
REMARK    9  A    between atoms: C_13  and  C_18 
REMARK   10  A    between atoms: C_14  and  C_16 
REMARK       I    between atoms: C_18  and  N_20 
REMARK   11  A    between atoms: C_24  and  C_25 
REMARK   12  A    between atoms: C_25  and  O_27 
ROOT
HETATM    1  C   UNK N   1      22.654  18.291   4.810  0.00  0.00     0.180 C 
ENDROOT
BRANCH   1   2
HETATM    2  N   UNK N   1      21.771  17.313   5.456  0.00  0.00    -0.347 N 
HETATM    3  C   UNK N   1      21.012  17.566   6.564  0.00  0.00     0.221 C 
HETATM    4  O   UNK N   1      20.995  18.680   7.065  0.00  0.00    -0.273 OA
HETATM    5  H   UNK N   1      21.721  16.412   5.062  0.00  0.00     0.163 HD
BRANCH   3   6
HETATM    6  C   UNK N   1      20.169  16.500   7.203  0.00  0.00     0.144 C 
BRANCH   6   7
HETATM    7  C   UNK N   1      20.164  16.436   8.730  0.00  0.00     0.218 C 
BRANCH   7   8
HETATM    8  C   UNK N   1      20.165  14.991   9.134  0.00  0.00     0.246 C 
HETATM    9  N   UNK N   1      21.260  14.224   8.891  0.00  0.00    -0.359 N 
HETATM   10  H   UNK N   1      22.027  14.623   8.421  0.00  0.00     0.162 HD
HETATM   11  O   UNK N   1      19.186  14.513   9.689  0.00  0.00    -0.271 OA
BRANCH   9  12
HETATM   12  C   UNK N   1      21.328  12.845   9.303  0.00  0.00     0.122 C 
BRANCH  12  13
HETATM   13  C   UNK N   1      22.063  12.735  10.621  0.00  0.00     0.015 C 
HETATM   14  C   UNK N   1      23.006  11.551  10.562  0.00  0.00     0.006 C 
ENDBRANCH  12  13
ENDBRANCH   9  12
ENDBRANCH   7   8
BRANCH   7  15
HETATM   15  O   UNK N   1      19.015  17.042   9.238  0.00  0.00    -0.386 OA
HETATM   16  H   UNK N   1      19.025  17.946   9.586  0.00  0.00     0.210 HD
ENDBRANCH   7  15
ENDBRANCH   6   7
ENDBRANCH   3   6
ENDBRANCH   1   2
BRANCH   1  17
HETATM   17  C   UNK N   1      22.070  18.650   3.391  0.00  0.00     0.013 C 
HETATM   18  C   UNK N   1      21.421  20.012   3.291  0.00  0.00     0.012 C 
BRANCH  17  19
HETATM   19  C   UNK N   1      20.983  17.669   2.950  0.00  0.00     0.002 C 
HETATM   20  C   UNK N   1      19.626  18.311   2.763  0.00  0.00     0.005 C 
ENDBRANCH  17  19
ENDBRANCH   1  17
BRANCH   1  21
HETATM   21  C   UNK N   1      24.121  17.796   4.798  0.00  0.00     0.243 C 
HETATM   22  O   UNK N   1      24.357  16.635   5.097  0.00  0.00    -0.271 OA
HETATM   23  N   UNK N   1      25.170  18.628   4.480  0.00  0.00    -0.336 N 
HETATM   24  C   UNK N   1      25.010  20.029   4.219  0.00  0.00     0.127 C 
HETATM   25  C   UNK N   1      26.534  18.159   4.352  0.00  0.00     0.185 C 
HETATM   26  C   UNK N   1      26.326  20.483   3.617  0.00  0.00     0.022 C 
HETATM   27  C   UNK N   1      27.328  19.366   3.877  0.00  0.00     0.038 C 
BRANCH  25  28
HETATM   28  C   UNK N   1      27.127  17.671   5.650  0.00  0.00     0.163 C 
HETATM   29  O   UNK N   1      27.604  16.548   5.712  0.00  0.00    -0.648 OA
BRANCH  28  30
HETATM   30  O   UNK N   1      27.160  18.464   6.738  0.00  0.00    -0.775 OA
HETATM   31  H   UNK N   1      26.858  19.316   6.984  0.00  0.00     0.167 HD
ENDBRANCH  28  30
ENDBRANCH  25  28
ENDBRANCH   1  21
TORSDOF 12
ENDMDL
MODEL 9
REMARK VINA RESULT:      -5.9     14.056     18.031
REMARK  12 active torsions:
REMARK  status: ('A' for Active; 'I' for Inactive)
REMARK    1  A    between atoms: C_2  and  C_3 
REMARK    2  A    between atoms: C_3  and  N_4 
REMARK       I    between atoms: N_4  and  C_5 
REMARK    3  A    between atoms: C_5  and  C_7 
REMARK    4  A    between atoms: C_7  and  C_8 
REMARK    5  A    between atoms: C_7  and  O_9 
REMARK    6  A    between atoms: C_8  and  C_10 
REMARK       I    between atoms: C_10  and  N_12 
REMARK    7  A    between atoms: C_13  and  N_12 
REMARK    8  A    between atoms: C_13  and  C_14 
REMARK    9  A    between atoms: C_13  and  C_18 
REMARK   10  A    between atoms: C_14  and  C_16 
REMARK       I    between atoms: C_18  and  N_20 
REMARK   11  A    between atoms: C_24  and  C_25 
REMARK   12  A    between atoms: C_25  and  O_27 
ROOT
HETATM    1  C   UNK N   1      29.721  24.670  -3.339  0.00  0.00     0.180 C 
ENDROOT
BRANCH   1   2
HETATM    2  N   UNK N   1      28.555  24.469  -4.207  0.00  0.00    -0.347 N 
HETATM    3  C   UNK N   1      27.285  24.234  -3.759  0.00  0.00     0.221 C 
HETATM    4  O   UNK N   1      27.039  24.227  -2.563  0.00  0.00    -0.273 OA
HETATM    5  H   UNK N   1      28.698  24.507  -5.181  0.00  0.00     0.163 HD
BRANCH   3   6
HETATM    6  C   UNK N   1      26.147  23.985  -4.709  0.00  0.00     0.144 C 
BRANCH   6   7
HETATM    7  C   UNK N   1      26.228  24.649  -6.083  0.00  0.00     0.218 C 
BRANCH   7   8
HETATM    8  C   UNK N   1      25.969  26.117  -5.904  0.00  0.00     0.246 C 
HETATM    9  N   UNK N   1      26.991  27.002  -6.032  0.00  0.00    -0.359 N 
HETATM   10  H   UNK N   1      27.899  26.662  -6.207  0.00  0.00     0.162 HD
HETATM   11  O   UNK N   1      24.838  26.509  -5.656  0.00  0.00    -0.271 OA
BRANCH   9  12
HETATM   12  C   UNK N   1      26.785  28.423  -5.918  0.00  0.00     0.122 C 
BRANCH  12  13
HETATM   13  C   UNK N   1      27.377  28.929  -4.621  0.00  0.00     0.015 C 
HETATM   14  C   UNK N   1      26.275  29.051  -3.590  0.00  0.00     0.006 C 
ENDBRANCH  12  13
ENDBRANCH   9  12
ENDBRANCH   7   8
BRANCH   7  15
HETATM   15  O   UNK N   1      25.257  24.124  -6.935  0.00  0.00    -0.386 OA
HETATM   16  H   UNK N   1      25.248  23.187  -7.183  0.00  0.00     0.210 HD
ENDBRANCH   7  15
ENDBRANCH   6   7
ENDBRANCH   3   6
ENDBRANCH   1   2
BRANCH   1  17
HETATM   17  C   UNK N   1      30.655  25.764  -3.981  0.00  0.00     0.013 C 
HETATM   18  C   UNK N   1      30.737  27.067  -3.218  0.00  0.00     0.012 C 
BRANCH  17  19
HETATM   19  C   UNK N   1      30.195  26.164  -5.384  0.00  0.00     0.002 C 
HETATM   20  C   UNK N   1      30.668  27.537  -5.808  0.00  0.00     0.005 C 
ENDBRANCH  17  19
ENDBRANCH   1  17
BRANCH   1  21
HETATM   21  C   UNK N   1      30.421  23.326  -3.024  0.00  0.00     0.243 C 
HETATM   22  O   UNK N   1      30.794  23.106  -1.882  0.00  0.00    -0.271 OA
HETATM   23  N   UNK N   1      30.652  22.379  -3.995  0.00  0.00    -0.336 N 
HETATM   24  C   UNK N   1      30.349  22.584  -5.382  0.00  0.00     0.127 C 
HETATM   25  C   UNK N   1      31.201  21.071  -3.702  0.00  0.00     0.185 C 
HETATM   26  C   UNK N   1      30.462  21.218  -6.029  0.00  0.00     0.022 C 
HETATM   27  C   UNK N   1      31.173  20.321  -5.025  0.00  0.00     0.038 C 
BRANCH  25  28
HETATM   28  C   UNK N   1      32.623  21.113  -3.201  0.00  0.00     0.163 C 
HETATM   29  O   UNK N   1      33.542  21.215  -4.000  0.00  0.00    -0.648 OA
BRANCH  28  30
HETATM   30  O   UNK N   1      32.895  21.065  -1.883  0.00  0.00    -0.775 OA
HETATM   31  H   UNK N   1      32.419  20.994  -1.079  0.00  0.00     0.167 HD
ENDBRANCH  28  30
ENDBRANCH  25  28
ENDBRANCH   1  21
TORSDOF 12
ENDMDL
