REMARK  12 active torsions:
REMARK  status: ('A' for Active; 'I' for Inactive)
REMARK    1  A    between atoms: C_2  and  C_3 
REMARK    2  A    between atoms: C_3  and  N_4 
REMARK       I    between atoms: N_4  and  C_5 
REMARK    3  A    between atoms: C_5  and  C_7 
REMARK    4  A    between atoms: C_7  and  C_8 
REMARK    5  A    between atoms: C_7  and  O_9 
REMARK    6  A    between atoms: C_8  and  C_10 
REMARK       I    between atoms: C_10  and  N_12 
REMARK    7  A    between atoms: C_13  and  N_12 
REMARK    8  A    between atoms: C_13  and  C_14 
REMARK    9  A    between atoms: C_13  and  C_18 
REMARK   10  A    between atoms: C_14  and  C_16 
REMARK       I    between atoms: C_18  and  N_20 
REMARK   11  A    between atoms: C_24  and  C_25 
REMARK   12  A    between atoms: C_25  and  O_27 
ROOT
HETATM    1  C   UNK N   1       1.422   0.108   0.586  0.00  0.00     0.180 C 
ENDROOT
BRANCH   1   2
HETATM    2  N   UNK N   1      -0.030  -0.101   0.550  0.00  0.00    -0.347 N 
HETATM    3  C   UNK N   1      -0.777  -0.164  -0.593  0.00  0.00     0.221 C 
HETATM    4  O   UNK N   1      -0.243  -0.094  -1.689  0.00  0.00    -0.273 OA
HETATM    5  H   UNK N   1      -0.499  -0.204   1.410  0.00  0.00     0.163 HD
BRANCH   3   6
HETATM    6  C   UNK N   1      -2.270  -0.329  -0.552  0.00  0.00     0.144 C 
BRANCH   6   7
HETATM    7  C   UNK N   1      -2.979   0.059   0.745  0.00  0.00     0.218 C 
BRANCH   7   8
HETATM    8  C   UNK N   1      -4.457  -0.086   0.526  0.00  0.00     0.246 C 
HETATM    9  N   UNK N   1      -5.067   0.632  -0.452  0.00  0.00    -0.359 N 
HETATM   10  H   UNK N   1      -4.533   1.266  -0.983  0.00  0.00     0.162 HD
HETATM   11  O   UNK N   1      -5.102  -0.858   1.221  0.00  0.00    -0.271 OA
BRANCH   9  12
HETATM   12  C   UNK N   1      -6.473   0.492  -0.733  0.00  0.00     0.122 C 
BRANCH  12  13
HETATM   13  C   UNK N   1      -7.178   1.813  -0.516  0.00  0.00     0.015 C 
HETATM   14  C   UNK N   1      -8.667   1.614  -0.705  0.00  0.00     0.006 C 
ENDBRANCH  12  13
ENDBRANCH   9  12
ENDBRANCH   7   8
BRANCH   7  15
HETATM   15  O   UNK N   1      -2.703   1.386   1.072  0.00  0.00    -0.386 OA
HETATM   16  H   UNK N   1      -1.808   1.681   1.299  0.00  0.00     0.210 HD
ENDBRANCH   7  15
ENDBRANCH   6   7
ENDBRANCH   3   6
ENDBRANCH   1   2
BRANCH   1  17
HETATM   17  C   UNK N   1       1.749   1.531  -0.006  0.00  0.00     0.013 C 
HETATM   18  C   UNK N   1       3.221   1.835  -0.170  0.00  0.00     0.012 C 
BRANCH  17  19
HETATM   19  C   UNK N   1       1.215   2.660   0.877  0.00  0.00     0.002 C 
HETATM   20  C   UNK N   1      -0.274   2.888   0.734  0.00  0.00     0.005 C 
ENDBRANCH  17  19
ENDBRANCH   1  17
BRANCH   1  21
HETATM   21  C   UNK N   1       2.171  -1.063  -0.094  0.00  0.00     0.243 C 
HETATM   22  O   UNK N   1       1.540  -1.850  -0.783  0.00  0.00    -0.271 OA
HETATM   23  N   UNK N   1       3.524  -1.257   0.069  0.00  0.00    -0.336 N 
HETATM   24  C   UNK N   1       4.334  -0.455   0.940  0.00  0.00     0.127 C 
HETATM   25  C   UNK N   1       4.264  -2.276  -0.647  0.00  0.00     0.185 C 
HETATM   26  C   UNK N   1       5.769  -0.793   0.586  0.00  0.00     0.022 C 
HETATM   27  C   UNK N   1       5.719  -2.057  -0.262  0.00  0.00     0.038 C 
BRANCH  25  28
HETATM   28  C   UNK N   1       3.871  -3.682  -0.269  0.00  0.00     0.163 C 
HETATM   29  O   UNK N   1       4.431  -4.629  -0.800  0.00  0.00    -0.648 OA
BRANCH  28  30
HETATM   30  O   UNK N   1       2.927  -3.911   0.664  0.00  0.00    -0.775 OA
HETATM   31  H   UNK N   1       2.461  -3.421   1.313  0.00  0.00     0.167 HD
ENDBRANCH  28  30
ENDBRANCH  25  28
ENDBRANCH   1  21
TORSDOF 12
