MODEL 1
REMARK VINA RESULT:      -7.2      0.000      0.000
REMARK  4 active torsions:
REMARK  status: ('A' for Active; 'I' for Inactive)
REMARK    1  A    between atoms: C_4  and  N_12 
REMARK    2  A    between atoms: N_15  and  C_17 
REMARK    3  A    between atoms: C_20  and  S_23 
REMARK    4  A    between atoms: S_23  and  N_26 
ROOT
HETATM    1  N   UNK N   1      36.796  14.178  12.524  0.00  0.00    -0.294 N 
ATOM      2  HN  UNK N   1      37.380  13.755  11.804  1.00  0.00     0.187 HD
HETATM    3  N   UNK N   1      36.228  15.261  12.295  0.00  0.00    -0.300 N 
ATOM      4  HN  UNK N   1      35.978  15.886  13.061  1.00  0.00     0.187 HD
ENDROOT
BRANCH   1   5
HETATM    5  C   UNK N   1      36.643  13.530  13.763  0.00  0.00     0.129 A 
HETATM    6  C   UNK N   1      36.763  14.057  15.114  0.00  0.00     0.275 A 
HETATM    7  N   UNK N   1      36.306  13.126  15.975  0.00  0.00    -0.321 N 
HETATM    8  O   UNK N   1      37.159  15.164  15.443  0.00  0.00    -0.266 OA
HETATM    9  C   UNK N   1      35.937  12.116  15.270  0.00  0.00     0.048 A 
ATOM     10  HN  UNK N   1      36.263  13.206  16.991  1.00  0.00     0.169 HD
HETATM   11  C   UNK N   1      35.341  10.950  15.739  0.00  0.00     0.032 A 
HETATM   12  C   UNK N   1      36.134  12.326  13.917  0.00  0.00     0.026 A 
HETATM   13  C   UNK N   1      34.953   9.982  14.790  0.00  0.00     0.021 A 
HETATM   14  C   UNK N   1      35.162  10.201  13.408  0.00  0.00     0.011 A 
HETATM   15  C   UNK N   1      35.753  11.394  12.960  0.00  0.00     0.035 A 
HETATM   16 Br   UNK N   1      34.642   8.879  12.139  0.00  0.00    -0.051 Br
ENDBRANCH   1   5
BRANCH   3  17
HETATM   17  C   UNK N   1      35.935  15.614  10.960  0.00  0.00     0.048 A 
HETATM   18  C   UNK N   1      35.313  16.835  10.686  0.00  0.00     0.032 A 
HETATM   19  C   UNK N   1      34.824  17.095   9.403  0.00  0.00     0.027 A 
HETATM   20  C   UNK N   1      34.939  16.124   8.400  0.00  0.00     0.079 A 
HETATM   21  C   UNK N   1      35.567  14.909   8.668  0.00  0.00     0.027 A 
HETATM   22  C   UNK N   1      36.055  14.651   9.944  0.00  0.00     0.032 A 
BRANCH  20  23
HETATM   23  S   UNK N   1      34.266  16.414   6.777  0.00  0.00     0.256 S 
HETATM   24  O   UNK N   1      34.240  17.903   6.405  0.00  0.00    -0.201 OA
HETATM   25  O   UNK N   1      35.130  15.807   5.662  0.00  0.00    -0.201 OA
BRANCH  23  26
HETATM   26  N   UNK N   1      32.636  15.822   6.459  0.00  0.00    -0.324 N 
HETATM   27  H   UNK N   1      32.355  15.331   5.610  0.00  0.00     0.169 HD
HETATM   28  H   UNK N   1      31.925  15.982   7.172  0.00  0.00     0.169 HD
ENDBRANCH  23  26
ENDBRANCH  20  23
ENDBRANCH   3  17
TORSDOF 4
ENDMDL
MODEL 2
REMARK VINA RESULT:      -7.1      4.253      8.633
REMARK  4 active torsions:
REMARK  status: ('A' for Active; 'I' for Inactive)
REMARK    1  A    between atoms: C_4  and  N_12 
REMARK    2  A    between atoms: N_15  and  C_17 
REMARK    3  A    between atoms: C_20  and  S_23 
REMARK    4  A    between atoms: S_23  and  N_26 
ROOT
HETATM    1  N   UNK N   1      33.748  16.549   8.828  0.00  0.00    -0.294 N 
ATOM      2  HN  UNK N   1      33.212  16.703   9.681  1.00  0.00     0.187 HD
HETATM    3  N   UNK N   1      34.905  16.097   8.905  0.00  0.00    -0.300 N 
ATOM      4  HN  UNK N   1      35.585  16.289   8.170  1.00  0.00     0.187 HD
ENDROOT
BRANCH   1   5
HETATM    5  C   UNK N   1      33.172  16.852   7.582  0.00  0.00     0.129 A 
HETATM    6  C   UNK N   1      33.715  16.699   6.240  0.00  0.00     0.275 A 
HETATM    7  N   UNK N   1      32.720  16.903   5.353  0.00  0.00    -0.321 N 
HETATM    8  O   UNK N   1      34.857  16.392   5.935  0.00  0.00    -0.266 OA
HETATM    9  C   UNK N   1      31.660  17.160   6.036  0.00  0.00     0.048 A 
ATOM     10  HN  UNK N   1      32.793  16.862   4.337  1.00  0.00     0.169 HD
HETATM   11  C   UNK N   1      30.381  17.370   5.533  0.00  0.00     0.032 A 
HETATM   12  C   UNK N   1      31.902  17.142   7.397  0.00  0.00     0.026 A 
HETATM   13  C   UNK N   1      29.337  17.577   6.458  0.00  0.00     0.021 A 
HETATM   14  C   UNK N   1      29.592  17.563   7.850  0.00  0.00     0.011 A 
HETATM   15  C   UNK N   1      30.891  17.334   8.331  0.00  0.00     0.035 A 
HETATM   16 Br   UNK N   1      28.172  17.856   9.086  0.00  0.00    -0.051 Br
ENDBRANCH   1   5
BRANCH   3  17
HETATM   17  C   UNK N   1      35.263  15.313  10.023  0.00  0.00     0.048 A 
HETATM   18  C   UNK N   1      34.766  14.013  10.147  0.00  0.00     0.032 A 
HETATM   19  C   UNK N   1      34.935  13.314  11.346  0.00  0.00     0.027 A 
HETATM   20  C   UNK N   1      35.582  13.925  12.427  0.00  0.00     0.079 A 
HETATM   21  C   UNK N   1      36.087  15.218  12.303  0.00  0.00     0.027 A 
HETATM   22  C   UNK N   1      35.921  15.913  11.110  0.00  0.00     0.032 A 
BRANCH  20  23
HETATM   23  S   UNK N   1      35.751  13.072  13.981  0.00  0.00     0.256 S 
HETATM   24  O   UNK N   1      34.524  13.244  14.887  0.00  0.00    -0.201 OA
HETATM   25  O   UNK N   1      35.829  11.547  13.813  0.00  0.00    -0.201 OA
BRANCH  23  26
HETATM   26  N   UNK N   1      37.139  13.486  14.986  0.00  0.00    -0.324 N 
HETATM   27  H   UNK N   1      37.708  12.809  15.493  0.00  0.00     0.169 HD
HETATM   28  H   UNK N   1      37.390  14.472  15.065  0.00  0.00     0.169 HD
ENDBRANCH  23  26
ENDBRANCH  20  23
ENDBRANCH   3  17
TORSDOF 4
ENDMDL
MODEL 3
REMARK VINA RESULT:      -6.9      3.349      4.596
REMARK  4 active torsions:
REMARK  status: ('A' for Active; 'I' for Inactive)
REMARK    1  A    between atoms: C_4  and  N_12 
REMARK    2  A    between atoms: N_15  and  C_17 
REMARK    3  A    between atoms: C_20  and  S_23 
REMARK    4  A    between atoms: S_23  and  N_26 
ROOT
HETATM    1  N   UNK N   1      35.073  12.436  16.315  0.00  0.00    -0.294 N 
ATOM      2  HN  UNK N   1      34.134  12.551  15.934  1.00  0.00     0.187 HD
HETATM    3  N   UNK N   1      36.046  12.395  15.540  0.00  0.00    -0.300 N 
ATOM      4  HN  UNK N   1      36.902  11.911  15.812  1.00  0.00     0.187 HD
ENDROOT
BRANCH   1   5
HETATM    5  C   UNK N   1      35.250  12.327  17.705  0.00  0.00     0.129 A 
HETATM    6  C   UNK N   1      35.272  13.362  18.728  0.00  0.00     0.275 A 
HETATM    7  N   UNK N   1      35.239  12.765  19.937  0.00  0.00    -0.321 N 
HETATM    8  O   UNK N   1      35.271  14.571  18.557  0.00  0.00    -0.266 OA
HETATM    9  C   UNK N   1      35.204  11.497  19.725  0.00  0.00     0.048 A 
ATOM     10  HN  UNK N   1      35.243  13.229  20.845  1.00  0.00     0.169 HD
HETATM   11  C   UNK N   1      35.097  10.498  20.686  0.00  0.00     0.032 A 
HETATM   12  C   UNK N   1      35.215  11.195  18.375  0.00  0.00     0.026 A 
HETATM   13  C   UNK N   1      35.011   9.163  20.241  0.00  0.00     0.021 A 
HETATM   14  C   UNK N   1      35.029   8.860  18.858  0.00  0.00     0.011 A 
HETATM   15  C   UNK N   1      35.123   9.889  17.908  0.00  0.00     0.035 A 
HETATM   16 Br   UNK N   1      34.923   7.050  18.273  0.00  0.00    -0.051 Br
ENDBRANCH   1   5
BRANCH   3  17
HETATM   17  C   UNK N   1      35.950  13.025  14.281  0.00  0.00     0.048 A 
HETATM   18  C   UNK N   1      36.444  14.322  14.115  0.00  0.00     0.032 A 
HETATM   19  C   UNK N   1      36.159  15.030  12.944  0.00  0.00     0.027 A 
HETATM   20  C   UNK N   1      35.362  14.449  11.950  0.00  0.00     0.079 A 
HETATM   21  C   UNK N   1      34.877  13.152  12.109  0.00  0.00     0.027 A 
HETATM   22  C   UNK N   1      35.162  12.446  13.272  0.00  0.00     0.032 A 
BRANCH  20  23
HETATM   23  S   UNK N   1      34.939  15.361  10.481  0.00  0.00     0.256 S 
HETATM   24  O   UNK N   1      35.816  14.986   9.278  0.00  0.00    -0.201 OA
HETATM   25  O   UNK N   1      33.525  15.042   9.973  0.00  0.00    -0.201 OA
BRANCH  23  26
HETATM   26  N   UNK N   1      34.998  17.121  10.575  0.00  0.00    -0.324 N 
HETATM   27  H   UNK N   1      34.622  17.750   9.867  0.00  0.00     0.169 HD
HETATM   28  H   UNK N   1      35.439  17.537  11.395  0.00  0.00     0.169 HD
ENDBRANCH  23  26
ENDBRANCH  20  23
ENDBRANCH   3  17
TORSDOF 4
ENDMDL
MODEL 4
REMARK VINA RESULT:      -6.9     13.215     15.590
REMARK  4 active torsions:
REMARK  status: ('A' for Active; 'I' for Inactive)
REMARK    1  A    between atoms: C_4  and  N_12 
REMARK    2  A    between atoms: N_15  and  C_17 
REMARK    3  A    between atoms: C_20  and  S_23 
REMARK    4  A    between atoms: S_23  and  N_26 
ROOT
HETATM    1  N   UNK N   1      23.001  18.184   4.253  0.00  0.00    -0.294 N 
ATOM      2  HN  UNK N   1      22.728  17.378   3.692  1.00  0.00     0.187 HD
HETATM    3  N   UNK N   1      22.498  18.345   5.380  0.00  0.00    -0.300 N 
ATOM      4  HN  UNK N   1      22.431  19.277   5.788  1.00  0.00     0.187 HD
ENDROOT
BRANCH   1   5
HETATM    5  C   UNK N   1      23.938  19.099   3.743  0.00  0.00     0.129 A 
HETATM    6  C   UNK N   1      23.730  20.383   3.089  0.00  0.00     0.275 A 
HETATM    7  N   UNK N   1      24.922  21.004   2.982  0.00  0.00    -0.321 N 
HETATM    8  O   UNK N   1      22.667  20.867   2.731  0.00  0.00    -0.266 OA
HETATM    9  C   UNK N   1      25.798  20.218   3.500  0.00  0.00     0.048 A 
ATOM     10  HN  UNK N   1      25.096  21.920   2.569  1.00  0.00     0.169 HD
HETATM   11  C   UNK N   1      27.154  20.481   3.664  0.00  0.00     0.032 A 
HETATM   12  C   UNK N   1      25.233  19.046   3.969  0.00  0.00     0.026 A 
HETATM   13  C   UNK N   1      27.938  19.506   4.315  0.00  0.00     0.021 A 
HETATM   14  C   UNK N   1      27.355  18.306   4.787  0.00  0.00     0.011 A 
HETATM   15  C   UNK N   1      25.980  18.073   4.621  0.00  0.00     0.035 A 
HETATM   16 Br   UNK N   1      28.431  16.995   5.655  0.00  0.00    -0.051 Br
ENDBRANCH   1   5
BRANCH   3  17
HETATM   17  C   UNK N   1      22.022  17.220   6.087  0.00  0.00     0.048 A 
HETATM   18  C   UNK N   1      20.958  17.361   6.980  0.00  0.00     0.032 A 
HETATM   19  C   UNK N   1      20.626  16.310   7.840  0.00  0.00     0.027 A 
HETATM   20  C   UNK N   1      21.373  15.126   7.819  0.00  0.00     0.079 A 
HETATM   21  C   UNK N   1      22.429  14.979   6.922  0.00  0.00     0.027 A 
HETATM   22  C   UNK N   1      22.758  16.023   6.066  0.00  0.00     0.032 A 
BRANCH  20  23
HETATM   23  S   UNK N   1      21.003  13.801   8.950  0.00  0.00     0.256 S 
HETATM   24  O   UNK N   1      19.671  14.005   9.684  0.00  0.00    -0.201 OA
HETATM   25  O   UNK N   1      20.788  12.458   8.237  0.00  0.00    -0.201 OA
BRANCH  23  26
HETATM   26  N   UNK N   1      22.187  13.458  10.211  0.00  0.00    -0.324 N 
HETATM   27  H   UNK N   1      23.049  12.934  10.066  0.00  0.00     0.169 HD
HETATM   28  H   UNK N   1      21.996  13.808  11.149  0.00  0.00     0.169 HD
ENDBRANCH  23  26
ENDBRANCH  20  23
ENDBRANCH   3  17
TORSDOF 4
ENDMDL
MODEL 5
REMARK VINA RESULT:      -6.9     21.617     23.272
REMARK  4 active torsions:
REMARK  status: ('A' for Active; 'I' for Inactive)
REMARK    1  A    between atoms: C_4  and  N_12 
REMARK    2  A    between atoms: N_15  and  C_17 
REMARK    3  A    between atoms: C_20  and  S_23 
REMARK    4  A    between atoms: S_23  and  N_26 
ROOT
HETATM    1  N   UNK N   1      26.090  23.864  -6.330  0.00  0.00    -0.294 N 
ATOM      2  HN  UNK N   1      26.384  23.925  -5.355  1.00  0.00     0.187 HD
HETATM    3  N   UNK N   1      25.525  24.837  -6.860  0.00  0.00    -0.300 N 
ATOM      4  HN  UNK N   1      24.893  24.701  -7.649  1.00  0.00     0.187 HD
ENDROOT
BRANCH   1   5
HETATM    5  C   UNK N   1      26.328  22.683  -7.054  0.00  0.00     0.129 A 
HETATM    6  C   UNK N   1      25.517  22.033  -8.073  0.00  0.00     0.275 A 
HETATM    7  N   UNK N   1      26.253  21.058  -8.644  0.00  0.00    -0.321 N 
HETATM    8  O   UNK N   1      24.380  22.326  -8.412  0.00  0.00    -0.266 OA
HETATM    9  C   UNK N   1      27.401  21.071  -8.064  0.00  0.00     0.048 A 
ATOM     10  HN  UNK N   1      25.956  20.430  -9.391  1.00  0.00     0.169 HD
HETATM   11  C   UNK N   1      28.498  20.277  -8.380  0.00  0.00     0.032 A 
HETATM   12  C   UNK N   1      27.479  22.046  -7.087  0.00  0.00     0.026 A 
HETATM   13  C   UNK N   1      29.692  20.491  -7.661  0.00  0.00     0.021 A 
HETATM   14  C   UNK N   1      29.764  21.486  -6.658  0.00  0.00     0.011 A 
HETATM   15  C   UNK N   1      28.645  22.284  -6.369  0.00  0.00     0.035 A 
HETATM   16 Br   UNK N   1      31.381  21.753  -5.688  0.00  0.00    -0.051 Br
ENDBRANCH   1   5
BRANCH   3  17
HETATM   17  C   UNK N   1      25.770  26.133  -6.357  0.00  0.00     0.048 A 
HETATM   18  C   UNK N   1      26.763  26.926  -6.938  0.00  0.00     0.032 A 
HETATM   19  C   UNK N   1      27.160  28.113  -6.314  0.00  0.00     0.027 A 
HETATM   20  C   UNK N   1      26.578  28.493  -5.098  0.00  0.00     0.079 A 
HETATM   21  C   UNK N   1      25.582  27.708  -4.522  0.00  0.00     0.027 A 
HETATM   22  C   UNK N   1      25.185  26.530  -5.143  0.00  0.00     0.032 A 
BRANCH  20  23
HETATM   23  S   UNK N   1      27.117  29.968  -4.259  0.00  0.00     0.256 S 
HETATM   24  O   UNK N   1      28.009  29.668  -3.047  0.00  0.00    -0.201 OA
HETATM   25  O   UNK N   1      28.025  30.847  -5.133  0.00  0.00    -0.201 OA
BRANCH  23  26
HETATM   26  N   UNK N   1      25.868  31.062  -3.665  0.00  0.00    -0.324 N 
HETATM   27  H   UNK N   1      25.202  30.833  -2.928  0.00  0.00     0.169 HD
HETATM   28  H   UNK N   1      25.809  31.989  -4.087  0.00  0.00     0.169 HD
ENDBRANCH  23  26
ENDBRANCH  20  23
ENDBRANCH   3  17
TORSDOF 4
ENDMDL
MODEL 6
REMARK VINA RESULT:      -6.7      5.029      8.580
REMARK  4 active torsions:
REMARK  status: ('A' for Active; 'I' for Inactive)
REMARK    1  A    between atoms: C_4  and  N_12 
REMARK    2  A    between atoms: N_15  and  C_17 
REMARK    3  A    between atoms: C_20  and  S_23 
REMARK    4  A    between atoms: S_23  and  N_26 
ROOT
HETATM    1  N   UNK N   1      31.700  16.694   9.130  0.00  0.00    -0.294 N 
ATOM      2  HN  UNK N   1      31.641  15.762   9.542  1.00  0.00     0.187 HD
HETATM    3  N   UNK N   1      32.790  17.293   9.127  0.00  0.00    -0.300 N 
ATOM      4  HN  UNK N   1      32.819  18.312   9.097  1.00  0.00     0.187 HD
ENDROOT
BRANCH   1   5
HETATM    5  C   UNK N   1      30.550  17.282   8.576  0.00  0.00     0.129 A 
HETATM    6  C   UNK N   1      29.662  18.296   9.125  0.00  0.00     0.275 A 
HETATM    7  N   UNK N   1      28.834  18.712   8.145  0.00  0.00    -0.321 N 
HETATM    8  O   UNK N   1      29.671  18.751  10.259  0.00  0.00    -0.266 OA
HETATM    9  C   UNK N   1      29.144  18.046   7.090  0.00  0.00     0.048 A 
ATOM     10  HN  UNK N   1      28.102  19.417   8.227  1.00  0.00     0.169 HD
HETATM   11  C   UNK N   1      28.590  18.196   5.823  0.00  0.00     0.032 A 
HETATM   12  C   UNK N   1      30.182  17.161   7.318  0.00  0.00     0.026 A 
HETATM   13  C   UNK N   1      29.115  17.407   4.778  0.00  0.00     0.021 A 
HETATM   14  C   UNK N   1      30.174  16.500   5.020  0.00  0.00     0.011 A 
HETATM   15  C   UNK N   1      30.724  16.379   6.306  0.00  0.00     0.035 A 
HETATM   16 Br   UNK N   1      30.864  15.433   3.601  0.00  0.00    -0.051 Br
ENDBRANCH   1   5
BRANCH   3  17
HETATM   17  C   UNK N   1      33.987  16.545   9.163  0.00  0.00     0.048 A 
HETATM   18  C   UNK N   1      34.166  15.480   8.277  0.00  0.00     0.032 A 
HETATM   19  C   UNK N   1      35.242  14.604   8.450  0.00  0.00     0.027 A 
HETATM   20  C   UNK N   1      36.124  14.782   9.523  0.00  0.00     0.079 A 
HETATM   21  C   UNK N   1      35.953  15.849  10.402  0.00  0.00     0.027 A 
HETATM   22  C   UNK N   1      34.885  16.722  10.229  0.00  0.00     0.032 A 
BRANCH  20  23
HETATM   23  S   UNK N   1      37.462  13.639   9.794  0.00  0.00     0.256 S 
HETATM   24  O   UNK N   1      37.225  12.280   9.121  0.00  0.00    -0.201 OA
HETATM   25  O   UNK N   1      38.777  14.105   9.150  0.00  0.00    -0.201 OA
BRANCH  23  26
HETATM   26  N   UNK N   1      37.886  13.270  11.465  0.00  0.00    -0.324 N 
HETATM   27  H   UNK N   1      37.450  13.700  12.280  0.00  0.00     0.169 HD
HETATM   28  H   UNK N   1      38.617  12.578  11.627  0.00  0.00     0.169 HD
ENDBRANCH  23  26
ENDBRANCH  20  23
ENDBRANCH   3  17
TORSDOF 4
ENDMDL
MODEL 7
REMARK VINA RESULT:      -6.7      9.371     12.263
REMARK  4 active torsions:
REMARK  status: ('A' for Active; 'I' for Inactive)
REMARK    1  A    between atoms: C_4  and  N_12 
REMARK    2  A    between atoms: N_15  and  C_17 
REMARK    3  A    between atoms: C_20  and  S_23 
REMARK    4  A    between atoms: S_23  and  N_26 
ROOT
HETATM    1  N   UNK N   1      27.785  17.801   5.188  0.00  0.00    -0.294 N 
ATOM      2  HN  UNK N   1      27.301  16.939   4.940  1.00  0.00     0.187 HD
HETATM    3  N   UNK N   1      27.457  18.868   4.640  0.00  0.00    -0.300 N 
ATOM      4  HN  UNK N   1      28.126  19.633   4.555  1.00  0.00     0.187 HD
ENDROOT
BRANCH   1   5
HETATM    5  C   UNK N   1      28.815  17.767   6.145  0.00  0.00     0.129 A 
HETATM    6  C   UNK N   1      28.742  17.817   7.598  0.00  0.00     0.275 A 
HETATM    7  N   UNK N   1      29.960  17.523   8.095  0.00  0.00    -0.321 N 
HETATM    8  O   UNK N   1      27.754  18.036   8.282  0.00  0.00    -0.266 OA
HETATM    9  C   UNK N   1      30.732  17.311   7.088  0.00  0.00     0.048 A 
ATOM     10  HN  UNK N   1      30.220  17.479   9.080  1.00  0.00     0.169 HD
HETATM   11  C   UNK N   1      32.063  16.913   7.133  0.00  0.00     0.032 A 
HETATM   12  C   UNK N   1      30.067  17.457   5.884  0.00  0.00     0.026 A 
HETATM   13  C   UNK N   1      32.719  16.672   5.908  0.00  0.00     0.021 A 
HETATM   14  C   UNK N   1      32.035  16.829   4.679  0.00  0.00     0.011 A 
HETATM   15  C   UNK N   1      30.686  17.218   4.663  0.00  0.00     0.035 A 
HETATM   16 Br   UNK N   1      32.939  16.511   3.033  0.00  0.00    -0.051 Br
ENDBRANCH   1   5
BRANCH   3  17
HETATM   17  C   UNK N   1      26.146  19.007   4.136  0.00  0.00     0.048 A 
HETATM   18  C   UNK N   1      25.810  20.131   3.376  0.00  0.00     0.032 A 
HETATM   19  C   UNK N   1      24.472  20.383   3.061  0.00  0.00     0.027 A 
HETATM   20  C   UNK N   1      23.469  19.523   3.525  0.00  0.00     0.079 A 
HETATM   21  C   UNK N   1      23.802  18.396   4.274  0.00  0.00     0.027 A 
HETATM   22  C   UNK N   1      25.133  18.143   4.585  0.00  0.00     0.032 A 
BRANCH  20  23
HETATM   23  S   UNK N   1      21.755  19.864   3.185  0.00  0.00     0.256 S 
HETATM   24  O   UNK N   1      20.895  19.899   4.455  0.00  0.00    -0.201 OA
HETATM   25  O   UNK N   1      21.537  21.266   2.596  0.00  0.00    -0.201 OA
BRANCH  23  26
HETATM   26  N   UNK N   1      20.916  18.776   2.079  0.00  0.00    -0.324 N 
HETATM   27  H   UNK N   1      21.355  18.306   1.288  0.00  0.00     0.169 HD
HETATM   28  H   UNK N   1      19.924  18.605   2.243  0.00  0.00     0.169 HD
ENDBRANCH  23  26
ENDBRANCH  20  23
ENDBRANCH   3  17
TORSDOF 4
ENDMDL
MODEL 8
REMARK VINA RESULT:      -6.6     18.060     21.653
REMARK  4 active torsions:
REMARK  status: ('A' for Active; 'I' for Inactive)
REMARK    1  A    between atoms: C_4  and  N_12 
REMARK    2  A    between atoms: N_15  and  C_17 
REMARK    3  A    between atoms: C_20  and  S_23 
REMARK    4  A    between atoms: S_23  and  N_26 
ROOT
HETATM    1  N   UNK N   1      28.232  24.614  -5.680  0.00  0.00    -0.294 N 
ATOM      2  HN  UNK N   1      29.157  25.031  -5.779  1.00  0.00     0.187 HD
HETATM    3  N   UNK N   1      28.127  23.383  -5.536  0.00  0.00    -0.300 N 
ATOM      4  HN  UNK N   1      27.274  22.901  -5.818  1.00  0.00     0.187 HD
ENDROOT
BRANCH   1   5
HETATM    5  C   UNK N   1      27.093  25.438  -5.709  0.00  0.00     0.129 A 
HETATM    6  C   UNK N   1      25.761  25.174  -6.234  0.00  0.00     0.275 A 
HETATM    7  N   UNK N   1      24.942  26.166  -5.833  0.00  0.00    -0.321 N 
HETATM    8  O   UNK N   1      25.403  24.205  -6.886  0.00  0.00    -0.266 OA
HETATM    9  C   UNK N   1      25.654  26.979  -5.135  0.00  0.00     0.048 A 
ATOM     10  HN  UNK N   1      23.948  26.256  -6.044  1.00  0.00     0.169 HD
HETATM   11  C   UNK N   1      25.205  28.113  -4.469  0.00  0.00     0.032 A 
HETATM   12  C   UNK N   1      26.972  26.568  -5.044  0.00  0.00     0.026 A 
HETATM   13  C   UNK N   1      26.140  28.839  -3.703  0.00  0.00     0.021 A 
HETATM   14  C   UNK N   1      27.488  28.417  -3.618  0.00  0.00     0.011 A 
HETATM   15  C   UNK N   1      27.912  27.259  -4.290  0.00  0.00     0.035 A 
HETATM   16 Br   UNK N   1      28.741  29.416  -2.589  0.00  0.00    -0.051 Br
ENDBRANCH   1   5
BRANCH   3  17
HETATM   17  C   UNK N   1      29.205  22.663  -4.977  0.00  0.00     0.048 A 
HETATM   18  C   UNK N   1      29.751  23.068  -3.756  0.00  0.00     0.032 A 
HETATM   19  C   UNK N   1      30.947  22.501  -3.307  0.00  0.00     0.027 A 
HETATM   20  C   UNK N   1      31.606  21.544  -4.089  0.00  0.00     0.079 A 
HETATM   21  C   UNK N   1      31.057  21.131  -5.301  0.00  0.00     0.027 A 
HETATM   22  C   UNK N   1      29.867  21.693  -5.748  0.00  0.00     0.032 A 
BRANCH  20  23
HETATM   23  S   UNK N   1      33.161  20.857  -3.560  0.00  0.00     0.256 S 
HETATM   24  O   UNK N   1      34.365  21.532  -4.231  0.00  0.00    -0.201 OA
HETATM   25  O   UNK N   1      33.435  21.094  -2.067  0.00  0.00    -0.201 OA
BRANCH  23  26
HETATM   26  N   UNK N   1      33.403  19.126  -3.793  0.00  0.00    -0.324 N 
HETATM   27  H   UNK N   1      34.260  18.705  -4.151  0.00  0.00     0.169 HD
HETATM   28  H   UNK N   1      32.632  18.503  -3.554  0.00  0.00     0.169 HD
ENDBRANCH  23  26
ENDBRANCH  20  23
ENDBRANCH   3  17
TORSDOF 4
ENDMDL
MODEL 9
REMARK VINA RESULT:      -6.6      3.510      4.600
REMARK  4 active torsions:
REMARK  status: ('A' for Active; 'I' for Inactive)
REMARK    1  A    between atoms: C_4  and  N_12 
REMARK    2  A    between atoms: N_15  and  C_17 
REMARK    3  A    between atoms: C_20  and  S_23 
REMARK    4  A    between atoms: S_23  and  N_26 
ROOT
HETATM    1  N   UNK N   1      33.657  14.919   9.978  0.00  0.00    -0.294 N 
ATOM      2  HN  UNK N   1      32.840  14.371  10.244  1.00  0.00     0.187 HD
HETATM    3  N   UNK N   1      33.669  15.510   8.883  0.00  0.00    -0.300 N 
ATOM      4  HN  UNK N   1      34.553  15.724   8.421  1.00  0.00     0.187 HD
ENDROOT
BRANCH   1   5
HETATM    5  C   UNK N   1      34.755  14.997  10.853  0.00  0.00     0.129 A 
HETATM    6  C   UNK N   1      35.645  16.112  11.139  0.00  0.00     0.275 A 
HETATM    7  N   UNK N   1      36.400  15.790  12.209  0.00  0.00    -0.321 N 
HETATM    8  O   UNK N   1      35.692  17.188  10.562  0.00  0.00    -0.266 OA
HETATM    9  C   UNK N   1      36.046  14.607  12.571  0.00  0.00     0.048 A 
ATOM     10  HN  UNK N   1      37.115  16.371  12.646  1.00  0.00     0.169 HD
HETATM   11  C   UNK N   1      36.518  13.902  13.673  0.00  0.00     0.032 A 
HETATM   12  C   UNK N   1      35.049  14.093  11.763  0.00  0.00     0.026 A 
HETATM   13  C   UNK N   1      35.953  12.637  13.934  0.00  0.00     0.021 A 
HETATM   14  C   UNK N   1      34.938  12.113  13.100  0.00  0.00     0.011 A 
HETATM   15  C   UNK N   1      34.469  12.852  12.002  0.00  0.00     0.035 A 
HETATM   16 Br   UNK N   1      34.194  10.396  13.460  0.00  0.00    -0.051 Br
ENDBRANCH   1   5
BRANCH   3  17
HETATM   17  C   UNK N   1      32.444  15.880   8.288  0.00  0.00     0.048 A 
HETATM   18  C   UNK N   1      31.987  15.197   7.159  0.00  0.00     0.032 A 
HETATM   19  C   UNK N   1      30.896  15.693   6.439  0.00  0.00     0.027 A 
HETATM   20  C   UNK N   1      30.277  16.884   6.839  0.00  0.00     0.079 A 
HETATM   21  C   UNK N   1      30.725  17.562   7.970  0.00  0.00     0.027 A 
HETATM   22  C   UNK N   1      31.809  17.068   8.688  0.00  0.00     0.032 A 
BRANCH  20  23
HETATM   23  S   UNK N   1      28.926  17.563   5.897  0.00  0.00     0.256 S 
HETATM   24  O   UNK N   1      27.835  16.526   5.598  0.00  0.00    -0.201 OA
HETATM   25  O   UNK N   1      28.155  18.646   6.666  0.00  0.00    -0.201 OA
BRANCH  23  26
HETATM   26  N   UNK N   1      29.313  18.301   4.343  0.00  0.00    -0.324 N 
HETATM   27  H   UNK N   1      29.638  17.788   3.525  0.00  0.00     0.169 HD
HETATM   28  H   UNK N   1      29.204  19.312   4.258  0.00  0.00     0.169 HD
ENDBRANCH  23  26
ENDBRANCH  20  23
ENDBRANCH   3  17
TORSDOF 4
ENDMDL
