MODEL 1
REMARK VINA RESULT:      -7.4      0.000      0.000
REMARK  5 active torsions:
REMARK  status: ('A' for Active; 'I' for Inactive)
REMARK    1  A    between atoms: C_1  and  O_16 
REMARK    2  A    between atoms: C_5  and  C_17 
REMARK    3  A    between atoms: C_6  and  O_15 
REMARK    4  A    between atoms: C_14  and  O_19 
REMARK    5  A    between atoms: C_17  and  O_18 
ROOT
HETATM    1  C   UNK N   1      20.376  17.454   0.917  0.00  0.00     0.102 A 
HETATM    2  C   UNK N   1      20.279  16.456   1.868  0.00  0.00     0.077 A 
HETATM    3  C   UNK N   1      20.440  16.738   3.216  0.00  0.00     0.093 A 
HETATM    4  C   UNK N   1      20.720  18.062   3.659  0.00  0.00     0.069 A 
HETATM    5  C   UNK N   1      20.757  19.129   2.672  0.00  0.00     0.090 A 
HETATM    6  C   UNK N   1      20.600  18.776   1.300  0.00  0.00     0.117 A 
HETATM    7  O   UNK N   1      20.330  15.731   4.076  0.00  0.00    -0.313 OA
HETATM    8  C   UNK N   1      20.488  15.876   5.382  0.00  0.00     0.071 A 
HETATM    9  C   UNK N   1      20.829  17.116   5.921  0.00  0.00     0.077 A 
HETATM   10  C   UNK N   1      20.966  18.218   5.056  0.00  0.00     0.199 A 
HETATM   11  C   UNK N   1      20.345  14.682   6.265  0.00  0.00     0.097 C 
HETATM   12  C   UNK N   1      21.067  14.909   7.587  0.00  0.00     0.127 C 
HETATM   13  O   UNK N   1      20.646  16.119   8.173  0.00  0.00    -0.352 OA
HETATM   14  C   UNK N   1      21.055  17.261   7.425  0.00  0.00     0.300 C 
HETATM   15  C   UNK N   1      20.699  13.773   8.518  0.00  0.00     0.040 C 
HETATM   16  O   UNK N   1      21.317  19.279   5.526  0.00  0.00    -0.287 OA
ENDROOT
BRANCH   5  17
HETATM   17  C   UNK N   1      20.887  20.603   2.999  0.00  0.00     0.180 C 
HETATM   18  O   UNK N   1      21.779  21.267   2.493  0.00  0.00    -0.646 OA
BRANCH  17  19
HETATM   19  O   UNK N   1      19.955  21.255   3.714  0.00  0.00    -0.773 OA
HETATM   20  H   UNK N   1      19.227  21.701   3.327  0.00  0.00     0.167 HD
ENDBRANCH  17  19
ENDBRANCH   5  17
BRANCH   6  21
HETATM   21  O   UNK N   1      20.633  19.715   0.334  0.00  0.00    -0.357 OA
HETATM   22  H   UNK N   1      19.834  20.043  -0.030  0.00  0.00     0.217 HD
ENDBRANCH   6  21
BRANCH   1  23
HETATM   23  O   UNK N   1      20.228  17.142  -0.382  0.00  0.00    -0.358 OA
HETATM   24  H   UNK N   1      20.689  17.629  -1.037  0.00  0.00     0.217 HD
ENDBRANCH   1  23
BRANCH  14  25
HETATM   25  O   UNK N   1      20.287  18.359   7.868  0.00  0.00    -0.362 OA
HETATM   26  C   UNK N   1      19.512  17.940   8.960  0.00  0.00     0.205 C 
ENDBRANCH  14  25
TORSDOF 5
ENDMDL
MODEL 2
REMARK VINA RESULT:      -7.0      1.273      3.528
REMARK  5 active torsions:
REMARK  status: ('A' for Active; 'I' for Inactive)
REMARK    1  A    between atoms: C_1  and  O_16 
REMARK    2  A    between atoms: C_5  and  C_17 
REMARK    3  A    between atoms: C_6  and  O_15 
REMARK    4  A    between atoms: C_14  and  O_19 
REMARK    5  A    between atoms: C_17  and  O_18 
ROOT
HETATM    1  C   UNK N   1      21.127  20.091   2.767  0.00  0.00     0.102 A 
HETATM    2  C   UNK N   1      21.280  19.609   4.054  0.00  0.00     0.077 A 
HETATM    3  C   UNK N   1      20.947  18.301   4.370  0.00  0.00     0.093 A 
HETATM    4  C   UNK N   1      20.427  17.418   3.380  0.00  0.00     0.069 A 
HETATM    5  C   UNK N   1      20.326  17.895   2.011  0.00  0.00     0.090 A 
HETATM    6  C   UNK N   1      20.670  19.254   1.750  0.00  0.00     0.117 A 
HETATM    7  O   UNK N   1      21.123  17.903   5.625  0.00  0.00    -0.313 OA
HETATM    8  C   UNK N   1      20.818  16.687   6.048  0.00  0.00     0.071 A 
HETATM    9  C   UNK N   1      20.243  15.760   5.180  0.00  0.00     0.077 A 
HETATM   10  C   UNK N   1      20.025  16.128   3.839  0.00  0.00     0.199 A 
HETATM   11  C   UNK N   1      21.053  16.338   7.479  0.00  0.00     0.097 C 
HETATM   12  C   UNK N   1      20.179  15.160   7.890  0.00  0.00     0.127 C 
HETATM   13  O   UNK N   1      20.352  14.087   6.993  0.00  0.00    -0.352 OA
HETATM   14  C   UNK N   1      19.850  14.374   5.691  0.00  0.00     0.300 C 
HETATM   15  C   UNK N   1      20.621  14.710   9.266  0.00  0.00     0.040 C 
HETATM   16  O   UNK N   1      19.473  15.335   3.107  0.00  0.00    -0.287 OA
ENDROOT
BRANCH   5  17
HETATM   17  C   UNK N   1      19.943  17.035   0.823  0.00  0.00     0.180 C 
HETATM   18  O   UNK N   1      20.753  16.258   0.342  0.00  0.00    -0.646 OA
BRANCH  17  19
HETATM   19  O   UNK N   1      18.681  16.980   0.365  0.00  0.00    -0.773 OA
HETATM   20  H   UNK N   1      18.003  16.486   0.783  0.00  0.00     0.167 HD
ENDBRANCH  17  19
ENDBRANCH   5  17
BRANCH   6  21
HETATM   21  O   UNK N   1      20.590  19.763   0.504  0.00  0.00    -0.357 OA
HETATM   22  H   UNK N   1      19.871  19.533  -0.051  0.00  0.00     0.217 HD
ENDBRANCH   6  21
BRANCH   1  23
HETATM   23  O   UNK N   1      21.447  21.368   2.500  0.00  0.00    -0.358 OA
HETATM   24  H   UNK N   1      21.146  22.055   3.062  0.00  0.00     0.217 HD
ENDBRANCH   1  23
BRANCH  14  25
HETATM   25  O   UNK N   1      20.396  13.422   4.804  0.00  0.00    -0.362 OA
HETATM   26  C   UNK N   1      21.678  13.080   5.261  0.00  0.00     0.205 C 
ENDBRANCH  14  25
TORSDOF 5
ENDMDL
MODEL 3
REMARK VINA RESULT:      -6.9      3.867      4.855
REMARK  5 active torsions:
REMARK  status: ('A' for Active; 'I' for Inactive)
REMARK    1  A    between atoms: C_1  and  O_16 
REMARK    2  A    between atoms: C_5  and  C_17 
REMARK    3  A    between atoms: C_6  and  O_15 
REMARK    4  A    between atoms: C_14  and  O_19 
REMARK    5  A    between atoms: C_17  and  O_18 
ROOT
HETATM    1  C   UNK N   1      20.373  16.763   3.047  0.00  0.00     0.102 A 
HETATM    2  C   UNK N   1      21.624  16.322   3.437  0.00  0.00     0.077 A 
HETATM    3  C   UNK N   1      22.661  17.219   3.647  0.00  0.00     0.093 A 
HETATM    4  C   UNK N   1      22.471  18.617   3.456  0.00  0.00     0.069 A 
HETATM    5  C   UNK N   1      21.142  19.095   3.111  0.00  0.00     0.090 A 
HETATM    6  C   UNK N   1      20.119  18.125   2.894  0.00  0.00     0.117 A 
HETATM    7  O   UNK N   1      23.836  16.727   4.025  0.00  0.00    -0.313 OA
HETATM    8  C   UNK N   1      24.903  17.483   4.231  0.00  0.00     0.071 A 
HETATM    9  C   UNK N   1      24.849  18.858   4.012  0.00  0.00     0.077 A 
HETATM   10  C   UNK N   1      23.632  19.434   3.602  0.00  0.00     0.199 A 
HETATM   11  C   UNK N   1      26.179  16.834   4.654  0.00  0.00     0.097 C 
HETATM   12  C   UNK N   1      27.366  17.728   4.320  0.00  0.00     0.127 C 
HETATM   13  O   UNK N   1      27.168  19.020   4.845  0.00  0.00    -0.352 OA
HETATM   14  C   UNK N   1      26.100  19.714   4.206  0.00  0.00     0.300 C 
HETATM   15  C   UNK N   1      28.596  17.129   4.969  0.00  0.00     0.040 C 
HETATM   16  O   UNK N   1      23.609  20.622   3.360  0.00  0.00    -0.287 OA
ENDROOT
BRANCH   5  17
HETATM   17  C   UNK N   1      20.744  20.554   3.027  0.00  0.00     0.180 C 
HETATM   18  O   UNK N   1      20.079  21.061   3.918  0.00  0.00    -0.646 OA
BRANCH  17  19
HETATM   19  O   UNK N   1      21.229  21.368   2.074  0.00  0.00    -0.773 OA
HETATM   20  H   UNK N   1      20.694  21.759   1.410  0.00  0.00     0.167 HD
ENDBRANCH  17  19
ENDBRANCH   5  17
BRANCH   6  21
HETATM   21  O   UNK N   1      18.868  18.500   2.562  0.00  0.00    -0.357 OA
HETATM   22  H   UNK N   1      18.462  18.153   1.792  0.00  0.00     0.217 HD
ENDBRANCH   6  21
BRANCH   1  23
HETATM   23  O   UNK N   1      19.395  15.865   2.839  0.00  0.00    -0.358 OA
HETATM   24  H   UNK N   1      18.801  15.649   3.531  0.00  0.00     0.217 HD
ENDBRANCH   1  23
BRANCH  14  25
HETATM   25  O   UNK N   1      25.747  20.804   5.030  0.00  0.00    -0.362 OA
HETATM   26  C   UNK N   1      26.842  21.105   5.854  0.00  0.00     0.205 C 
ENDBRANCH  14  25
TORSDOF 5
ENDMDL
MODEL 4
REMARK VINA RESULT:      -6.9     13.526     15.128
REMARK  5 active torsions:
REMARK  status: ('A' for Active; 'I' for Inactive)
REMARK    1  A    between atoms: C_1  and  O_16 
REMARK    2  A    between atoms: C_5  and  C_17 
REMARK    3  A    between atoms: C_6  and  O_15 
REMARK    4  A    between atoms: C_14  and  O_19 
REMARK    5  A    between atoms: C_17  and  O_18 
ROOT
HETATM    1  C   UNK N   1      32.139  20.239  -4.198  0.00  0.00     0.102 A 
HETATM    2  C   UNK N   1      31.467  20.136  -5.402  0.00  0.00     0.077 A 
HETATM    3  C   UNK N   1      30.430  21.003  -5.716  0.00  0.00     0.093 A 
HETATM    4  C   UNK N   1      30.022  22.017  -4.803  0.00  0.00     0.069 A 
HETATM    5  C   UNK N   1      30.767  22.176  -3.566  0.00  0.00     0.090 A 
HETATM    6  C   UNK N   1      31.812  21.245  -3.291  0.00  0.00     0.117 A 
HETATM    7  O   UNK N   1      29.830  20.849  -6.891  0.00  0.00    -0.313 OA
HETATM    8  C   UNK N   1      28.816  21.600  -7.288  0.00  0.00     0.071 A 
HETATM    9  C   UNK N   1      28.291  22.582  -6.449  0.00  0.00     0.077 A 
HETATM   10  C   UNK N   1      28.882  22.785  -5.188  0.00  0.00     0.199 A 
HETATM   11  C   UNK N   1      28.209  21.348  -8.628  0.00  0.00     0.097 C 
HETATM   12  C   UNK N   1      26.788  21.896  -8.680  0.00  0.00     0.127 C 
HETATM   13  O   UNK N   1      26.770  23.246  -8.278  0.00  0.00    -0.352 OA
HETATM   14  C   UNK N   1      27.089  23.411  -6.899  0.00  0.00     0.300 C 
HETATM   15  C   UNK N   1      26.312  21.816 -10.115  0.00  0.00     0.040 C 
HETATM   16  O   UNK N   1      28.384  23.602  -4.443  0.00  0.00    -0.287 OA
ENDROOT
BRANCH   5  17
HETATM   17  C   UNK N   1      30.558  23.299  -2.570  0.00  0.00     0.180 C 
HETATM   18  O   UNK N   1      30.357  23.045  -1.393  0.00  0.00    -0.646 OA
BRANCH  17  19
HETATM   19  O   UNK N   1      30.741  24.587  -2.906  0.00  0.00    -0.773 OA
HETATM   20  H   UNK N   1      30.379  25.302  -2.420  0.00  0.00     0.167 HD
ENDBRANCH  17  19
ENDBRANCH   5  17
BRANCH   6  21
HETATM   21  O   UNK N   1      32.536  21.330  -2.157  0.00  0.00    -0.357 OA
HETATM   22  H   UNK N   1      32.128  21.603  -1.359  0.00  0.00     0.217 HD
ENDBRANCH   6  21
BRANCH   1  23
HETATM   23  O   UNK N   1      33.129  19.373  -3.921  0.00  0.00    -0.358 OA
HETATM   24  H   UNK N   1      33.695  19.073  -4.605  0.00  0.00     0.217 HD
ENDBRANCH   1  23
BRANCH  14  25
HETATM   25  O   UNK N   1      27.409  24.771  -6.695  0.00  0.00    -0.362 OA
HETATM   26  C   UNK N   1      26.210  25.492  -6.588  0.00  0.00     0.205 C 
ENDBRANCH  14  25
TORSDOF 5
ENDMDL
MODEL 5
REMARK VINA RESULT:      -6.6     13.351     15.041
REMARK  5 active torsions:
REMARK  status: ('A' for Active; 'I' for Inactive)
REMARK    1  A    between atoms: C_1  and  O_16 
REMARK    2  A    between atoms: C_5  and  C_17 
REMARK    3  A    between atoms: C_6  and  O_15 
REMARK    4  A    between atoms: C_14  and  O_19 
REMARK    5  A    between atoms: C_17  and  O_18 
ROOT
HETATM    1  C   UNK N   1      31.409  21.571  -3.147  0.00  0.00     0.102 A 
HETATM    2  C   UNK N   1      30.395  22.505  -3.052  0.00  0.00     0.077 A 
HETATM    3  C   UNK N   1      29.530  22.729  -4.113  0.00  0.00     0.093 A 
HETATM    4  C   UNK N   1      29.670  22.011  -5.335  0.00  0.00     0.069 A 
HETATM    5  C   UNK N   1      30.691  20.980  -5.420  0.00  0.00     0.090 A 
HETATM    6  C   UNK N   1      31.559  20.806  -4.303  0.00  0.00     0.117 A 
HETATM    7  O   UNK N   1      28.575  23.639  -3.952  0.00  0.00    -0.313 OA
HETATM    8  C   UNK N   1      27.710  23.954  -4.902  0.00  0.00     0.071 A 
HETATM    9  C   UNK N   1      27.793  23.360  -6.161  0.00  0.00     0.077 A 
HETATM   10  C   UNK N   1      28.790  22.395  -6.392  0.00  0.00     0.199 A 
HETATM   11  C   UNK N   1      26.674  24.991  -4.623  0.00  0.00     0.097 C 
HETATM   12  C   UNK N   1      26.156  25.590  -5.924  0.00  0.00     0.127 C 
HETATM   13  O   UNK N   1      25.736  24.569  -6.799  0.00  0.00    -0.352 OA
HETATM   14  C   UNK N   1      26.818  23.767  -7.265  0.00  0.00     0.300 C 
HETATM   15  C   UNK N   1      24.961  26.459  -5.592  0.00  0.00     0.040 C 
HETATM   16  O   UNK N   1      28.890  21.925  -7.505  0.00  0.00    -0.287 OA
ENDROOT
BRANCH   5  17
HETATM   17  C   UNK N   1      30.862  20.029  -6.587  0.00  0.00     0.180 C 
HETATM   18  O   UNK N   1      31.968  19.844  -7.070  0.00  0.00    -0.646 OA
BRANCH  17  19
HETATM   19  O   UNK N   1      29.856  19.251  -7.021  0.00  0.00    -0.773 OA
HETATM   20  H   UNK N   1      29.636  18.428  -6.630  0.00  0.00     0.167 HD
ENDBRANCH  17  19
ENDBRANCH   5  17
BRANCH   6  21
HETATM   21  O   UNK N   1      32.532  19.874  -4.320  0.00  0.00    -0.357 OA
HETATM   22  H   UNK N   1      32.944  19.610  -3.520  0.00  0.00     0.217 HD
ENDBRANCH   6  21
BRANCH   1  23
HETATM   23  O   UNK N   1      32.237  21.390  -2.104  0.00  0.00    -0.358 OA
HETATM   24  H   UNK N   1      32.001  21.713  -1.256  0.00  0.00     0.217 HD
ENDBRANCH   1  23
BRANCH  14  25
HETATM   25  O   UNK N   1      26.270  22.585  -7.806  0.00  0.00    -0.362 OA
HETATM   26  C   UNK N   1      25.206  22.178  -6.987  0.00  0.00     0.205 C 
ENDBRANCH  14  25
TORSDOF 5
ENDMDL
MODEL 6
REMARK VINA RESULT:      -6.4     13.327     15.720
REMARK  5 active torsions:
REMARK  status: ('A' for Active; 'I' for Inactive)
REMARK    1  A    between atoms: C_1  and  O_16 
REMARK    2  A    between atoms: C_5  and  C_17 
REMARK    3  A    between atoms: C_6  and  O_15 
REMARK    4  A    between atoms: C_14  and  O_19 
REMARK    5  A    between atoms: C_17  and  O_18 
ROOT
HETATM    1  C   UNK N   1      31.913  21.371  -2.973  0.00  0.00     0.102 A 
HETATM    2  C   UNK N   1      32.087  20.617  -4.118  0.00  0.00     0.077 A 
HETATM    3  C   UNK N   1      31.235  20.761  -5.203  0.00  0.00     0.093 A 
HETATM    4  C   UNK N   1      30.151  21.685  -5.165  0.00  0.00     0.069 A 
HETATM    5  C   UNK N   1      30.002  22.530  -3.992  0.00  0.00     0.090 A 
HETATM    6  C   UNK N   1      30.898  22.325  -2.903  0.00  0.00     0.117 A 
HETATM    7  O   UNK N   1      31.462  20.007  -6.272  0.00  0.00    -0.313 OA
HETATM    8  C   UNK N   1      30.702  20.041  -7.355  0.00  0.00     0.071 A 
HETATM    9  C   UNK N   1      29.575  20.860  -7.404  0.00  0.00     0.077 A 
HETATM   10  C   UNK N   1      29.281  21.677  -6.296  0.00  0.00     0.199 A 
HETATM   11  C   UNK N   1      31.040  19.152  -8.505  0.00  0.00     0.097 C 
HETATM   12  C   UNK N   1      29.815  18.928  -9.383  0.00  0.00     0.127 C 
HETATM   13  O   UNK N   1      29.244  20.163  -9.750  0.00  0.00    -0.352 OA
HETATM   14  C   UNK N   1      28.678  20.856  -8.642  0.00  0.00     0.300 C 
HETATM   15  C   UNK N   1      30.268  18.216 -10.640  0.00  0.00     0.040 C 
HETATM   16  O   UNK N   1      28.269  22.344  -6.326  0.00  0.00    -0.287 OA
ENDROOT
BRANCH   5  17
HETATM   17  C   UNK N   1      29.002  23.661  -3.865  0.00  0.00     0.180 C 
HETATM   18  O   UNK N   1      28.194  23.666  -2.949  0.00  0.00    -0.646 OA
BRANCH  17  19
HETATM   19  O   UNK N   1      29.067  24.756  -4.642  0.00  0.00    -0.773 OA
HETATM   20  H   UNK N   1      29.148  25.625  -4.301  0.00  0.00     0.167 HD
ENDBRANCH  17  19
ENDBRANCH   5  17
BRANCH   6  21
HETATM   21  O   UNK N   1      30.809  23.068  -1.782  0.00  0.00    -0.357 OA
HETATM   22  H   UNK N   1      31.305  23.859  -1.702  0.00  0.00     0.217 HD
ENDBRANCH   6  21
BRANCH   1  23
HETATM   23  O   UNK N   1      32.749  21.195  -1.936  0.00  0.00    -0.358 OA
HETATM   24  H   UNK N   1      33.493  21.756  -1.832  0.00  0.00     0.217 HD
ENDBRANCH   1  23
BRANCH  14  25
HETATM   25  O   UNK N   1      28.484  22.198  -9.032  0.00  0.00    -0.362 OA
HETATM   26  C   UNK N   1      29.485  22.536  -9.955  0.00  0.00     0.205 C 
ENDBRANCH  14  25
TORSDOF 5
ENDMDL
MODEL 7
REMARK VINA RESULT:      -6.3     10.586     11.610
REMARK  5 active torsions:
REMARK  status: ('A' for Active; 'I' for Inactive)
REMARK    1  A    between atoms: C_1  and  O_16 
REMARK    2  A    between atoms: C_5  and  C_17 
REMARK    3  A    between atoms: C_6  and  O_15 
REMARK    4  A    between atoms: C_14  and  O_19 
REMARK    5  A    between atoms: C_17  and  O_18 
ROOT
HETATM    1  C   UNK N   1      28.465  18.339   5.239  0.00  0.00     0.102 A 
HETATM    2  C   UNK N   1      29.623  17.712   4.818  0.00  0.00     0.077 A 
HETATM    3  C   UNK N   1      30.538  17.216   5.735  0.00  0.00     0.093 A 
HETATM    4  C   UNK N   1      30.317  17.348   7.135  0.00  0.00     0.069 A 
HETATM    5  C   UNK N   1      29.071  17.945   7.587  0.00  0.00     0.090 A 
HETATM    6  C   UNK N   1      28.176  18.450   6.598  0.00  0.00     0.117 A 
HETATM    7  O   UNK N   1      31.628  16.622   5.260  0.00  0.00    -0.313 OA
HETATM    8  C   UNK N   1      32.581  16.134   6.038  0.00  0.00     0.071 A 
HETATM    9  C   UNK N   1      32.500  16.264   7.424  0.00  0.00     0.077 A 
HETATM   10  C   UNK N   1      31.372  16.893   7.983  0.00  0.00     0.199 A 
HETATM   11  C   UNK N   1      33.768  15.485   5.408  0.00  0.00     0.097 C 
HETATM   12  C   UNK N   1      34.948  15.485   6.371  0.00  0.00     0.127 C 
HETATM   13  O   UNK N   1      34.569  14.929   7.609  0.00  0.00    -0.352 OA
HETATM   14  C   UNK N   1      33.629  15.739   8.309  0.00  0.00     0.300 C 
HETATM   15  C   UNK N   1      36.038  14.622   5.771  0.00  0.00     0.040 C 
HETATM   16  O   UNK N   1      31.336  17.051   9.184  0.00  0.00    -0.287 OA
ENDROOT
BRANCH   5  17
HETATM   17  C   UNK N   1      28.621  18.015   9.032  0.00  0.00     0.180 C 
HETATM   18  O   UNK N   1      27.719  17.293   9.429  0.00  0.00    -0.646 OA
BRANCH  17  19
HETATM   19  O   UNK N   1      29.285  18.740   9.948  0.00  0.00    -0.773 OA
HETATM   20  H   UNK N   1      29.911  18.372  10.540  0.00  0.00     0.167 HD
ENDBRANCH  17  19
ENDBRANCH   5  17
BRANCH   6  21
HETATM   21  O   UNK N   1      27.008  19.024   6.949  0.00  0.00    -0.357 OA
HETATM   22  H   UNK N   1      26.196  18.624   6.707  0.00  0.00     0.217 HD
ENDBRANCH   6  21
BRANCH   1  23
HETATM   23  O   UNK N   1      27.606  18.820   4.323  0.00  0.00    -0.358 OA
HETATM   24  H   UNK N   1      26.733  19.049   4.574  0.00  0.00     0.217 HD
ENDBRANCH   1  23
BRANCH  14  25
HETATM   25  O   UNK N   1      33.045  14.941   9.316  0.00  0.00    -0.362 OA
HETATM   26  C   UNK N   1      33.938  14.874  10.397  0.00  0.00     0.205 C 
ENDBRANCH  14  25
TORSDOF 5
ENDMDL
MODEL 8
REMARK VINA RESULT:      -6.2      3.738      8.376
REMARK  5 active torsions:
REMARK  status: ('A' for Active; 'I' for Inactive)
REMARK    1  A    between atoms: C_1  and  O_16 
REMARK    2  A    between atoms: C_5  and  C_17 
REMARK    3  A    between atoms: C_6  and  O_15 
REMARK    4  A    between atoms: C_14  and  O_19 
REMARK    5  A    between atoms: C_17  and  O_18 
ROOT
HETATM    1  C   UNK N   1      24.225  12.347  10.765  0.00  0.00     0.102 A 
HETATM    2  C   UNK N   1      24.704  12.811   9.554  0.00  0.00     0.077 A 
HETATM    3  C   UNK N   1      23.836  13.254   8.567  0.00  0.00     0.093 A 
HETATM    4  C   UNK N   1      22.426  13.235   8.769  0.00  0.00     0.069 A 
HETATM    5  C   UNK N   1      21.917  12.813  10.063  0.00  0.00     0.090 A 
HETATM    6  C   UNK N   1      22.857  12.354  11.033  0.00  0.00     0.117 A 
HETATM    7  O   UNK N   1      24.364  13.690   7.429  0.00  0.00    -0.313 OA
HETATM    8  C   UNK N   1      23.635  14.113   6.409  0.00  0.00     0.071 A 
HETATM    9  C   UNK N   1      22.243  14.079   6.471  0.00  0.00     0.077 A 
HETATM   10  C   UNK N   1      21.626  13.619   7.650  0.00  0.00     0.199 A 
HETATM   11  C   UNK N   1      24.324  14.583   5.171  0.00  0.00     0.097 C 
HETATM   12  C   UNK N   1      23.382  14.507   3.977  0.00  0.00     0.127 C 
HETATM   13  O   UNK N   1      22.176  15.178   4.261  0.00  0.00    -0.352 OA
HETATM   14  C   UNK N   1      21.411  14.525   5.270  0.00  0.00     0.300 C 
HETATM   15  C   UNK N   1      24.053  15.201   2.810  0.00  0.00     0.040 C 
HETATM   16  O   UNK N   1      20.417  13.540   7.675  0.00  0.00    -0.287 OA
ENDROOT
BRANCH   5  17
HETATM   17  C   UNK N   1      20.464  12.885  10.485  0.00  0.00     0.180 C 
HETATM   18  O   UNK N   1      19.985  12.008  11.188  0.00  0.00    -0.646 OA
BRANCH  17  19
HETATM   19  O   UNK N   1      19.707  13.969  10.242  0.00  0.00    -0.773 OA
HETATM   20  H   UNK N   1      18.863  14.104  10.625  0.00  0.00     0.167 HD
ENDBRANCH  17  19
ENDBRANCH   5  17
BRANCH   6  21
HETATM   21  O   UNK N   1      22.451  11.940  12.250  0.00  0.00    -0.357 OA
HETATM   22  H   UNK N   1      22.458  12.534  12.974  0.00  0.00     0.217 HD
ENDBRANCH   6  21
BRANCH   1  23
HETATM   23  O   UNK N   1      25.094  11.912  11.693  0.00  0.00    -0.358 OA
HETATM   24  H   UNK N   1      25.880  11.474  11.431  0.00  0.00     0.217 HD
ENDBRANCH   1  23
BRANCH  14  25
HETATM   25  O   UNK N   1      20.447  15.445   5.736  0.00  0.00    -0.362 OA
HETATM   26  C   UNK N   1      21.002  16.732   5.674  0.00  0.00     0.205 C 
ENDBRANCH  14  25
TORSDOF 5
ENDMDL
MODEL 9
REMARK VINA RESULT:      -6.2     18.259     21.222
REMARK  5 active torsions:
REMARK  status: ('A' for Active; 'I' for Inactive)
REMARK    1  A    between atoms: C_1  and  O_16 
REMARK    2  A    between atoms: C_5  and  C_17 
REMARK    3  A    between atoms: C_6  and  O_15 
REMARK    4  A    between atoms: C_14  and  O_19 
REMARK    5  A    between atoms: C_17  and  O_18 
ROOT
HETATM    1  C   UNK N   1      35.030  12.886  19.523  0.00  0.00     0.102 A 
HETATM    2  C   UNK N   1      35.059  13.519  18.295  0.00  0.00     0.077 A 
HETATM    3  C   UNK N   1      35.443  12.835  17.150  0.00  0.00     0.093 A 
HETATM    4  C   UNK N   1      35.828  11.465  17.210  0.00  0.00     0.069 A 
HETATM    5  C   UNK N   1      35.736  10.775  18.486  0.00  0.00     0.090 A 
HETATM    6  C   UNK N   1      35.349  11.534  19.630  0.00  0.00     0.117 A 
HETATM    7  O   UNK N   1      35.444  13.504  16.002  0.00  0.00    -0.313 OA
HETATM    8  C   UNK N   1      35.815  12.963  14.853  0.00  0.00     0.071 A 
HETATM    9  C   UNK N   1      36.273  11.648  14.803  0.00  0.00     0.077 A 
HETATM   10  C   UNK N   1      36.301  10.893  15.991  0.00  0.00     0.199 A 
HETATM   11  C   UNK N   1      35.782  13.799  13.616  0.00  0.00     0.097 C 
HETATM   12  C   UNK N   1      36.713  13.220  12.559  0.00  0.00     0.127 C 
HETATM   13  O   UNK N   1      36.428  11.857  12.347  0.00  0.00    -0.352 OA
HETATM   14  C   UNK N   1      36.743  11.050  13.478  0.00  0.00     0.300 C 
HETATM   15  C   UNK N   1      36.469  13.968  11.265  0.00  0.00     0.040 C 
HETATM   16  O   UNK N   1      36.753   9.769  15.949  0.00  0.00    -0.287 OA
ENDROOT
BRANCH   5  17
HETATM   17  C   UNK N   1      35.959   9.289  18.681  0.00  0.00     0.180 C 
HETATM   18  O   UNK N   1      36.831   8.894  19.440  0.00  0.00    -0.646 OA
BRANCH  17  19
HETATM   19  O   UNK N   1      35.123   8.373  18.164  0.00  0.00    -0.773 OA
HETATM   20  H   UNK N   1      34.357   8.066  18.609  0.00  0.00     0.167 HD
ENDBRANCH  17  19
ENDBRANCH   5  17
BRANCH   6  21
HETATM   21  O   UNK N   1      35.253  10.957  20.844  0.00  0.00    -0.357 OA
HETATM   22  H   UNK N   1      34.418  10.683  21.169  0.00  0.00     0.217 HD
ENDBRANCH   6  21
BRANCH   1  23
HETATM   23  O   UNK N   1      34.665  13.583  20.614  0.00  0.00    -0.358 OA
HETATM   24  H   UNK N   1      34.900  14.487  20.692  0.00  0.00     0.217 HD
ENDBRANCH   1  23
BRANCH  14  25
HETATM   25  O   UNK N   1      36.088   9.811  13.313  0.00  0.00    -0.362 OA
HETATM   26  C   UNK N   1      34.867  10.042  12.661  0.00  0.00     0.205 C 
ENDBRANCH  14  25
TORSDOF 5
ENDMDL
