MODEL 1
REMARK VINA RESULT:      -6.5      0.000      0.000
REMARK  5 active torsions:
REMARK  status: ('A' for Active; 'I' for Inactive)
REMARK    1  A    between atoms: C_1  and  C_7 
REMARK    2  A    between atoms: C_7  and  N_8 
REMARK    3  A    between atoms: C_7  and  N_9 
REMARK    4  A    between atoms: C_13  and  C_14 
REMARK    5  A    between atoms: C_19  and  O_20 
ROOT
HETATM    1  C   UNK N   1      23.779  19.744   3.514  0.00  0.00     0.009 A 
HETATM    2  C   UNK N   1      24.702  20.526   2.764  0.00  0.00     0.017 A 
HETATM    3  C   UNK N   1      26.078  20.523   3.087  0.00  0.00     0.033 A 
HETATM    4  C   UNK N   1      26.482  19.732   4.161  0.00  0.00     0.060 A 
HETATM    5  C   UNK N   1      25.595  18.994   4.876  0.00  0.00     0.061 A 
HETATM    6  C   UNK N   1      24.242  18.967   4.592  0.00  0.00     0.047 A 
HETATM    7  N   UNK N   1      27.718  19.561   4.661  0.00  0.00    -0.340 N 
ATOM      8  HN  UNK N   1      28.592  19.976   4.339  1.00  0.00     0.167 HD
HETATM    9  N   UNK N   1      26.230  18.340   5.850  0.00  0.00    -0.340 N 
HETATM   10  C   UNK N   1      27.527  18.699   5.701  0.00  0.00     0.119 A 
HETATM   11  H   UNK N   1      25.844  17.733   6.522  0.00  0.00     0.167 HD
ENDROOT
BRANCH  10  12
HETATM   12  C   UNK N   1      28.605  18.206   6.589  0.00  0.00     0.041 A 
HETATM   13  C   UNK N   1      29.687  17.500   6.043  0.00  0.00     0.018 A 
HETATM   14  C   UNK N   1      30.711  17.026   6.868  0.00  0.00     0.001 A 
HETATM   15  C   UNK N   1      30.666  17.256   8.244  0.00  0.00     0.003 A 
HETATM   16  C   UNK N   1      29.598  17.960   8.799  0.00  0.00     0.037 A 
HETATM   17  C   UNK N   1      28.567  18.436   7.985  0.00  0.00     0.079 A 
BRANCH  17  18
HETATM   18  O   UNK N   1      27.555  19.115   8.552  0.00  0.00    -0.360 OA
HETATM   19  H   UNK N   1      27.037  19.702   8.036  0.00  0.00     0.217 HD
ENDBRANCH  17  18
ENDBRANCH  10  12
BRANCH   1  20
HETATM   20  C   UNK N   1      22.340  19.735   3.174  0.00  0.00     0.102 C 
BRANCH  20  21
HETATM   21  N   UNK N   1      21.484  18.748   3.716  0.00  0.00    -0.385 N 
HETATM   22  H   UNK N   1      21.864  17.949   4.147  0.00  0.00     0.157 HD
HETATM   23  H   UNK N   1      20.508  18.862   3.661  0.00  0.00     0.157 HD
ENDBRANCH  20  21
BRANCH  20  24
HETATM   24  N   UNK N   1      21.854  20.628   2.391  0.00  0.00    -0.385 N 
HETATM   25  H   UNK N   1      20.927  20.556   2.067  0.00  0.00     0.157 HD
HETATM   26  H   UNK N   1      22.412  21.389   2.112  0.00  0.00     0.157 HD
ENDBRANCH  20  24
ENDBRANCH   1  20
TORSDOF 5
ENDMDL
MODEL 2
REMARK VINA RESULT:      -6.4      2.711      7.289
REMARK  5 active torsions:
REMARK  status: ('A' for Active; 'I' for Inactive)
REMARK    1  A    between atoms: C_1  and  C_7 
REMARK    2  A    between atoms: C_7  and  N_8 
REMARK    3  A    between atoms: C_7  and  N_9 
REMARK    4  A    between atoms: C_13  and  C_14 
REMARK    5  A    between atoms: C_19  and  O_20 
ROOT
HETATM    1  C   UNK N   1      30.622  16.940   8.444  0.00  0.00     0.009 A 
HETATM    2  C   UNK N   1      29.885  17.619   9.454  0.00  0.00     0.017 A 
HETATM    3  C   UNK N   1      28.745  18.385   9.122  0.00  0.00     0.033 A 
HETATM    4  C   UNK N   1      28.383  18.446   7.777  0.00  0.00     0.060 A 
HETATM    5  C   UNK N   1      29.096  17.802   6.818  0.00  0.00     0.061 A 
HETATM    6  C   UNK N   1      30.214  17.040   7.100  0.00  0.00     0.047 A 
HETATM    7  N   UNK N   1      27.354  19.101   7.212  0.00  0.00    -0.340 N 
ATOM      8  HN  UNK N   1      26.641  19.669   7.669  1.00  0.00     0.167 HD
HETATM    9  N   UNK N   1      28.552  18.027   5.621  0.00  0.00    -0.340 N 
HETATM   10  C   UNK N   1      27.488  18.823   5.884  0.00  0.00     0.119 A 
HETATM   11  H   UNK N   1      28.854  17.691   4.747  0.00  0.00     0.167 HD
ENDROOT
BRANCH  10  12
HETATM   12  C   UNK N   1      26.585  19.334   4.826  0.00  0.00     0.041 A 
HETATM   13  C   UNK N   1      27.059  20.276   3.903  0.00  0.00     0.018 A 
HETATM   14  C   UNK N   1      26.219  20.769   2.900  0.00  0.00     0.001 A 
HETATM   15  C   UNK N   1      24.899  20.323   2.809  0.00  0.00     0.003 A 
HETATM   16  C   UNK N   1      24.416  19.384   3.719  0.00  0.00     0.037 A 
HETATM   17  C   UNK N   1      25.246  18.885   4.727  0.00  0.00     0.079 A 
BRANCH  17  18
HETATM   18  O   UNK N   1      24.750  17.977   5.584  0.00  0.00    -0.360 OA
HETATM   19  H   UNK N   1      23.825  17.922   5.727  0.00  0.00     0.217 HD
ENDBRANCH  17  18
ENDBRANCH  10  12
BRANCH   1  20
HETATM   20  C   UNK N   1      31.810  16.127   8.786  0.00  0.00     0.102 C 
BRANCH  20  21
HETATM   21  N   UNK N   1      31.792  15.276   9.914  0.00  0.00    -0.385 N 
HETATM   22  H   UNK N   1      31.088  15.374  10.595  0.00  0.00     0.157 HD
HETATM   23  H   UNK N   1      32.486  14.585  10.018  0.00  0.00     0.157 HD
ENDBRANCH  20  21
BRANCH  20  24
HETATM   24  N   UNK N   1      32.864  16.183   8.055  0.00  0.00    -0.385 N 
HETATM   25  H   UNK N   1      33.190  17.047   7.716  0.00  0.00     0.157 HD
HETATM   26  H   UNK N   1      33.348  15.356   7.833  0.00  0.00     0.157 HD
ENDBRANCH  20  24
ENDBRANCH   1  20
TORSDOF 5
ENDMDL
MODEL 3
REMARK VINA RESULT:      -6.3      4.692      7.292
REMARK  5 active torsions:
REMARK  status: ('A' for Active; 'I' for Inactive)
REMARK    1  A    between atoms: C_1  and  C_7 
REMARK    2  A    between atoms: C_7  and  N_8 
REMARK    3  A    between atoms: C_7  and  N_9 
REMARK    4  A    between atoms: C_13  and  C_14 
REMARK    5  A    between atoms: C_19  and  O_20 
ROOT
HETATM    1  C   UNK N   1      29.418  17.878   7.680  0.00  0.00     0.009 A 
HETATM    2  C   UNK N   1      29.739  17.479   6.351  0.00  0.00     0.017 A 
HETATM    3  C   UNK N   1      30.947  16.799   6.077  0.00  0.00     0.033 A 
HETATM    4  C   UNK N   1      31.798  16.543   7.150  0.00  0.00     0.060 A 
HETATM    5  C   UNK N   1      31.487  16.933   8.413  0.00  0.00     0.061 A 
HETATM    6  C   UNK N   1      30.317  17.598   8.726  0.00  0.00     0.047 A 
HETATM    7  N   UNK N   1      32.989  15.920   7.149  0.00  0.00    -0.340 N 
ATOM      8  HN  UNK N   1      33.487  15.512   6.358  1.00  0.00     0.167 HD
HETATM    9  N   UNK N   1      32.465  16.580   9.249  0.00  0.00    -0.340 N 
HETATM   10  C   UNK N   1      33.373  15.961   8.457  0.00  0.00     0.119 A 
HETATM   11  H   UNK N   1      32.514  16.732  10.221  0.00  0.00     0.167 HD
ENDROOT
BRANCH  10  12
HETATM   12  C   UNK N   1      34.645  15.406   8.974  0.00  0.00     0.041 A 
HETATM   13  C   UNK N   1      35.207  14.273   8.368  0.00  0.00     0.018 A 
HETATM   14  C   UNK N   1      36.406  13.735   8.846  0.00  0.00     0.001 A 
HETATM   15  C   UNK N   1      37.056  14.326   9.931  0.00  0.00     0.003 A 
HETATM   16  C   UNK N   1      36.510  15.455  10.541  0.00  0.00     0.037 A 
HETATM   17  C   UNK N   1      35.311  15.999  10.074  0.00  0.00     0.079 A 
BRANCH  17  18
HETATM   18  O   UNK N   1      34.815  17.091  10.681  0.00  0.00    -0.360 OA
HETATM   19  H   UNK N   1      34.693  17.883  10.196  0.00  0.00     0.217 HD
ENDBRANCH  17  18
ENDBRANCH  10  12
BRANCH   1  20
HETATM   20  C   UNK N   1      28.151  18.581   7.976  0.00  0.00     0.102 C 
BRANCH  20  21
HETATM   21  N   UNK N   1      27.527  19.376   6.988  0.00  0.00    -0.385 N 
HETATM   22  H   UNK N   1      28.024  19.641   6.181  0.00  0.00     0.157 HD
HETATM   23  H   UNK N   1      26.594  19.666   7.109  0.00  0.00     0.157 HD
ENDBRANCH  20  21
BRANCH  20  24
HETATM   24  N   UNK N   1      27.604  18.468   9.132  0.00  0.00    -0.385 N 
HETATM   25  H   UNK N   1      27.762  17.667   9.682  0.00  0.00     0.157 HD
HETATM   26  H   UNK N   1      27.022  19.186   9.469  0.00  0.00     0.157 HD
ENDBRANCH  20  24
ENDBRANCH   1  20
TORSDOF 5
ENDMDL
MODEL 4
REMARK VINA RESULT:      -6.2      2.798      7.267
REMARK  5 active torsions:
REMARK  status: ('A' for Active; 'I' for Inactive)
REMARK    1  A    between atoms: C_1  and  C_7 
REMARK    2  A    between atoms: C_7  and  N_8 
REMARK    3  A    between atoms: C_7  and  N_9 
REMARK    4  A    between atoms: C_13  and  C_14 
REMARK    5  A    between atoms: C_19  and  O_20 
ROOT
HETATM    1  C   UNK N   1      31.287  16.993   7.450  0.00  0.00     0.009 A 
HETATM    2  C   UNK N   1      31.867  16.821   6.161  0.00  0.00     0.017 A 
HETATM    3  C   UNK N   1      31.154  17.183   4.996  0.00  0.00     0.033 A 
HETATM    4  C   UNK N   1      29.874  17.707   5.164  0.00  0.00     0.060 A 
HETATM    5  C   UNK N   1      29.325  17.862   6.396  0.00  0.00     0.061 A 
HETATM    6  C   UNK N   1      29.987  17.524   7.560  0.00  0.00     0.047 A 
HETATM    7  N   UNK N   1      29.005  18.121   4.226  0.00  0.00    -0.340 N 
ATOM      8  HN  UNK N   1      29.128  18.134   3.213  1.00  0.00     0.167 HD
HETATM    9  N   UNK N   1      28.096  18.370   6.283  0.00  0.00    -0.340 N 
HETATM   10  C   UNK N   1      27.920  18.522   4.948  0.00  0.00     0.119 A 
HETATM   11  H   UNK N   1      27.463  18.587   7.005  0.00  0.00     0.167 HD
ENDROOT
BRANCH  10  12
HETATM   12  C   UNK N   1      26.672  19.058   4.358  0.00  0.00     0.041 A 
HETATM   13  C   UNK N   1      26.735  20.118   3.442  0.00  0.00     0.018 A 
HETATM   14  C   UNK N   1      25.566  20.636   2.878  0.00  0.00     0.001 A 
HETATM   15  C   UNK N   1      24.323  20.098   3.219  0.00  0.00     0.003 A 
HETATM   16  C   UNK N   1      24.247  19.040   4.126  0.00  0.00     0.037 A 
HETATM   17  C   UNK N   1      25.409  18.516   4.699  0.00  0.00     0.079 A 
BRANCH  17  18
HETATM   18  O   UNK N   1      25.300  17.494   5.565  0.00  0.00    -0.360 OA
HETATM   19  H   UNK N   1      25.231  17.664   6.484  0.00  0.00     0.217 HD
ENDBRANCH  17  18
ENDBRANCH  10  12
BRANCH   1  20
HETATM   20  C   UNK N   1      32.030  16.626   8.673  0.00  0.00     0.102 C 
BRANCH  20  21
HETATM   21  N   UNK N   1      33.236  17.286   9.002  0.00  0.00    -0.385 N 
HETATM   22  H   UNK N   1      34.099  16.828   8.879  0.00  0.00     0.157 HD
HETATM   23  H   UNK N   1      33.213  18.205   9.354  0.00  0.00     0.157 HD
ENDBRANCH  20  21
BRANCH  20  24
HETATM   24  N   UNK N   1      31.582  15.710   9.453  0.00  0.00    -0.385 N 
HETATM   25  H   UNK N   1      31.739  15.760  10.423  0.00  0.00     0.157 HD
HETATM   26  H   UNK N   1      31.078  14.953   9.077  0.00  0.00     0.157 HD
ENDBRANCH  20  24
ENDBRANCH   1  20
TORSDOF 5
ENDMDL
MODEL 5
REMARK VINA RESULT:      -6.1      6.209      9.074
REMARK  5 active torsions:
REMARK  status: ('A' for Active; 'I' for Inactive)
REMARK    1  A    between atoms: C_1  and  C_7 
REMARK    2  A    between atoms: C_7  and  N_8 
REMARK    3  A    between atoms: C_7  and  N_9 
REMARK    4  A    between atoms: C_13  and  C_14 
REMARK    5  A    between atoms: C_19  and  O_20 
ROOT
HETATM    1  C   UNK N   1      22.567  13.047  10.016  0.00  0.00     0.009 A 
HETATM    2  C   UNK N   1      21.207  13.302  10.352  0.00  0.00     0.017 A 
HETATM    3  C   UNK N   1      20.413  14.150   9.547  0.00  0.00     0.033 A 
HETATM    4  C   UNK N   1      21.015  14.718   8.426  0.00  0.00     0.060 A 
HETATM    5  C   UNK N   1      22.314  14.476   8.115  0.00  0.00     0.061 A 
HETATM    6  C   UNK N   1      23.125  13.652   8.874  0.00  0.00     0.047 A 
HETATM    7  N   UNK N   1      20.479  15.549   7.514  0.00  0.00    -0.340 N 
ATOM      8  HN  UNK N   1      19.526  15.910   7.472  1.00  0.00     0.167 HD
HETATM    9  N   UNK N   1      22.647  15.143   7.009  0.00  0.00    -0.340 N 
HETATM   10  C   UNK N   1      21.512  15.792   6.657  0.00  0.00     0.119 A 
HETATM   11  H   UNK N   1      23.519  15.158   6.552  0.00  0.00     0.167 HD
ENDROOT
BRANCH  10  12
HETATM   12  C   UNK N   1      21.425  16.674   5.470  0.00  0.00     0.041 A 
HETATM   13  C   UNK N   1      21.443  16.114   4.184  0.00  0.00     0.018 A 
HETATM   14  C   UNK N   1      21.364  16.934   3.055  0.00  0.00     0.001 A 
HETATM   15  C   UNK N   1      21.262  18.319   3.198  0.00  0.00     0.003 A 
HETATM   16  C   UNK N   1      21.239  18.888   4.471  0.00  0.00     0.037 A 
HETATM   17  C   UNK N   1      21.320  18.079   5.608  0.00  0.00     0.079 A 
BRANCH  17  18
HETATM   18  O   UNK N   1      21.291  18.660   6.819  0.00  0.00    -0.360 OA
HETATM   19  H   UNK N   1      22.028  18.587   7.393  0.00  0.00     0.217 HD
ENDBRANCH  17  18
ENDBRANCH  10  12
BRANCH   1  20
HETATM   20  C   UNK N   1      23.400  12.154  10.847  0.00  0.00     0.102 C 
BRANCH  20  21
HETATM   21  N   UNK N   1      24.786  12.395  10.988  0.00  0.00    -0.385 N 
HETATM   22  H   UNK N   1      25.111  13.302  11.191  0.00  0.00     0.157 HD
HETATM   23  H   UNK N   1      25.426  11.654  10.882  0.00  0.00     0.157 HD
ENDBRANCH  20  21
BRANCH  20  24
HETATM   24  N   UNK N   1      22.870  11.155  11.456  0.00  0.00    -0.385 N 
HETATM   25  H   UNK N   1      22.592  11.235  12.396  0.00  0.00     0.157 HD
HETATM   26  H   UNK N   1      22.742  10.304  10.978  0.00  0.00     0.157 HD
ENDBRANCH  20  24
ENDBRANCH   1  20
TORSDOF 5
ENDMDL
MODEL 6
REMARK VINA RESULT:      -6.1     12.358     14.979
REMARK  5 active torsions:
REMARK  status: ('A' for Active; 'I' for Inactive)
REMARK    1  A    between atoms: C_1  and  C_7 
REMARK    2  A    between atoms: C_7  and  N_8 
REMARK    3  A    between atoms: C_7  and  N_9 
REMARK    4  A    between atoms: C_13  and  C_14 
REMARK    5  A    between atoms: C_19  and  O_20 
ROOT
HETATM    1  C   UNK N   1      35.940  14.138  11.852  0.00  0.00     0.009 A 
HETATM    2  C   UNK N   1      35.171  12.991  11.505  0.00  0.00     0.017 A 
HETATM    3  C   UNK N   1      34.719  12.099  12.503  0.00  0.00     0.033 A 
HETATM    4  C   UNK N   1      35.057  12.389  13.824  0.00  0.00     0.060 A 
HETATM    5  C   UNK N   1      35.796  13.481  14.146  0.00  0.00     0.061 A 
HETATM    6  C   UNK N   1      36.256  14.380  13.202  0.00  0.00     0.047 A 
HETATM    7  N   UNK N   1      34.752  11.704  14.940  0.00  0.00    -0.340 N 
ATOM      8  HN  UNK N   1      34.207  10.846  15.024  1.00  0.00     0.167 HD
HETATM    9  N   UNK N   1      35.988  13.524  15.465  0.00  0.00    -0.340 N 
HETATM   10  C   UNK N   1      35.342  12.430  15.932  0.00  0.00     0.119 A 
HETATM   11  H   UNK N   1      36.486  14.199  15.982  0.00  0.00     0.167 HD
ENDROOT
BRANCH  10  12
HETATM   12  C   UNK N   1      35.300  12.072  17.369  0.00  0.00     0.041 A 
HETATM   13  C   UNK N   1      35.356  10.724  17.752  0.00  0.00     0.018 A 
HETATM   14  C   UNK N   1      35.316  10.371  19.104  0.00  0.00     0.001 A 
HETATM   15  C   UNK N   1      35.222  11.359  20.085  0.00  0.00     0.003 A 
HETATM   16  C   UNK N   1      35.170  12.703  19.718  0.00  0.00     0.037 A 
HETATM   17  C   UNK N   1      35.207  13.069  18.370  0.00  0.00     0.079 A 
BRANCH  17  18
HETATM   18  O   UNK N   1      35.159  14.374  18.051  0.00  0.00    -0.360 OA
HETATM   19  H   UNK N   1      34.552  14.677  17.404  0.00  0.00     0.217 HD
ENDBRANCH  17  18
ENDBRANCH  10  12
BRANCH   1  20
HETATM   20  C   UNK N   1      36.407  15.082  10.814  0.00  0.00     0.102 C 
BRANCH  20  21
HETATM   21  N   UNK N   1      35.581  16.149  10.393  0.00  0.00    -0.385 N 
HETATM   22  H   UNK N   1      35.502  16.959  10.947  0.00  0.00     0.157 HD
HETATM   23  H   UNK N   1      35.084  16.080   9.547  0.00  0.00     0.157 HD
ENDBRANCH  20  21
BRANCH  20  24
HETATM   24  N   UNK N   1      37.572  14.945  10.293  0.00  0.00    -0.385 N 
HETATM   25  H   UNK N   1      38.326  14.618  10.835  0.00  0.00     0.157 HD
HETATM   26  H   UNK N   1      37.712  15.167   9.344  0.00  0.00     0.157 HD
ENDBRANCH  20  24
ENDBRANCH   1  20
TORSDOF 5
ENDMDL
MODEL 7
REMARK VINA RESULT:      -6.0      4.130      7.929
REMARK  5 active torsions:
REMARK  status: ('A' for Active; 'I' for Inactive)
REMARK    1  A    between atoms: C_1  and  C_7 
REMARK    2  A    between atoms: C_7  and  N_8 
REMARK    3  A    between atoms: C_7  and  N_9 
REMARK    4  A    between atoms: C_13  and  C_14 
REMARK    5  A    between atoms: C_19  and  O_20 
ROOT
HETATM    1  C   UNK N   1      32.960  17.503   6.999  0.00  0.00     0.009 A 
HETATM    2  C   UNK N   1      33.649  17.613   5.758  0.00  0.00     0.017 A 
HETATM    3  C   UNK N   1      32.960  17.445   4.535  0.00  0.00     0.033 A 
HETATM    4  C   UNK N   1      31.596  17.169   4.600  0.00  0.00     0.060 A 
HETATM    5  C   UNK N   1      30.948  17.059   5.788  0.00  0.00     0.061 A 
HETATM    6  C   UNK N   1      31.582  17.218   7.006  0.00  0.00     0.047 A 
HETATM    7  N   UNK N   1      30.730  16.968   3.592  0.00  0.00    -0.340 N 
ATOM      8  HN  UNK N   1      30.913  16.990   2.589  1.00  0.00     0.167 HD
HETATM    9  N   UNK N   1      29.660  16.782   5.577  0.00  0.00    -0.340 N 
HETATM   10  C   UNK N   1      29.547  16.732   4.228  0.00  0.00     0.119 A 
HETATM   11  H   UNK N   1      28.953  16.647   6.248  0.00  0.00     0.167 HD
ENDROOT
BRANCH  10  12
HETATM   12  C   UNK N   1      28.269  16.439   3.538  0.00  0.00     0.041 A 
HETATM   13  C   UNK N   1      28.209  15.404   2.595  0.00  0.00     0.018 A 
HETATM   14  C   UNK N   1      27.011  15.117   1.934  0.00  0.00     0.001 A 
HETATM   15  C   UNK N   1      25.862  15.860   2.211  0.00  0.00     0.003 A 
HETATM   16  C   UNK N   1      25.907  16.890   3.150  0.00  0.00     0.037 A 
HETATM   17  C   UNK N   1      27.099  17.187   3.815  0.00  0.00     0.079 A 
BRANCH  17  18
HETATM   18  O   UNK N   1      27.107  18.183   4.718  0.00  0.00    -0.360 OA
HETATM   19  H   UNK N   1      27.086  19.076   4.432  0.00  0.00     0.217 HD
ENDBRANCH  17  18
ENDBRANCH  10  12
BRANCH   1  20
HETATM   20  C   UNK N   1      33.672  17.688   8.282  0.00  0.00     0.102 C 
BRANCH  20  21
HETATM   21  N   UNK N   1      34.703  18.649   8.395  0.00  0.00    -0.385 N 
HETATM   22  H   UNK N   1      35.205  18.736   9.238  0.00  0.00     0.157 HD
HETATM   23  H   UNK N   1      34.918  19.230   7.631  0.00  0.00     0.157 HD
ENDBRANCH  20  21
BRANCH  20  24
HETATM   24  N   UNK N   1      33.353  16.983   9.306  0.00  0.00    -0.385 N 
HETATM   25  H   UNK N   1      34.046  16.515   9.824  0.00  0.00     0.157 HD
HETATM   26  H   UNK N   1      32.409  16.911   9.575  0.00  0.00     0.157 HD
ENDBRANCH  20  24
ENDBRANCH   1  20
TORSDOF 5
ENDMDL
MODEL 8
REMARK VINA RESULT:      -6.0      6.886     11.004
REMARK  5 active torsions:
REMARK  status: ('A' for Active; 'I' for Inactive)
REMARK    1  A    between atoms: C_1  and  C_7 
REMARK    2  A    between atoms: C_7  and  N_8 
REMARK    3  A    between atoms: C_7  and  N_9 
REMARK    4  A    between atoms: C_13  and  C_14 
REMARK    5  A    between atoms: C_19  and  O_20 
ROOT
HETATM    1  C   UNK N   1      35.224  14.388  11.583  0.00  0.00     0.009 A 
HETATM    2  C   UNK N   1      35.804  15.685  11.667  0.00  0.00     0.017 A 
HETATM    3  C   UNK N   1      35.444  16.696  10.747  0.00  0.00     0.033 A 
HETATM    4  C   UNK N   1      34.510  16.367   9.766  0.00  0.00     0.060 A 
HETATM    5  C   UNK N   1      33.967  15.126   9.688  0.00  0.00     0.061 A 
HETATM    6  C   UNK N   1      34.288  14.110  10.569  0.00  0.00     0.047 A 
HETATM    7  N   UNK N   1      34.012  17.142   8.787  0.00  0.00    -0.340 N 
ATOM      8  HN  UNK N   1      34.221  18.120   8.588  1.00  0.00     0.167 HD
HETATM    9  N   UNK N   1      33.116  15.068   8.663  0.00  0.00    -0.340 N 
HETATM   10  C   UNK N   1      33.157  16.311   8.125  0.00  0.00     0.119 A 
HETATM   11  H   UNK N   1      32.579  14.298   8.365  0.00  0.00     0.167 HD
ENDROOT
BRANCH  10  12
HETATM   12  C   UNK N   1      32.359  16.701   6.940  0.00  0.00     0.041 A 
HETATM   13  C   UNK N   1      30.970  16.504   6.941  0.00  0.00     0.018 A 
HETATM   14  C   UNK N   1      30.204  16.866   5.829  0.00  0.00     0.001 A 
HETATM   15  C   UNK N   1      30.817  17.430   4.708  0.00  0.00     0.003 A 
HETATM   16  C   UNK N   1      32.196  17.635   4.696  0.00  0.00     0.037 A 
HETATM   17  C   UNK N   1      32.973  17.275   5.800  0.00  0.00     0.079 A 
BRANCH  17  18
HETATM   18  O   UNK N   1      34.299  17.490   5.758  0.00  0.00    -0.360 OA
HETATM   19  H   UNK N   1      34.806  17.152   5.046  0.00  0.00     0.217 HD
ENDBRANCH  17  18
ENDBRANCH  10  12
BRANCH   1  20
HETATM   20  C   UNK N   1      35.587  13.329  12.549  0.00  0.00     0.102 C 
BRANCH  20  21
HETATM   21  N   UNK N   1      36.897  13.261  13.076  0.00  0.00    -0.385 N 
HETATM   22  H   UNK N   1      37.034  13.189  14.048  0.00  0.00     0.157 HD
HETATM   23  H   UNK N   1      37.672  13.287  12.469  0.00  0.00     0.157 HD
ENDBRANCH  20  21
BRANCH  20  24
HETATM   24  N   UNK N   1      34.713  12.467  12.923  0.00  0.00    -0.385 N 
HETATM   25  H   UNK N   1      34.041  12.701  13.603  0.00  0.00     0.157 HD
HETATM   26  H   UNK N   1      34.715  11.566  12.527  0.00  0.00     0.157 HD
ENDBRANCH  20  24
ENDBRANCH   1  20
TORSDOF 5
ENDMDL
MODEL 9
REMARK VINA RESULT:      -6.0     11.120     14.565
REMARK  5 active torsions:
REMARK  status: ('A' for Active; 'I' for Inactive)
REMARK    1  A    between atoms: C_1  and  C_7 
REMARK    2  A    between atoms: C_7  and  N_8 
REMARK    3  A    between atoms: C_7  and  N_9 
REMARK    4  A    between atoms: C_13  and  C_14 
REMARK    5  A    between atoms: C_19  and  O_20 
ROOT
HETATM    1  C   UNK N   1      35.031  12.282  16.767  0.00  0.00     0.009 A 
HETATM    2  C   UNK N   1      34.424  11.079  16.306  0.00  0.00     0.017 A 
HETATM    3  C   UNK N   1      34.219  10.859  14.926  0.00  0.00     0.033 A 
HETATM    4  C   UNK N   1      34.631  11.860  14.048  0.00  0.00     0.060 A 
HETATM    5  C   UNK N   1      35.202  13.007  14.495  0.00  0.00     0.061 A 
HETATM    6  C   UNK N   1      35.423  13.262  15.836  0.00  0.00     0.047 A 
HETATM    7  N   UNK N   1      34.546  11.890  12.707  0.00  0.00    -0.340 N 
ATOM      8  HN  UNK N   1      34.170  11.176  12.082  1.00  0.00     0.167 HD
HETATM    9  N   UNK N   1      35.493  13.801  13.463  0.00  0.00    -0.340 N 
HETATM   10  C   UNK N   1      35.084  13.099  12.379  0.00  0.00     0.119 A 
HETATM   11  H   UNK N   1      35.910  14.692  13.484  0.00  0.00     0.167 HD
ENDROOT
BRANCH  10  12
HETATM   12  C   UNK N   1      35.209  13.612  10.995  0.00  0.00     0.041 A 
HETATM   13  C   UNK N   1      36.257  13.162  10.178  0.00  0.00     0.018 A 
HETATM   14  C   UNK N   1      36.388  13.639   8.870  0.00  0.00     0.001 A 
HETATM   15  C   UNK N   1      35.475  14.566   8.366  0.00  0.00     0.003 A 
HETATM   16  C   UNK N   1      34.427  15.019   9.166  0.00  0.00     0.037 A 
HETATM   17  C   UNK N   1      34.286  14.552  10.476  0.00  0.00     0.079 A 
BRANCH  17  18
HETATM   18  O   UNK N   1      33.262  15.005  11.219  0.00  0.00    -0.360 OA
HETATM   19  H   UNK N   1      33.424  15.384  12.061  0.00  0.00     0.217 HD
ENDBRANCH  17  18
ENDBRANCH  10  12
BRANCH   1  20
HETATM   20  C   UNK N   1      35.258  12.514  18.209  0.00  0.00     0.102 C 
BRANCH  20  21
HETATM   21  N   UNK N   1      35.467  11.425  19.085  0.00  0.00    -0.385 N 
HETATM   22  H   UNK N   1      36.301  11.362  19.604  0.00  0.00     0.157 HD
HETATM   23  H   UNK N   1      34.777  10.728  19.174  0.00  0.00     0.157 HD
ENDBRANCH  20  21
BRANCH  20  24
HETATM   24  N   UNK N   1      35.276  13.710  18.676  0.00  0.00    -0.385 N 
HETATM   25  H   UNK N   1      36.116  14.105  19.003  0.00  0.00     0.157 HD
HETATM   26  H   UNK N   1      34.444  14.234  18.708  0.00  0.00     0.157 HD
ENDBRANCH  20  24
ENDBRANCH   1  20
TORSDOF 5
ENDMDL
