REMARK  5 active torsions:
REMARK  status: ('A' for Active; 'I' for Inactive)
REMARK    1  A    between atoms: C_1  and  C_7 
REMARK    2  A    between atoms: C_7  and  N_8 
REMARK    3  A    between atoms: C_7  and  N_9 
REMARK    4  A    between atoms: C_13  and  C_14 
REMARK    5  A    between atoms: C_19  and  O_20 
ROOT
HETATM    1  C   UNK N   1       3.428  -0.044  -0.065  0.00  0.00     0.009 A 
HETATM    2  C   UNK N   1       3.467  -1.459   0.088  0.00  0.00     0.017 A 
HETATM    3  C   UNK N   1       2.271  -2.208   0.164  0.00  0.00     0.033 A 
HETATM    4  C   UNK N   1       1.069  -1.507   0.086  0.00  0.00     0.060 A 
HETATM    5  C   UNK N   1       1.040  -0.157  -0.053  0.00  0.00     0.061 A 
HETATM    6  C   UNK N   1       2.185   0.613  -0.134  0.00  0.00     0.047 A 
HETATM    7  N   UNK N   1      -0.187  -1.984   0.134  0.00  0.00    -0.340 N 
ATOM      8  HN  UNK N   1      -0.491  -2.953   0.229  1.00  0.00     0.167 HD
HETATM    9  N   UNK N   1      -0.224   0.267  -0.092  0.00  0.00    -0.340 N 
HETATM   10  C   UNK N   1      -0.959  -0.865   0.023  0.00  0.00     0.119 A 
HETATM   11  H   UNK N   1      -0.549   1.192  -0.185  0.00  0.00     0.167 HD
ENDROOT
BRANCH  10  12
HETATM   12  C   UNK N   1      -2.440  -0.865   0.035  0.00  0.00     0.041 A 
HETATM   13  C   UNK N   1      -3.135  -2.082   0.086  0.00  0.00     0.018 A 
HETATM   14  C   UNK N   1      -4.533  -2.098   0.096  0.00  0.00     0.001 A 
HETATM   15  C   UNK N   1      -5.249  -0.900   0.058  0.00  0.00     0.003 A 
HETATM   16  C   UNK N   1      -4.570   0.317   0.011  0.00  0.00     0.037 A 
HETATM   17  C   UNK N   1      -3.173   0.346  -0.002  0.00  0.00     0.079 A 
BRANCH  17  18
HETATM   18  O   UNK N   1      -2.550   1.536  -0.043  0.00  0.00    -0.360 OA
HETATM   19  H   UNK N   1      -1.614   1.575  -0.071  0.00  0.00     0.217 HD
ENDBRANCH  17  18
ENDBRANCH  10  12
BRANCH   1  20
HETATM   20  C   UNK N   1       4.675   0.745  -0.156  0.00  0.00     0.102 C 
BRANCH  20  21
HETATM   21  N   UNK N   1       5.933   0.104  -0.088  0.00  0.00    -0.385 N 
HETATM   22  H   UNK N   1       5.984  -0.878  -0.040  0.00  0.00     0.157 HD
HETATM   23  H   UNK N   1       6.758   0.641  -0.088  0.00  0.00     0.157 HD
ENDBRANCH  20  21
BRANCH  20  24
HETATM   24  N   UNK N   1       4.625   2.019  -0.306  0.00  0.00    -0.385 N 
HETATM   25  H   UNK N   1       5.452   2.540  -0.421  0.00  0.00     0.157 HD
HETATM   26  H   UNK N   1       3.754   2.477  -0.306  0.00  0.00     0.157 HD
ENDBRANCH  20  24
ENDBRANCH   1  20
TORSDOF 5
