MODEL 1
REMARK VINA RESULT:      -6.4      0.000      0.000
REMARK  6 active torsions:
REMARK  status: ('A' for Active; 'I' for Inactive)
REMARK    1  A    between atoms: C_1  and  C_7 
REMARK    2  A    between atoms: C_7  and  N_8 
REMARK    3  A    between atoms: C_7  and  N_9 
REMARK    4  A    between atoms: C_13  and  C_14 
REMARK    5  A    between atoms: C_16  and  O_17 
REMARK    6  A    between atoms: C_21  and  O_22 
ROOT
HETATM    1  C   UNK N   1      23.754  19.747   3.490  0.00  0.00     0.009 A 
HETATM    2  C   UNK N   1      24.679  20.521   2.735  0.00  0.00     0.017 A 
HETATM    3  C   UNK N   1      26.055  20.522   3.061  0.00  0.00     0.033 A 
HETATM    4  C   UNK N   1      26.458  19.740   4.143  0.00  0.00     0.060 A 
HETATM    5  C   UNK N   1      25.569  19.005   4.858  0.00  0.00     0.061 A 
HETATM    6  C   UNK N   1      24.217  18.975   4.573  0.00  0.00     0.047 A 
HETATM    7  N   UNK N   1      27.694  19.573   4.648  0.00  0.00    -0.340 N 
HETATM    8  N   UNK N   1      26.203  18.351   5.833  0.00  0.00    -0.340 N 
ATOM      9  HN  UNK N   1      25.802  17.723   6.529  1.00  0.00     0.167 HD
HETATM   10  C   UNK N   1      27.501  18.712   5.688  0.00  0.00     0.119 A 
HETATM   11  H   UNK N   1      28.537  19.977   4.340  0.00  0.00     0.167 HD
ENDROOT
BRANCH  10  12
HETATM   12  C   UNK N   1      28.576  18.209   6.578  0.00  0.00     0.044 A 
HETATM   13  C   UNK N   1      29.655  17.490   6.042  0.00  0.00     0.054 A 
HETATM   14  C   UNK N   1      30.682  17.008   6.879  0.00  0.00     0.069 A 
HETATM   15  C   UNK N   1      30.620  17.251   8.252  0.00  0.00     0.039 A 
HETATM   16  C   UNK N   1      29.554  17.964   8.795  0.00  0.00     0.040 A 
HETATM   17  C   UNK N   1      28.534  18.444   7.974  0.00  0.00     0.079 A 
BRANCH  14  18
HETATM   18  O   UNK N   1      31.736  16.311   6.393  0.00  0.00    -0.356 OA
HETATM   19  C   UNK N   1      32.174  16.413   5.092  0.00  0.00     0.210 C 
ENDBRANCH  14  18
BRANCH  17  20
HETATM   20  O   UNK N   1      27.522  19.127   8.536  0.00  0.00    -0.360 OA
HETATM   21  H   UNK N   1      26.850  18.670   9.002  0.00  0.00     0.217 HD
ENDBRANCH  17  20
ENDBRANCH  10  12
BRANCH   1  22
HETATM   22  C   UNK N   1      22.314  19.740   3.155  0.00  0.00     0.102 C 
BRANCH  22  23
HETATM   23  N   UNK N   1      21.454  18.769   3.715  0.00  0.00    -0.385 N 
HETATM   24  H   UNK N   1      21.816  17.903   4.010  0.00  0.00     0.157 HD
HETATM   25  H   UNK N   1      20.492  18.960   3.811  0.00  0.00     0.157 HD
ENDBRANCH  22  23
BRANCH  22  26
HETATM   26  N   UNK N   1      21.832  20.618   2.351  0.00  0.00    -0.385 N 
HETATM   27  H   UNK N   1      21.942  20.508   1.379  0.00  0.00     0.157 HD
HETATM   28  H   UNK N   1      21.353  21.401   2.706  0.00  0.00     0.157 HD
ENDBRANCH  22  26
ENDBRANCH   1  22
TORSDOF 6
ENDMDL
MODEL 2
REMARK VINA RESULT:      -6.4     11.241     15.521
REMARK  6 active torsions:
REMARK  status: ('A' for Active; 'I' for Inactive)
REMARK    1  A    between atoms: C_1  and  C_7 
REMARK    2  A    between atoms: C_7  and  N_8 
REMARK    3  A    between atoms: C_7  and  N_9 
REMARK    4  A    between atoms: C_13  and  C_14 
REMARK    5  A    between atoms: C_16  and  O_17 
REMARK    6  A    between atoms: C_21  and  O_22 
ROOT
HETATM    1  C   UNK N   1      35.336  12.049  18.436  0.00  0.00     0.009 A 
HETATM    2  C   UNK N   1      35.579  10.737  17.942  0.00  0.00     0.017 A 
HETATM    3  C   UNK N   1      35.899  10.525  16.581  0.00  0.00     0.033 A 
HETATM    4  C   UNK N   1      35.965  11.648  15.756  0.00  0.00     0.060 A 
HETATM    5  C   UNK N   1      35.731  12.896  16.235  0.00  0.00     0.061 A 
HETATM    6  C   UNK N   1      35.416  13.147  17.557  0.00  0.00     0.047 A 
HETATM    7  N   UNK N   1      36.247  11.712  14.442  0.00  0.00    -0.340 N 
HETATM    8  N   UNK N   1      35.855  13.789  15.252  0.00  0.00    -0.340 N 
ATOM      9  HN  UNK N   1      35.739  14.800  15.307  1.00  0.00     0.167 HD
HETATM   10  C   UNK N   1      36.171  13.045  14.163  0.00  0.00     0.119 A 
HETATM   11  H   UNK N   1      36.457  10.972  13.828  0.00  0.00     0.167 HD
ENDROOT
BRANCH  10  12
HETATM   12  C   UNK N   1      36.403  13.642  12.826  0.00  0.00     0.044 A 
HETATM   13  C   UNK N   1      35.829  14.880  12.498  0.00  0.00     0.054 A 
HETATM   14  C   UNK N   1      36.044  15.456  11.229  0.00  0.00     0.069 A 
HETATM   15  C   UNK N   1      36.834  14.785  10.295  0.00  0.00     0.039 A 
HETATM   16  C   UNK N   1      37.408  13.555  10.609  0.00  0.00     0.040 A 
HETATM   17  C   UNK N   1      37.201  12.979  11.862  0.00  0.00     0.079 A 
BRANCH  14  18
HETATM   18  O   UNK N   1      35.505  16.648  10.882  0.00  0.00    -0.356 OA
HETATM   19  C   UNK N   1      34.807  16.852   9.714  0.00  0.00     0.210 C 
ENDBRANCH  14  18
BRANCH  17  20
HETATM   20  O   UNK N   1      37.772  11.792  12.128  0.00  0.00    -0.360 OA
HETATM   21  H   UNK N   1      38.551  11.752  12.647  0.00  0.00     0.217 HD
ENDBRANCH  17  20
ENDBRANCH  10  12
BRANCH   1  22
HETATM   22  C   UNK N   1      35.000  12.278  19.858  0.00  0.00     0.102 C 
BRANCH  22  23
HETATM   23  N   UNK N   1      34.686  13.577  20.318  0.00  0.00    -0.385 N 
HETATM   24  H   UNK N   1      35.400  14.243  20.437  0.00  0.00     0.157 HD
HETATM   25  H   UNK N   1      33.751  13.815  20.518  0.00  0.00     0.157 HD
ENDBRANCH  22  23
BRANCH  22  26
HETATM   26  N   UNK N   1      34.992  11.298  20.687  0.00  0.00    -0.385 N 
HETATM   27  H   UNK N   1      34.538  11.392  21.556  0.00  0.00     0.157 HD
HETATM   28  H   UNK N   1      35.439  10.453  20.455  0.00  0.00     0.157 HD
ENDBRANCH  22  26
ENDBRANCH   1  22
TORSDOF 6
ENDMDL
MODEL 3
REMARK VINA RESULT:      -6.4      5.912      9.178
REMARK  6 active torsions:
REMARK  status: ('A' for Active; 'I' for Inactive)
REMARK    1  A    between atoms: C_1  and  C_7 
REMARK    2  A    between atoms: C_7  and  N_8 
REMARK    3  A    between atoms: C_7  and  N_9 
REMARK    4  A    between atoms: C_13  and  C_14 
REMARK    5  A    between atoms: C_16  and  O_17 
REMARK    6  A    between atoms: C_21  and  O_22 
ROOT
HETATM    1  C   UNK N   1      22.127  13.633   9.399  0.00  0.00     0.009 A 
HETATM    2  C   UNK N   1      20.832  14.007   9.857  0.00  0.00     0.017 A 
HETATM    3  C   UNK N   1      20.051  14.936   9.132  0.00  0.00     0.033 A 
HETATM    4  C   UNK N   1      20.600  15.462   7.963  0.00  0.00     0.060 A 
HETATM    5  C   UNK N   1      21.836  15.100   7.534  0.00  0.00     0.061 A 
HETATM    6  C   UNK N   1      22.632  14.196   8.211  0.00  0.00     0.047 A 
HETATM    7  N   UNK N   1      20.065  16.352   7.107  0.00  0.00    -0.340 N 
HETATM    8  N   UNK N   1      22.126  15.740   6.400  0.00  0.00    -0.340 N 
ATOM      9  HN  UNK N   1      22.978  15.673   5.844  1.00  0.00     0.167 HD
HETATM   10  C   UNK N   1      21.031  16.501   6.155  0.00  0.00     0.119 A 
HETATM   11  H   UNK N   1      19.186  16.790   7.156  0.00  0.00     0.167 HD
ENDROOT
BRANCH  10  12
HETATM   12  C   UNK N   1      20.921  17.390   4.974  0.00  0.00     0.044 A 
HETATM   13  C   UNK N   1      21.915  18.348   4.718  0.00  0.00     0.054 A 
HETATM   14  C   UNK N   1      21.819  19.198   3.597  0.00  0.00     0.069 A 
HETATM   15  C   UNK N   1      20.726  19.082   2.738  0.00  0.00     0.039 A 
HETATM   16  C   UNK N   1      19.734  18.135   2.982  0.00  0.00     0.040 A 
HETATM   17  C   UNK N   1      19.821  17.290   4.088  0.00  0.00     0.079 A 
BRANCH  14  18
HETATM   18  O   UNK N   1      22.761  20.132   3.324  0.00  0.00    -0.356 OA
HETATM   19  C   UNK N   1      24.111  19.906   3.459  0.00  0.00     0.210 C 
ENDBRANCH  14  18
BRANCH  17  20
HETATM   20  O   UNK N   1      18.844  16.390   4.289  0.00  0.00    -0.360 OA
HETATM   21  H   UNK N   1      17.960  16.676   4.412  0.00  0.00     0.217 HD
ENDBRANCH  17  20
ENDBRANCH  10  12
BRANCH   1  22
HETATM   22  C   UNK N   1      22.950  12.662  10.151  0.00  0.00     0.102 C 
BRANCH  22  23
HETATM   23  N   UNK N   1      24.317  12.923  10.397  0.00  0.00    -0.385 N 
HETATM   24  H   UNK N   1      24.748  12.567  11.208  0.00  0.00     0.157 HD
HETATM   25  H   UNK N   1      24.838  13.461   9.758  0.00  0.00     0.157 HD
ENDBRANCH  22  23
BRANCH  22  26
HETATM   26  N   UNK N   1      22.429  11.572  10.587  0.00  0.00    -0.385 N 
HETATM   27  H   UNK N   1      22.319  11.433  11.556  0.00  0.00     0.157 HD
HETATM   28  H   UNK N   1      22.140  10.877   9.954  0.00  0.00     0.157 HD
ENDBRANCH  22  26
ENDBRANCH   1  22
TORSDOF 6
ENDMDL
MODEL 4
REMARK VINA RESULT:      -6.3     10.713     13.464
REMARK  6 active torsions:
REMARK  status: ('A' for Active; 'I' for Inactive)
REMARK    1  A    between atoms: C_1  and  C_7 
REMARK    2  A    between atoms: C_7  and  N_8 
REMARK    3  A    between atoms: C_7  and  N_9 
REMARK    4  A    between atoms: C_13  and  C_14 
REMARK    5  A    between atoms: C_16  and  O_17 
REMARK    6  A    between atoms: C_21  and  O_22 
ROOT
HETATM    1  C   UNK N   1      30.767  21.246  -4.563  0.00  0.00     0.009 A 
HETATM    2  C   UNK N   1      30.837  21.521  -3.168  0.00  0.00     0.017 A 
HETATM    3  C   UNK N   1      30.053  22.548  -2.594  0.00  0.00     0.033 A 
HETATM    4  C   UNK N   1      29.216  23.268  -3.447  0.00  0.00     0.060 A 
HETATM    5  C   UNK N   1      29.155  22.999  -4.776  0.00  0.00     0.061 A 
HETATM    6  C   UNK N   1      29.904  22.005  -5.377  0.00  0.00     0.047 A 
HETATM    7  N   UNK N   1      28.381  24.280  -3.150  0.00  0.00    -0.340 N 
HETATM    8  N   UNK N   1      28.286  23.823  -5.364  0.00  0.00    -0.340 N 
ATOM      9  HN  UNK N   1      28.029  23.860  -6.350  1.00  0.00     0.167 HD
HETATM   10  C   UNK N   1      27.824  24.598  -4.354  0.00  0.00     0.119 A 
HETATM   11  H   UNK N   1      28.212  24.693  -2.273  0.00  0.00     0.167 HD
ENDROOT
BRANCH  10  12
HETATM   12  C   UNK N   1      26.820  25.671  -4.562  0.00  0.00     0.044 A 
HETATM   13  C   UNK N   1      26.882  26.850  -3.804  0.00  0.00     0.054 A 
HETATM   14  C   UNK N   1      25.933  27.875  -3.994  0.00  0.00     0.069 A 
HETATM   15  C   UNK N   1      24.926  27.710  -4.946  0.00  0.00     0.039 A 
HETATM   16  C   UNK N   1      24.854  26.544  -5.704  0.00  0.00     0.040 A 
HETATM   17  C   UNK N   1      25.790  25.525  -5.522  0.00  0.00     0.079 A 
BRANCH  14  18
HETATM   18  O   UNK N   1      25.965  29.023  -3.279  0.00  0.00    -0.356 OA
HETATM   19  C   UNK N   1      26.600  30.165  -3.710  0.00  0.00     0.210 C 
ENDBRANCH  14  18
BRANCH  17  20
HETATM   20  O   UNK N   1      25.687  24.416  -6.273  0.00  0.00    -0.360 OA
HETATM   21  H   UNK N   1      25.846  24.458  -7.196  0.00  0.00     0.217 HD
ENDBRANCH  17  20
ENDBRANCH  10  12
BRANCH   1  22
HETATM   22  C   UNK N   1      31.584  20.174  -5.171  0.00  0.00     0.102 C 
BRANCH  22  23
HETATM   23  N   UNK N   1      32.454  19.397  -4.371  0.00  0.00    -0.385 N 
HETATM   24  H   UNK N   1      32.930  18.631  -4.763  0.00  0.00     0.157 HD
HETATM   25  H   UNK N   1      32.582  19.624  -3.421  0.00  0.00     0.157 HD
ENDBRANCH  22  23
BRANCH  22  26
HETATM   26  N   UNK N   1      31.512  19.940  -6.431  0.00  0.00    -0.385 N 
HETATM   27  H   UNK N   1      32.053  20.468  -7.061  0.00  0.00     0.157 HD
HETATM   28  H   UNK N   1      30.915  19.232  -6.766  0.00  0.00     0.157 HD
ENDBRANCH  22  26
ENDBRANCH   1  22
TORSDOF 6
ENDMDL
MODEL 5
REMARK VINA RESULT:      -6.2      5.832      8.826
REMARK  6 active torsions:
REMARK  status: ('A' for Active; 'I' for Inactive)
REMARK    1  A    between atoms: C_1  and  C_7 
REMARK    2  A    between atoms: C_7  and  N_8 
REMARK    3  A    between atoms: C_7  and  N_9 
REMARK    4  A    between atoms: C_13  and  C_14 
REMARK    5  A    between atoms: C_16  and  O_17 
REMARK    6  A    between atoms: C_21  and  O_22 
ROOT
HETATM    1  C   UNK N   1      21.499  13.488   9.496  0.00  0.00     0.009 A 
HETATM    2  C   UNK N   1      20.306  14.198   9.808  0.00  0.00     0.017 A 
HETATM    3  C   UNK N   1      19.953  15.366   9.094  0.00  0.00     0.033 A 
HETATM    4  C   UNK N   1      20.817  15.786   8.083  0.00  0.00     0.060 A 
HETATM    5  C   UNK N   1      21.953  15.103   7.792  0.00  0.00     0.061 A 
HETATM    6  C   UNK N   1      22.335  13.958   8.465  0.00  0.00     0.047 A 
HETATM    7  N   UNK N   1      20.708  16.852   7.270  0.00  0.00    -0.340 N 
HETATM    8  N   UNK N   1      22.600  15.706   6.793  0.00  0.00    -0.340 N 
ATOM      9  HN  UNK N   1      23.479  15.427   6.358  1.00  0.00     0.167 HD
HETATM   10  C   UNK N   1      21.823  16.774   6.488  0.00  0.00     0.119 A 
HETATM   11  H   UNK N   1      19.994  17.528   7.246  0.00  0.00     0.167 HD
ENDROOT
BRANCH  10  12
HETATM   12  C   UNK N   1      22.170  17.736   5.414  0.00  0.00     0.044 A 
HETATM   13  C   UNK N   1      21.157  18.446   4.751  0.00  0.00     0.054 A 
HETATM   14  C   UNK N   1      21.477  19.364   3.729  0.00  0.00     0.069 A 
HETATM   15  C   UNK N   1      22.812  19.564   3.378  0.00  0.00     0.039 A 
HETATM   16  C   UNK N   1      23.826  18.865   4.030  0.00  0.00     0.040 A 
HETATM   17  C   UNK N   1      23.518  17.955   5.042  0.00  0.00     0.079 A 
BRANCH  14  18
HETATM   18  O   UNK N   1      20.523  20.063   3.070  0.00  0.00    -0.356 OA
HETATM   19  C   UNK N   1      20.676  20.523   1.783  0.00  0.00     0.210 C 
ENDBRANCH  14  18
BRANCH  17  20
HETATM   20  O   UNK N   1      24.524  17.301   5.647  0.00  0.00    -0.360 OA
HETATM   21  H   UNK N   1      24.643  17.378   6.573  0.00  0.00     0.217 HD
ENDBRANCH  17  20
ENDBRANCH  10  12
BRANCH   1  22
HETATM   22  C   UNK N   1      21.875  12.265  10.238  0.00  0.00     0.102 C 
BRANCH  22  23
HETATM   23  N   UNK N   1      21.198  11.915  11.428  0.00  0.00    -0.385 N 
HETATM   24  H   UNK N   1      21.327  12.452  12.243  0.00  0.00     0.157 HD
HETATM   25  H   UNK N   1      20.598  11.135  11.441  0.00  0.00     0.157 HD
ENDBRANCH  22  23
BRANCH  22  26
HETATM   26  N   UNK N   1      22.820  11.511   9.806  0.00  0.00    -0.385 N 
HETATM   27  H   UNK N   1      23.755  11.711  10.041  0.00  0.00     0.157 HD
HETATM   28  H   UNK N   1      22.610  10.734   9.240  0.00  0.00     0.157 HD
ENDBRANCH  22  26
ENDBRANCH   1  22
TORSDOF 6
ENDMDL
MODEL 6
REMARK VINA RESULT:      -6.2      6.732      9.488
REMARK  6 active torsions:
REMARK  status: ('A' for Active; 'I' for Inactive)
REMARK    1  A    between atoms: C_1  and  C_7 
REMARK    2  A    between atoms: C_7  and  N_8 
REMARK    3  A    between atoms: C_7  and  N_9 
REMARK    4  A    between atoms: C_13  and  C_14 
REMARK    5  A    between atoms: C_16  and  O_17 
REMARK    6  A    between atoms: C_21  and  O_22 
ROOT
HETATM    1  C   UNK N   1      22.426  13.103   9.836  0.00  0.00     0.009 A 
HETATM    2  C   UNK N   1      21.107  13.435  10.257  0.00  0.00     0.017 A 
HETATM    3  C   UNK N   1      20.305  14.315   9.494  0.00  0.00     0.033 A 
HETATM    4  C   UNK N   1      20.860  14.837   8.326  0.00  0.00     0.060 A 
HETATM    5  C   UNK N   1      22.119  14.516   7.932  0.00  0.00     0.061 A 
HETATM    6  C   UNK N   1      22.935  13.660   8.648  0.00  0.00     0.047 A 
HETATM    7  N   UNK N   1      20.310  15.685   7.437  0.00  0.00    -0.340 N 
HETATM    8  N   UNK N   1      22.410  15.143   6.791  0.00  0.00    -0.340 N 
ATOM      9  HN  UNK N   1      23.276  15.098   6.256  1.00  0.00     0.167 HD
HETATM   10  C   UNK N   1      21.291  15.852   6.505  0.00  0.00     0.119 A 
HETATM   11  H   UNK N   1      19.412  16.088   7.457  0.00  0.00     0.167 HD
ENDROOT
BRANCH  10  12
HETATM   12  C   UNK N   1      21.173  16.710   5.301  0.00  0.00     0.044 A 
HETATM   13  C   UNK N   1      20.992  16.128   4.036  0.00  0.00     0.054 A 
HETATM   14  C   UNK N   1      20.879  16.936   2.886  0.00  0.00     0.069 A 
HETATM   15  C   UNK N   1      20.947  18.324   3.011  0.00  0.00     0.039 A 
HETATM   16  C   UNK N   1      21.126  18.912   4.261  0.00  0.00     0.040 A 
HETATM   17  C   UNK N   1      21.239  18.121   5.404  0.00  0.00     0.079 A 
BRANCH  14  18
HETATM   18  O   UNK N   1      20.705  16.405   1.653  0.00  0.00    -0.356 OA
HETATM   19  C   UNK N   1      20.108  17.083   0.615  0.00  0.00     0.210 C 
ENDBRANCH  14  18
BRANCH  17  20
HETATM   20  O   UNK N   1      21.411  18.726   6.591  0.00  0.00    -0.360 OA
HETATM   21  H   UNK N   1      21.308  18.239   7.385  0.00  0.00     0.217 HD
ENDBRANCH  17  20
ENDBRANCH  10  12
BRANCH   1  22
HETATM   22  C   UNK N   1      23.269  12.183  10.629  0.00  0.00     0.102 C 
BRANCH  22  23
HETATM   23  N   UNK N   1      24.626  12.493  10.878  0.00  0.00    -0.385 N 
HETATM   24  H   UNK N   1      24.971  12.484  11.800  0.00  0.00     0.157 HD
HETATM   25  H   UNK N   1      25.224  12.719  10.130  0.00  0.00     0.157 HD
ENDBRANCH  22  23
BRANCH  22  26
HETATM   26  N   UNK N   1      22.777  11.094  11.097  0.00  0.00    -0.385 N 
HETATM   27  H   UNK N   1      22.784  10.928  12.068  0.00  0.00     0.157 HD
HETATM   28  H   UNK N   1      22.392  10.426  10.486  0.00  0.00     0.157 HD
ENDBRANCH  22  26
ENDBRANCH   1  22
TORSDOF 6
ENDMDL
MODEL 7
REMARK VINA RESULT:      -6.1      6.022     10.572
REMARK  6 active torsions:
REMARK  status: ('A' for Active; 'I' for Inactive)
REMARK    1  A    between atoms: C_1  and  C_7 
REMARK    2  A    between atoms: C_7  and  N_8 
REMARK    3  A    between atoms: C_7  and  N_9 
REMARK    4  A    between atoms: C_13  and  C_14 
REMARK    5  A    between atoms: C_16  and  O_17 
REMARK    6  A    between atoms: C_21  and  O_22 
ROOT
HETATM    1  C   UNK N   1      35.203  14.419  11.667  0.00  0.00     0.009 A 
HETATM    2  C   UNK N   1      35.796  15.711  11.739  0.00  0.00     0.017 A 
HETATM    3  C   UNK N   1      35.456  16.715  10.803  0.00  0.00     0.033 A 
HETATM    4  C   UNK N   1      34.525  16.384   9.819  0.00  0.00     0.060 A 
HETATM    5  C   UNK N   1      33.964  15.150   9.758  0.00  0.00     0.061 A 
HETATM    6  C   UNK N   1      34.268  14.141  10.652  0.00  0.00     0.047 A 
HETATM    7  N   UNK N   1      34.041  17.152   8.826  0.00  0.00    -0.340 N 
HETATM    8  N   UNK N   1      33.112  15.091   8.733  0.00  0.00    -0.340 N 
ATOM      9  HN  UNK N   1      32.544  14.298   8.436  1.00  0.00     0.167 HD
HETATM   10  C   UNK N   1      33.173  16.325   8.175  0.00  0.00     0.119 A 
HETATM   11  H   UNK N   1      34.261  18.088   8.618  0.00  0.00     0.167 HD
ENDROOT
BRANCH  10  12
HETATM   12  C   UNK N   1      32.372  16.708   6.987  0.00  0.00     0.044 A 
HETATM   13  C   UNK N   1      30.982  16.511   6.981  0.00  0.00     0.054 A 
HETATM   14  C   UNK N   1      30.213  16.872   5.857  0.00  0.00     0.069 A 
HETATM   15  C   UNK N   1      30.842  17.428   4.743  0.00  0.00     0.039 A 
HETATM   16  C   UNK N   1      32.221  17.628   4.737  0.00  0.00     0.040 A 
HETATM   17  C   UNK N   1      32.990  17.274   5.846  0.00  0.00     0.079 A 
BRANCH  14  18
HETATM   18  O   UNK N   1      28.871  16.695   5.820  0.00  0.00    -0.356 OA
HETATM   19  C   UNK N   1      28.030  17.082   6.838  0.00  0.00     0.210 C 
ENDBRANCH  14  18
BRANCH  17  20
HETATM   20  O   UNK N   1      34.316  17.482   5.802  0.00  0.00    -0.360 OA
HETATM   21  H   UNK N   1      34.655  18.278   5.441  0.00  0.00     0.217 HD
ENDBRANCH  17  20
ENDBRANCH  10  12
BRANCH   1  22
HETATM   22  C   UNK N   1      35.553  13.364  12.643  0.00  0.00     0.102 C 
BRANCH  22  23
HETATM   23  N   UNK N   1      36.821  13.360  13.266  0.00  0.00    -0.385 N 
HETATM   24  H   UNK N   1      37.088  14.111  13.844  0.00  0.00     0.157 HD
HETATM   25  H   UNK N   1      37.438  12.606  13.122  0.00  0.00     0.157 HD
ENDBRANCH  22  23
BRANCH  22  26
HETATM   26  N   UNK N   1      34.707  12.443  12.931  0.00  0.00    -0.385 N 
HETATM   27  H   UNK N   1      34.898  11.507  12.692  0.00  0.00     0.157 HD
HETATM   28  H   UNK N   1      33.868  12.672  13.391  0.00  0.00     0.157 HD
ENDBRANCH  22  26
ENDBRANCH   1  22
TORSDOF 6
ENDMDL
MODEL 8
REMARK VINA RESULT:      -6.1      4.771      7.298
REMARK  6 active torsions:
REMARK  status: ('A' for Active; 'I' for Inactive)
REMARK    1  A    between atoms: C_1  and  C_7 
REMARK    2  A    between atoms: C_7  and  N_8 
REMARK    3  A    between atoms: C_7  and  N_9 
REMARK    4  A    between atoms: C_13  and  C_14 
REMARK    5  A    between atoms: C_16  and  O_17 
REMARK    6  A    between atoms: C_21  and  O_22 
ROOT
HETATM    1  C   UNK N   1      29.319  17.698   7.614  0.00  0.00     0.009 A 
HETATM    2  C   UNK N   1      29.493  17.011   6.379  0.00  0.00     0.017 A 
HETATM    3  C   UNK N   1      30.605  16.161   6.177  0.00  0.00     0.033 A 
HETATM    4  C   UNK N   1      31.510  16.029   7.229  0.00  0.00     0.060 A 
HETATM    5  C   UNK N   1      31.337  16.687   8.403  0.00  0.00     0.061 A 
HETATM    6  C   UNK N   1      30.265  17.527   8.642  0.00  0.00     0.047 A 
HETATM    7  N   UNK N   1      32.634  15.290   7.286  0.00  0.00    -0.340 N 
HETATM    8  N   UNK N   1      32.334  16.393   9.239  0.00  0.00    -0.340 N 
ATOM      9  HN  UNK N   1      32.475  16.734  10.189  1.00  0.00     0.167 HD
HETATM   10  C   UNK N   1      33.116  15.537   8.538  0.00  0.00     0.119 A 
HETATM   11  H   UNK N   1      33.016  14.709   6.590  0.00  0.00     0.167 HD
ENDROOT
BRANCH  10  12
HETATM   12  C   UNK N   1      34.358  14.948   9.095  0.00  0.00     0.044 A 
HETATM   13  C   UNK N   1      35.452  14.687   8.255  0.00  0.00     0.054 A 
HETATM   14  C   UNK N   1      36.637  14.127   8.775  0.00  0.00     0.069 A 
HETATM   15  C   UNK N   1      36.718  13.832  10.136  0.00  0.00     0.039 A 
HETATM   16  C   UNK N   1      35.638  14.086  10.979  0.00  0.00     0.040 A 
HETATM   17  C   UNK N   1      34.463  14.640  10.472  0.00  0.00     0.079 A 
BRANCH  14  18
HETATM   18  O   UNK N   1      37.709  13.864   7.991  0.00  0.00    -0.356 OA
HETATM   19  C   UNK N   1      38.897  13.369   8.476  0.00  0.00     0.210 C 
ENDBRANCH  14  18
BRANCH  17  20
HETATM   20  O   UNK N   1      33.444  14.871  11.318  0.00  0.00    -0.360 OA
HETATM   21  H   UNK N   1      33.464  14.515  12.185  0.00  0.00     0.217 HD
ENDBRANCH  17  20
ENDBRANCH  10  12
BRANCH   1  22
HETATM   22  C   UNK N   1      28.159  18.589   7.833  0.00  0.00     0.102 C 
BRANCH  22  23
HETATM   23  N   UNK N   1      27.572  18.696   9.114  0.00  0.00    -0.385 N 
HETATM   24  H   UNK N   1      27.683  19.521   9.638  0.00  0.00     0.157 HD
HETATM   25  H   UNK N   1      27.052  17.944   9.482  0.00  0.00     0.157 HD
ENDBRANCH  22  23
BRANCH  22  26
HETATM   26  N   UNK N   1      27.675  19.273   6.860  0.00  0.00    -0.385 N 
HETATM   27  H   UNK N   1      28.262  19.859   6.331  0.00  0.00     0.157 HD
HETATM   28  H   UNK N   1      26.717  19.210   6.644  0.00  0.00     0.157 HD
ENDBRANCH  22  26
ENDBRANCH   1  22
TORSDOF 6
ENDMDL
MODEL 9
REMARK VINA RESULT:      -6.0      3.022      7.487
REMARK  6 active torsions:
REMARK  status: ('A' for Active; 'I' for Inactive)
REMARK    1  A    between atoms: C_1  and  C_7 
REMARK    2  A    between atoms: C_7  and  N_8 
REMARK    3  A    between atoms: C_7  and  N_9 
REMARK    4  A    between atoms: C_13  and  C_14 
REMARK    5  A    between atoms: C_16  and  O_17 
REMARK    6  A    between atoms: C_21  and  O_22 
ROOT
HETATM    1  C   UNK N   1      30.288  17.399   7.443  0.00  0.00     0.009 A 
HETATM    2  C   UNK N   1      30.878  17.206   6.163  0.00  0.00     0.017 A 
HETATM    3  C   UNK N   1      30.151  17.484   4.983  0.00  0.00     0.033 A 
HETATM    4  C   UNK N   1      28.845  17.950   5.130  0.00  0.00     0.060 A 
HETATM    5  C   UNK N   1      28.289  18.132   6.355  0.00  0.00     0.061 A 
HETATM    6  C   UNK N   1      28.965  17.873   7.533  0.00  0.00     0.047 A 
HETATM    7  N   UNK N   1      27.956  18.283   4.176  0.00  0.00    -0.340 N 
HETATM    8  N   UNK N   1      27.040  18.582   6.223  0.00  0.00    -0.340 N 
ATOM      9  HN  UNK N   1      26.377  18.810   6.962  1.00  0.00     0.167 HD
HETATM   10  C   UNK N   1      26.855  18.668   4.884  0.00  0.00     0.119 A 
HETATM   11  H   UNK N   1      28.073  18.255   3.199  0.00  0.00     0.167 HD
ENDROOT
BRANCH  10  12
HETATM   12  C   UNK N   1      25.584  19.133   4.279  0.00  0.00     0.044 A 
HETATM   13  C   UNK N   1      24.368  18.536   4.648  0.00  0.00     0.054 A 
HETATM   14  C   UNK N   1      23.154  18.971   4.078  0.00  0.00     0.069 A 
HETATM   15  C   UNK N   1      23.166  20.004   3.140  0.00  0.00     0.039 A 
HETATM   16  C   UNK N   1      24.366  20.604   2.766  0.00  0.00     0.040 A 
HETATM   17  C   UNK N   1      25.572  20.179   3.325  0.00  0.00     0.079 A 
BRANCH  14  18
HETATM   18  O   UNK N   1      21.966  18.416   4.414  0.00  0.00    -0.356 OA
HETATM   19  C   UNK N   1      21.617  18.099   5.706  0.00  0.00     0.210 C 
ENDBRANCH  14  18
BRANCH  17  20
HETATM   20  O   UNK N   1      26.709  20.783   2.938  0.00  0.00    -0.360 OA
HETATM   21  H   UNK N   1      27.536  20.460   3.236  0.00  0.00     0.217 HD
ENDBRANCH  17  20
ENDBRANCH  10  12
BRANCH   1  22
HETATM   22  C   UNK N   1      31.043  17.111   8.682  0.00  0.00     0.102 C 
BRANCH  22  23
HETATM   23  N   UNK N   1      32.454  17.187   8.693  0.00  0.00    -0.385 N 
HETATM   24  H   UNK N   1      32.903  18.023   8.433  0.00  0.00     0.157 HD
HETATM   25  H   UNK N   1      32.987  16.404   8.961  0.00  0.00     0.157 HD
ENDBRANCH  22  23
BRANCH  22  26
HETATM   26  N   UNK N   1      30.422  16.788   9.758  0.00  0.00    -0.385 N 
HETATM   27  H   UNK N   1      29.452  16.618   9.735  0.00  0.00     0.157 HD
HETATM   28  H   UNK N   1      30.915  16.711  10.606  0.00  0.00     0.157 HD
ENDBRANCH  22  26
ENDBRANCH   1  22
TORSDOF 6
ENDMDL
