REMARK  6 active torsions:
REMARK  status: ('A' for Active; 'I' for Inactive)
REMARK    1  A    between atoms: C_1  and  C_7 
REMARK    2  A    between atoms: C_7  and  N_8 
REMARK    3  A    between atoms: C_7  and  N_9 
REMARK    4  A    between atoms: C_13  and  C_14 
REMARK    5  A    between atoms: C_16  and  O_17 
REMARK    6  A    between atoms: C_21  and  O_22 
ROOT
HETATM    1  C   UNK N   1       3.770   0.750  -0.000  0.00  0.00     0.009 A 
HETATM    2  C   UNK N   1       3.798  -0.673   0.000  0.00  0.00     0.017 A 
HETATM    3  C   UNK N   1       2.597  -1.419   0.000  0.00  0.00     0.033 A 
HETATM    4  C   UNK N   1       1.399  -0.705   0.000  0.00  0.00     0.060 A 
HETATM    5  C   UNK N   1       1.381   0.652  -0.000  0.00  0.00     0.061 A 
HETATM    6  C   UNK N   1       2.531   1.419  -0.000  0.00  0.00     0.047 A 
HETATM    7  N   UNK N   1       0.138  -1.175   0.000  0.00  0.00    -0.340 N 
HETATM    8  N   UNK N   1       0.120   1.088  -0.000  0.00  0.00    -0.340 N 
ATOM      9  HN  UNK N   1      -0.208   2.053  -0.000  1.00  0.00     0.167 HD
HETATM   10  C   UNK N   1      -0.625  -0.044  -0.000  0.00  0.00     0.119 A 
HETATM   11  H   UNK N   1      -0.162  -2.112   0.000  0.00  0.00     0.167 HD
ENDROOT
BRANCH  10  12
HETATM   12  C   UNK N   1      -2.108  -0.027  -0.000  0.00  0.00     0.044 A 
HETATM   13  C   UNK N   1      -2.826  -1.233   0.000  0.00  0.00     0.054 A 
HETATM   14  C   UNK N   1      -4.236  -1.227   0.000  0.00  0.00     0.069 A 
HETATM   15  C   UNK N   1      -4.918  -0.010   0.000  0.00  0.00     0.039 A 
HETATM   16  C   UNK N   1      -4.216   1.193   0.000  0.00  0.00     0.040 A 
HETATM   17  C   UNK N   1      -2.821   1.196  -0.000  0.00  0.00     0.079 A 
BRANCH  14  18
HETATM   18  O   UNK N   1      -4.957  -2.373   0.000  0.00  0.00    -0.356 OA
HETATM   19  C   UNK N   1      -4.387  -3.625   0.000  0.00  0.00     0.210 C 
ENDBRANCH  14  18
BRANCH  17  20
HETATM   20  O   UNK N   1      -2.180   2.377  -0.000  0.00  0.00    -0.360 OA
HETATM   21  H   UNK N   1      -1.243   2.402  -0.000  0.00  0.00     0.217 HD
ENDBRANCH  17  20
ENDBRANCH  10  12
BRANCH   1  22
HETATM   22  C   UNK N   1       5.022   1.537  -0.000  0.00  0.00     0.102 C 
BRANCH  22  23
HETATM   23  N   UNK N   1       6.276   0.885   0.000  0.00  0.00    -0.385 N 
HETATM   24  H   UNK N   1       6.319  -0.098   0.000  0.00  0.00     0.157 HD
HETATM   25  H   UNK N   1       7.106   1.415   0.000  0.00  0.00     0.157 HD
ENDBRANCH  22  23
BRANCH  22  26
HETATM   26  N   UNK N   1       4.980   2.820  -0.000  0.00  0.00    -0.385 N 
HETATM   27  H   UNK N   1       5.816   3.340  -0.000  0.00  0.00     0.157 HD
HETATM   28  H   UNK N   1       4.112   3.284  -0.000  0.00  0.00     0.157 HD
ENDBRANCH  22  26
ENDBRANCH   1  22
TORSDOF 6
