MODEL 1
REMARK VINA RESULT:      -6.8      0.000      0.000
REMARK  4 active torsions:
REMARK  status: ('A' for Active; 'I' for Inactive)
REMARK    1  A    between atoms: C_1  and  C_7 
REMARK    2  A    between atoms: C_7  and  N_8 
REMARK    3  A    between atoms: C_12  and  C_13 
REMARK    4  A    between atoms: C_18  and  O_19 
ROOT
HETATM    1  C   UNK N   1      30.665  17.198   8.184  0.00  0.00     0.008 A 
HETATM    2  C   UNK N   1      29.907  17.844   9.197  0.00  0.00     0.017 A 
HETATM    3  C   UNK N   1      28.719  18.537   8.875  0.00  0.00     0.031 A 
HETATM    4  C   UNK N   1      28.329  18.562   7.538  0.00  0.00     0.043 A 
HETATM    5  C   UNK N   1      29.060  17.942   6.568  0.00  0.00    -0.006 A 
HETATM    6  C   UNK N   1      30.226  17.249   6.848  0.00  0.00     0.029 A 
HETATM    7  N   UNK N   1      27.252  19.171   7.008  0.00  0.00    -0.355 N 
HETATM    8  C   UNK N   1      28.447  18.156   5.367  0.00  0.00     0.044 A 
HETATM    9  C   UNK N   1      27.326  18.926   5.673  0.00  0.00     0.046 A 
HETATM   10  H   UNK N   1      26.560  19.684   7.485  0.00  0.00     0.166 HD
ENDROOT
BRANCH   9  11
HETATM   11  C   UNK N   1      26.356  19.443   4.677  0.00  0.00     0.024 A 
HETATM   12  C   UNK N   1      26.798  20.339   3.692  0.00  0.00     0.016 A 
HETATM   13  C   UNK N   1      25.910  20.837   2.734  0.00  0.00     0.001 A 
HETATM   14  C   UNK N   1      24.572  20.439   2.746  0.00  0.00     0.003 A 
HETATM   15  C   UNK N   1      24.118  19.547   3.716  0.00  0.00     0.037 A 
HETATM   16  C   UNK N   1      24.995  19.046   4.680  0.00  0.00     0.078 A 
BRANCH  16  17
HETATM   17  O   UNK N   1      24.523  18.180   5.594  0.00  0.00    -0.360 OA
HETATM   18  H   UNK N   1      24.364  17.288   5.356  0.00  0.00     0.217 HD
ENDBRANCH  16  17
ENDBRANCH   9  11
BRANCH   1  19
HETATM   19  C   UNK N   1      31.916  16.481   8.516  0.00  0.00     0.102 C 
HETATM   20  N   UNK N   1      32.046  15.238   8.225  0.00  0.00    -0.385 N 
HETATM   21  H   UNK N   1      32.856  14.749   8.498  0.00  0.00     0.157 HD
HETATM   22  H   UNK N   1      31.335  14.772   7.728  0.00  0.00     0.157 HD
BRANCH  19  23
HETATM   23  N   UNK N   1      32.985  17.163   9.139  0.00  0.00    -0.385 N 
HETATM   24  H   UNK N   1      32.818  17.738   9.920  0.00  0.00     0.157 HD
HETATM   25  H   UNK N   1      33.901  17.062   8.789  0.00  0.00     0.157 HD
ENDBRANCH  19  23
ENDBRANCH   1  19
TORSDOF 4
ENDMDL
MODEL 2
REMARK VINA RESULT:      -6.4      6.749      7.531
REMARK  4 active torsions:
REMARK  status: ('A' for Active; 'I' for Inactive)
REMARK    1  A    between atoms: C_1  and  C_7 
REMARK    2  A    between atoms: C_7  and  N_8 
REMARK    3  A    between atoms: C_12  and  C_13 
REMARK    4  A    between atoms: C_18  and  O_19 
ROOT
HETATM    1  C   UNK N   1      22.605  13.025   9.990  0.00  0.00     0.008 A 
HETATM    2  C   UNK N   1      21.260  13.338  10.324  0.00  0.00     0.017 A 
HETATM    3  C   UNK N   1      20.494  14.192   9.500  0.00  0.00     0.031 A 
HETATM    4  C   UNK N   1      21.107  14.712   8.363  0.00  0.00     0.043 A 
HETATM    5  C   UNK N   1      22.399  14.412   8.046  0.00  0.00    -0.006 A 
HETATM    6  C   UNK N   1      23.178  13.573   8.827  0.00  0.00     0.029 A 
HETATM    7  N   UNK N   1      20.577  15.552   7.455  0.00  0.00    -0.355 N 
HETATM    8  C   UNK N   1      22.725  15.079   6.901  0.00  0.00     0.044 A 
HETATM    9  C   UNK N   1      21.571  15.782   6.559  0.00  0.00     0.046 A 
HETATM   10  H   UNK N   1      19.664  15.921   7.443  0.00  0.00     0.166 HD
ENDROOT
BRANCH   9  11
HETATM   11  C   UNK N   1      21.447  16.689   5.391  0.00  0.00     0.024 A 
HETATM   12  C   UNK N   1      21.437  16.144   4.099  0.00  0.00     0.016 A 
HETATM   13  C   UNK N   1      21.313  16.972   2.979  0.00  0.00     0.001 A 
HETATM   14  C   UNK N   1      21.191  18.353   3.139  0.00  0.00     0.003 A 
HETATM   15  C   UNK N   1      21.196  18.910   4.417  0.00  0.00     0.037 A 
HETATM   16  C   UNK N   1      21.323  18.093   5.543  0.00  0.00     0.078 A 
BRANCH  16  17
HETATM   17  O   UNK N   1      21.315  18.665   6.760  0.00  0.00    -0.360 OA
HETATM   18  H   UNK N   1      21.818  19.439   6.918  0.00  0.00     0.217 HD
ENDBRANCH  16  17
ENDBRANCH   9  11
BRANCH   1  19
HETATM   19  C   UNK N   1      23.414  12.140  10.856  0.00  0.00     0.102 C 
HETATM   20  N   UNK N   1      22.869  11.140  11.447  0.00  0.00    -0.385 N 
HETATM   21  H   UNK N   1      23.395  10.586  12.068  0.00  0.00     0.157 HD
HETATM   22  H   UNK N   1      21.923  10.925  11.279  0.00  0.00     0.157 HD
BRANCH  19  23
HETATM   23  N   UNK N   1      24.796  12.376  11.025  0.00  0.00    -0.385 N 
HETATM   24  H   UNK N   1      25.399  11.635  11.263  0.00  0.00     0.157 HD
HETATM   25  H   UNK N   1      25.158  13.285  10.907  0.00  0.00     0.157 HD
ENDBRANCH  19  23
ENDBRANCH   1  19
TORSDOF 4
ENDMDL
MODEL 3
REMARK VINA RESULT:      -6.4      6.379      9.840
REMARK  4 active torsions:
REMARK  status: ('A' for Active; 'I' for Inactive)
REMARK    1  A    between atoms: C_1  and  C_7 
REMARK    2  A    between atoms: C_7  and  N_8 
REMARK    3  A    between atoms: C_12  and  C_13 
REMARK    4  A    between atoms: C_18  and  O_19 
ROOT
HETATM    1  C   UNK N   1      33.420  16.442   4.659  0.00  0.00     0.008 A 
HETATM    2  C   UNK N   1      33.155  17.619   5.410  0.00  0.00     0.017 A 
HETATM    3  C   UNK N   1      33.498  17.692   6.778  0.00  0.00     0.031 A 
HETATM    4  C   UNK N   1      34.095  16.574   7.355  0.00  0.00     0.043 A 
HETATM    5  C   UNK N   1      34.345  15.445   6.632  0.00  0.00    -0.006 A 
HETATM    6  C   UNK N   1      34.028  15.339   5.288  0.00  0.00     0.029 A 
HETATM    7  N   UNK N   1      34.484  16.418   8.633  0.00  0.00    -0.355 N 
HETATM    8  C   UNK N   1      34.910  14.521   7.463  0.00  0.00     0.044 A 
HETATM    9  C   UNK N   1      34.981  15.155   8.703  0.00  0.00     0.046 A 
HETATM   10  H   UNK N   1      34.422  17.077   9.362  0.00  0.00     0.166 HD
ENDROOT
BRANCH   9  11
HETATM   11  C   UNK N   1      35.497  14.530   9.945  0.00  0.00     0.024 A 
HETATM   12  C   UNK N   1      36.790  13.986   9.951  0.00  0.00     0.016 A 
HETATM   13  C   UNK N   1      37.309  13.399  11.109  0.00  0.00     0.001 A 
HETATM   14  C   UNK N   1      36.543  13.354  12.275  0.00  0.00     0.003 A 
HETATM   15  C   UNK N   1      35.257  13.893  12.287  0.00  0.00     0.037 A 
HETATM   16  C   UNK N   1      34.728  14.480  11.134  0.00  0.00     0.078 A 
BRANCH  16  17
HETATM   17  O   UNK N   1      33.488  14.998  11.186  0.00  0.00    -0.360 OA
HETATM   18  H   UNK N   1      32.946  14.843  11.934  0.00  0.00     0.217 HD
ENDBRANCH  16  17
ENDBRANCH   9  11
BRANCH   1  19
HETATM   19  C   UNK N   1      33.052  16.358   3.230  0.00  0.00     0.102 C 
HETATM   20  N   UNK N   1      33.621  15.498   2.465  0.00  0.00    -0.385 N 
HETATM   21  H   UNK N   1      33.417  15.481   1.502  0.00  0.00     0.157 HD
HETATM   22  H   UNK N   1      34.262  14.853   2.842  0.00  0.00     0.157 HD
BRANCH  19  23
HETATM   23  N   UNK N   1      32.058  17.208   2.696  0.00  0.00    -0.385 N 
HETATM   24  H   UNK N   1      32.196  17.646   1.826  0.00  0.00     0.157 HD
HETATM   25  H   UNK N   1      31.225  17.365   3.198  0.00  0.00     0.157 HD
ENDBRANCH  19  23
ENDBRANCH   1  19
TORSDOF 4
ENDMDL
MODEL 4
REMARK VINA RESULT:      -6.3     11.092     13.739
REMARK  4 active torsions:
REMARK  status: ('A' for Active; 'I' for Inactive)
REMARK    1  A    between atoms: C_1  and  C_7 
REMARK    2  A    between atoms: C_7  and  N_8 
REMARK    3  A    between atoms: C_12  and  C_13 
REMARK    4  A    between atoms: C_18  and  O_19 
ROOT
HETATM    1  C   UNK N   1      35.340  12.011  18.413  0.00  0.00     0.008 A 
HETATM    2  C   UNK N   1      35.424  10.711  17.848  0.00  0.00     0.017 A 
HETATM    3  C   UNK N   1      35.703  10.540  16.474  0.00  0.00     0.031 A 
HETATM    4  C   UNK N   1      35.885  11.687  15.705  0.00  0.00     0.043 A 
HETATM    5  C   UNK N   1      35.801  12.934  16.250  0.00  0.00    -0.006 A 
HETATM    6  C   UNK N   1      35.535  13.139  17.594  0.00  0.00     0.029 A 
HETATM    7  N   UNK N   1      36.139  11.760  14.386  0.00  0.00    -0.355 N 
HETATM    8  C   UNK N   1      36.001  13.850  15.258  0.00  0.00     0.044 A 
HETATM    9  C   UNK N   1      36.206  13.088  14.108  0.00  0.00     0.046 A 
HETATM   10  H   UNK N   1      36.252  11.011  13.756  0.00  0.00     0.166 HD
ENDROOT
BRANCH   9  11
HETATM   11  C   UNK N   1      36.434  13.646  12.753  0.00  0.00     0.024 A 
HETATM   12  C   UNK N   1      35.865  14.884  12.418  0.00  0.00     0.016 A 
HETATM   13  C   UNK N   1      36.070  15.440  11.151  0.00  0.00     0.001 A 
HETATM   14  C   UNK N   1      36.849  14.768  10.208  0.00  0.00     0.003 A 
HETATM   15  C   UNK N   1      37.424  13.538  10.527  0.00  0.00     0.037 A 
HETATM   16  C   UNK N   1      37.224  12.971  11.788  0.00  0.00     0.078 A 
BRANCH  16  17
HETATM   17  O   UNK N   1      37.801  11.788  12.063  0.00  0.00    -0.360 OA
HETATM   18  H   UNK N   1      37.566  11.026  11.571  0.00  0.00     0.217 HD
ENDBRANCH  16  17
ENDBRANCH   9  11
BRANCH   1  19
HETATM   19  C   UNK N   1      35.037  12.194  19.849  0.00  0.00     0.102 C 
HETATM   20  N   UNK N   1      35.055  11.188  20.647  0.00  0.00    -0.385 N 
HETATM   21  H   UNK N   1      34.797  11.302  21.591  0.00  0.00     0.157 HD
HETATM   22  H   UNK N   1      35.326  10.302  20.315  0.00  0.00     0.157 HD
BRANCH  19  23
HETATM   23  N   UNK N   1      34.745  13.478  20.360  0.00  0.00    -0.385 N 
HETATM   24  H   UNK N   1      33.917  13.940  20.095  0.00  0.00     0.157 HD
HETATM   25  H   UNK N   1      35.373  13.914  20.982  0.00  0.00     0.157 HD
ENDBRANCH  19  23
ENDBRANCH   1  19
TORSDOF 4
ENDMDL
MODEL 5
REMARK VINA RESULT:      -6.3      8.809     11.765
REMARK  4 active torsions:
REMARK  status: ('A' for Active; 'I' for Inactive)
REMARK    1  A    between atoms: C_1  and  C_7 
REMARK    2  A    between atoms: C_7  and  N_8 
REMARK    3  A    between atoms: C_12  and  C_13 
REMARK    4  A    between atoms: C_18  and  O_19 
ROOT
HETATM    1  C   UNK N   1      35.067  12.136  16.718  0.00  0.00     0.008 A 
HETATM    2  C   UNK N   1      34.369  11.025  16.172  0.00  0.00     0.017 A 
HETATM    3  C   UNK N   1      34.150  10.925  14.781  0.00  0.00     0.031 A 
HETATM    4  C   UNK N   1      34.637  11.952  13.976  0.00  0.00     0.043 A 
HETATM    5  C   UNK N   1      35.305  13.018  14.503  0.00  0.00    -0.006 A 
HETATM    6  C   UNK N   1      35.543  13.146  15.861  0.00  0.00     0.029 A 
HETATM    7  N   UNK N   1      34.528  12.071  12.640  0.00  0.00    -0.355 N 
HETATM    8  C   UNK N   1      35.637  13.862  13.483  0.00  0.00     0.044 A 
HETATM    9  C   UNK N   1      35.137  13.246  12.336  0.00  0.00     0.046 A 
HETATM   10  H   UNK N   1      34.098  11.441  12.016  0.00  0.00     0.166 HD
ENDROOT
BRANCH   9  11
HETATM   11  C   UNK N   1      35.226  13.809  10.966  0.00  0.00     0.024 A 
HETATM   12  C   UNK N   1      36.332  13.488  10.165  0.00  0.00     0.016 A 
HETATM   13  C   UNK N   1      36.440  13.995   8.866  0.00  0.00     0.001 A 
HETATM   14  C   UNK N   1      35.441  14.823   8.352  0.00  0.00     0.003 A 
HETATM   15  C   UNK N   1      34.333  15.149   9.135  0.00  0.00     0.037 A 
HETATM   16  C   UNK N   1      34.217  14.650  10.435  0.00  0.00     0.078 A 
BRANCH  16  17
HETATM   17  O   UNK N   1      33.131  14.978  11.157  0.00  0.00    -0.360 OA
HETATM   18  H   UNK N   1      33.230  15.387  11.994  0.00  0.00     0.217 HD
ENDBRANCH  16  17
ENDBRANCH   9  11
BRANCH   1  19
HETATM   19  C   UNK N   1      35.288  12.249  18.176  0.00  0.00     0.102 C 
HETATM   20  N   UNK N   1      35.542  11.202  18.875  0.00  0.00    -0.385 N 
HETATM   21  H   UNK N   1      35.632  11.271  19.853  0.00  0.00     0.157 HD
HETATM   22  H   UNK N   1      35.646  10.329  18.432  0.00  0.00     0.157 HD
BRANCH  19  23
HETATM   23  N   UNK N   1      35.243  13.510  18.809  0.00  0.00    -0.385 N 
HETATM   24  H   UNK N   1      35.519  13.602  19.749  0.00  0.00     0.157 HD
HETATM   25  H   UNK N   1      34.932  14.300  18.309  0.00  0.00     0.157 HD
ENDBRANCH  19  23
ENDBRANCH   1  19
TORSDOF 4
ENDMDL
MODEL 6
REMARK VINA RESULT:      -6.3      4.709      6.987
REMARK  4 active torsions:
REMARK  status: ('A' for Active; 'I' for Inactive)
REMARK    1  A    between atoms: C_1  and  C_7 
REMARK    2  A    between atoms: C_7  and  N_8 
REMARK    3  A    between atoms: C_12  and  C_13 
REMARK    4  A    between atoms: C_18  and  O_19 
ROOT
HETATM    1  C   UNK N   1      35.228  14.627  11.569  0.00  0.00     0.008 A 
HETATM    2  C   UNK N   1      35.807  15.923  11.534  0.00  0.00     0.017 A 
HETATM    3  C   UNK N   1      35.406  16.865  10.561  0.00  0.00     0.031 A 
HETATM    4  C   UNK N   1      34.432  16.472   9.646  0.00  0.00     0.043 A 
HETATM    5  C   UNK N   1      33.880  15.226   9.681  0.00  0.00    -0.006 A 
HETATM    6  C   UNK N   1      34.245  14.279  10.624  0.00  0.00     0.029 A 
HETATM    7  N   UNK N   1      33.918  17.193   8.633  0.00  0.00    -0.355 N 
HETATM    8  C   UNK N   1      32.981  15.127   8.658  0.00  0.00     0.044 A 
HETATM    9  C   UNK N   1      33.030  16.366   8.022  0.00  0.00     0.046 A 
HETATM   10  H   UNK N   1      34.138  18.121   8.387  0.00  0.00     0.166 HD
ENDROOT
BRANCH   9  11
HETATM   11  C   UNK N   1      32.245  16.731   6.817  0.00  0.00     0.024 A 
HETATM   12  C   UNK N   1      30.861  16.499   6.806  0.00  0.00     0.016 A 
HETATM   13  C   UNK N   1      30.092  16.841   5.690  0.00  0.00     0.001 A 
HETATM   14  C   UNK N   1      30.696  17.423   4.574  0.00  0.00     0.003 A 
HETATM   15  C   UNK N   1      32.070  17.663   4.571  0.00  0.00     0.037 A 
HETATM   16  C   UNK N   1      32.849  17.323   5.680  0.00  0.00     0.078 A 
BRANCH  16  17
HETATM   17  O   UNK N   1      34.169  17.578   5.644  0.00  0.00    -0.360 OA
HETATM   18  H   UNK N   1      34.478  18.459   5.720  0.00  0.00     0.217 HD
ENDBRANCH  16  17
ENDBRANCH   9  11
BRANCH   1  19
HETATM   19  C   UNK N   1      35.654  13.635  12.580  0.00  0.00     0.102 C 
HETATM   20  N   UNK N   1      36.827  13.702  13.098  0.00  0.00    -0.385 N 
HETATM   21  H   UNK N   1      37.129  13.008  13.727  0.00  0.00     0.157 HD
HETATM   22  H   UNK N   1      37.424  14.449  12.866  0.00  0.00     0.157 HD
BRANCH  19  23
HETATM   23  N   UNK N   1      34.769  12.616  12.998  0.00  0.00    -0.385 N 
HETATM   24  H   UNK N   1      34.544  12.516  13.950  0.00  0.00     0.157 HD
HETATM   25  H   UNK N   1      34.378  12.002  12.333  0.00  0.00     0.157 HD
ENDBRANCH  19  23
ENDBRANCH   1  19
TORSDOF 4
ENDMDL
MODEL 7
REMARK VINA RESULT:      -6.2      3.228      7.962
REMARK  4 active torsions:
REMARK  status: ('A' for Active; 'I' for Inactive)
REMARK    1  A    between atoms: C_1  and  C_7 
REMARK    2  A    between atoms: C_7  and  N_8 
REMARK    3  A    between atoms: C_12  and  C_13 
REMARK    4  A    between atoms: C_18  and  O_19 
ROOT
HETATM    1  C   UNK N   1      28.426  18.437   6.528  0.00  0.00     0.008 A 
HETATM    2  C   UNK N   1      28.224  18.834   7.877  0.00  0.00     0.017 A 
HETATM    3  C   UNK N   1      29.073  18.361   8.901  0.00  0.00     0.031 A 
HETATM    4  C   UNK N   1      30.102  17.496   8.538  0.00  0.00     0.043 A 
HETATM    5  C   UNK N   1      30.292  17.115   7.243  0.00  0.00    -0.006 A 
HETATM    6  C   UNK N   1      29.483  17.563   6.212  0.00  0.00     0.029 A 
HETATM    7  N   UNK N   1      31.010  16.915   9.345  0.00  0.00    -0.355 N 
HETATM    8  C   UNK N   1      31.352  16.255   7.201  0.00  0.00     0.044 A 
HETATM    9  C   UNK N   1      31.776  16.149   8.525  0.00  0.00     0.046 A 
HETATM   10  H   UNK N   1      31.099  17.022  10.320  0.00  0.00     0.166 HD
ENDROOT
BRANCH   9  11
HETATM   11  C   UNK N   1      32.892  15.289   8.990  0.00  0.00     0.024 A 
HETATM   12  C   UNK N   1      32.823  13.904   8.778  0.00  0.00     0.016 A 
HETATM   13  C   UNK N   1      33.863  13.069   9.196  0.00  0.00     0.001 A 
HETATM   14  C   UNK N   1      34.985  13.609   9.827  0.00  0.00     0.003 A 
HETATM   15  C   UNK N   1      35.070  14.984  10.042  0.00  0.00     0.037 A 
HETATM   16  C   UNK N   1      34.035  15.828   9.631  0.00  0.00     0.078 A 
BRANCH  16  17
HETATM   17  O   UNK N   1      34.156  17.150   9.847  0.00  0.00    -0.360 OA
HETATM   18  H   UNK N   1      33.618  17.753   9.374  0.00  0.00     0.217 HD
ENDBRANCH  16  17
ENDBRANCH   9  11
BRANCH   1  19
HETATM   19  C   UNK N   1      27.532  18.921   5.454  0.00  0.00     0.102 C 
HETATM   20  N   UNK N   1      26.298  19.173   5.704  0.00  0.00    -0.385 N 
HETATM   21  H   UNK N   1      25.691  19.440   4.976  0.00  0.00     0.157 HD
HETATM   22  H   UNK N   1      25.958  19.099   6.625  0.00  0.00     0.157 HD
BRANCH  19  23
HETATM   23  N   UNK N   1      28.031  19.129   4.149  0.00  0.00    -0.385 N 
HETATM   24  H   UNK N   1      28.030  18.394   3.496  0.00  0.00     0.157 HD
HETATM   25  H   UNK N   1      28.381  20.014   3.893  0.00  0.00     0.157 HD
ENDBRANCH  19  23
ENDBRANCH   1  19
TORSDOF 4
ENDMDL
MODEL 8
REMARK VINA RESULT:      -6.2     11.338     14.222
REMARK  4 active torsions:
REMARK  status: ('A' for Active; 'I' for Inactive)
REMARK    1  A    between atoms: C_1  and  C_7 
REMARK    2  A    between atoms: C_7  and  N_8 
REMARK    3  A    between atoms: C_12  and  C_13 
REMARK    4  A    between atoms: C_18  and  O_19 
ROOT
HETATM    1  C   UNK N   1      35.321  11.197  19.393  0.00  0.00     0.008 A 
HETATM    2  C   UNK N   1      35.208  12.598  19.597  0.00  0.00     0.017 A 
HETATM    3  C   UNK N   1      35.187  13.487  18.500  0.00  0.00     0.031 A 
HETATM    4  C   UNK N   1      35.286  12.938  17.223  0.00  0.00     0.043 A 
HETATM    5  C   UNK N   1      35.397  11.592  17.030  0.00  0.00    -0.006 A 
HETATM    6  C   UNK N   1      35.414  10.691  18.082  0.00  0.00     0.029 A 
HETATM    7  N   UNK N   1      35.305  13.591  16.047  0.00  0.00    -0.355 N 
HETATM    8  C   UNK N   1      35.496  11.359  15.689  0.00  0.00     0.044 A 
HETATM    9  C   UNK N   1      35.439  12.623  15.104  0.00  0.00     0.046 A 
HETATM   10  H   UNK N   1      35.237  14.563  15.901  0.00  0.00     0.166 HD
ENDROOT
BRANCH   9  11
HETATM   11  C   UNK N   1      35.543  12.887  13.648  0.00  0.00     0.024 A 
HETATM   12  C   UNK N   1      34.933  12.001  12.746  0.00  0.00     0.016 A 
HETATM   13  C   UNK N   1      35.005  12.228  11.368  0.00  0.00     0.001 A 
HETATM   14  C   UNK N   1      35.683  13.345  10.877  0.00  0.00     0.003 A 
HETATM   15  C   UNK N   1      36.292  14.236  11.760  0.00  0.00     0.037 A 
HETATM   16  C   UNK N   1      36.229  14.018  13.138  0.00  0.00     0.078 A 
BRANCH  16  17
HETATM   17  O   UNK N   1      36.820  14.903  13.960  0.00  0.00    -0.360 OA
HETATM   18  H   UNK N   1      37.092  15.738  13.632  0.00  0.00     0.217 HD
ENDBRANCH  16  17
ENDBRANCH   9  11
BRANCH   1  19
HETATM   19  C   UNK N   1      35.354  10.265  20.540  0.00  0.00     0.102 C 
HETATM   20  N   UNK N   1      36.169  10.464  21.512  0.00  0.00    -0.385 N 
HETATM   21  H   UNK N   1      36.230   9.812  22.247  0.00  0.00     0.157 HD
HETATM   22  H   UNK N   1      36.733  11.270  21.523  0.00  0.00     0.157 HD
BRANCH  19  23
HETATM   23  N   UNK N   1      34.477   9.159  20.587  0.00  0.00    -0.385 N 
HETATM   24  H   UNK N   1      34.792   8.266  20.319  0.00  0.00     0.157 HD
HETATM   25  H   UNK N   1      33.547   9.281  20.888  0.00  0.00     0.157 HD
ENDBRANCH  19  23
ENDBRANCH   1  19
TORSDOF 4
ENDMDL
MODEL 9
REMARK VINA RESULT:      -6.1     10.992     14.131
REMARK  4 active torsions:
REMARK  status: ('A' for Active; 'I' for Inactive)
REMARK    1  A    between atoms: C_1  and  C_7 
REMARK    2  A    between atoms: C_7  and  N_8 
REMARK    3  A    between atoms: C_12  and  C_13 
REMARK    4  A    between atoms: C_18  and  O_19 
ROOT
HETATM    1  C   UNK N   1      36.065  13.854  11.529  0.00  0.00     0.008 A 
HETATM    2  C   UNK N   1      35.279  12.697  11.281  0.00  0.00     0.017 A 
HETATM    3  C   UNK N   1      34.795  11.913  12.352  0.00  0.00     0.031 A 
HETATM    4  C   UNK N   1      35.121  12.316  13.645  0.00  0.00     0.043 A 
HETATM    5  C   UNK N   1      35.877  13.426  13.879  0.00  0.00    -0.006 A 
HETATM    6  C   UNK N   1      36.363  14.221  12.854  0.00  0.00     0.029 A 
HETATM    7  N   UNK N   1      34.785  11.714  14.801  0.00  0.00    -0.355 N 
HETATM    8  C   UNK N   1      36.046  13.552  15.228  0.00  0.00     0.044 A 
HETATM    9  C   UNK N   1      35.357  12.471  15.775  0.00  0.00     0.046 A 
HETATM   10  H   UNK N   1      34.242  10.901  14.917  0.00  0.00     0.166 HD
ENDROOT
BRANCH   9  11
HETATM   11  C   UNK N   1      35.281  12.160  17.223  0.00  0.00     0.024 A 
HETATM   12  C   UNK N   1      35.219  13.215  18.147  0.00  0.00     0.016 A 
HETATM   13  C   UNK N   1      35.137  12.954  19.518  0.00  0.00     0.001 A 
HETATM   14  C   UNK N   1      35.112  11.638  19.981  0.00  0.00     0.003 A 
HETATM   15  C   UNK N   1      35.170  10.579  19.076  0.00  0.00     0.037 A 
HETATM   16  C   UNK N   1      35.254  10.827  17.703  0.00  0.00     0.078 A 
BRANCH  16  17
HETATM   17  O   UNK N   1      35.299   9.781  16.860  0.00  0.00    -0.360 OA
HETATM   18  H   UNK N   1      35.002   8.938  17.142  0.00  0.00     0.217 HD
ENDBRANCH  16  17
ENDBRANCH   9  11
BRANCH   1  19
HETATM   19  C   UNK N   1      36.582  14.671  10.410  0.00  0.00     0.102 C 
HETATM   20  N   UNK N   1      37.847  14.773  10.215  0.00  0.00    -0.385 N 
HETATM   21  H   UNK N   1      38.191  15.363   9.505  0.00  0.00     0.157 HD
HETATM   22  H   UNK N   1      38.474  14.261  10.775  0.00  0.00     0.157 HD
BRANCH  19  23
HETATM   23  N   UNK N   1      35.691  15.330   9.535  0.00  0.00    -0.385 N 
HETATM   24  H   UNK N   1      35.790  15.232   8.561  0.00  0.00     0.157 HD
HETATM   25  H   UNK N   1      34.968  15.891   9.901  0.00  0.00     0.157 HD
ENDBRANCH  19  23
ENDBRANCH   1  19
TORSDOF 4
ENDMDL
