MODEL 1
REMARK VINA RESULT:      -7.6      0.000      0.000
REMARK  6 active torsions:
REMARK  status: ('A' for Active; 'I' for Inactive)
REMARK    1  A    between atoms: C_1  and  C_7 
REMARK    2  A    between atoms: C_7  and  N_8 
REMARK    3  A    between atoms: C_7  and  N_9 
REMARK    4  A    between atoms: C_14  and  C_15 
REMARK    5  A    between atoms: C_19  and  C_22 
REMARK    6  A    between atoms: C_20  and  O_21 
ROOT
HETATM    1  C   UNK N   1      35.160  12.929  16.756  0.00  0.00     0.009 A 
HETATM    2  C   UNK N   1      34.405  11.769  16.415  0.00  0.00     0.017 A 
HETATM    3  C   UNK N   1      34.218  11.399  15.056  0.00  0.00     0.033 A 
HETATM    4  C   UNK N   1      34.792  12.219  14.086  0.00  0.00     0.060 A 
HETATM    5  C   UNK N   1      35.512  13.313  14.435  0.00  0.00     0.061 A 
HETATM    6  C   UNK N   1      35.728  13.702  15.738  0.00  0.00     0.047 A 
HETATM    7  N   UNK N   1      34.707  12.151  12.736  0.00  0.00    -0.340 N 
HETATM    8  N   UNK N   1      35.896  13.967  13.358  0.00  0.00    -0.340 N 
ATOM      9  HN  UNK N   1      36.453  14.820  13.313  1.00  0.00     0.167 HD
HETATM   10  C   UNK N   1      35.387  13.258  12.324  0.00  0.00     0.119 A 
HETATM   11  H   UNK N   1      34.261  11.468  12.185  0.00  0.00     0.167 HD
ENDROOT
BRANCH  10  12
HETATM   12  C   UNK N   1      35.475  13.778  10.935  0.00  0.00     0.042 A 
HETATM   13  C   UNK N   1      36.543  13.453  10.090  0.00  0.00     0.018 A 
HETATM   14  C   UNK N   1      36.567  13.941   8.778  0.00  0.00     0.002 A 
HETATM   15  C   UNK N   1      35.517  14.735   8.294  0.00  0.00     0.015 A 
HETATM   16  C   UNK N   1      34.425  15.061   9.117  0.00  0.00     0.008 A 
HETATM   17  C   UNK N   1      34.419  14.580  10.442  0.00  0.00     0.090 A 
BRANCH  16  18
HETATM   18  C   UNK N   1      33.285  15.885   8.584  0.00  0.00    -0.023 A 
HETATM   19  C   UNK N   1      33.271  17.280   8.737  0.00  0.00     0.012 A 
HETATM   20  C   UNK N   1      32.210  18.038   8.226  0.00  0.00     0.001 A 
HETATM   21  C   UNK N   1      31.151  17.415   7.560  0.00  0.00     0.000 A 
HETATM   22  C   UNK N   1      31.148  16.032   7.401  0.00  0.00     0.001 A 
HETATM   23  C   UNK N   1      32.206  15.281   7.908  0.00  0.00     0.012 A 
ENDBRANCH  16  18
BRANCH  17  24
HETATM   24  O   UNK N   1      33.373  14.860  11.241  0.00  0.00    -0.359 OA
HETATM   25  H   UNK N   1      33.177  15.749  11.465  0.00  0.00     0.217 HD
ENDBRANCH  17  24
ENDBRANCH  10  12
BRANCH   1  26
HETATM   26  C   UNK N   1      35.325  13.373  18.157  0.00  0.00     0.102 C 
BRANCH  26  27
HETATM   27  N   UNK N   1      35.231  12.445  19.215  0.00  0.00    -0.385 N 
HETATM   28  H   UNK N   1      35.996  12.198  19.783  0.00  0.00     0.157 HD
HETATM   29  H   UNK N   1      34.358  12.024  19.394  0.00  0.00     0.157 HD
ENDBRANCH  26  27
BRANCH  26  30
HETATM   30  N   UNK N   1      35.487  14.619  18.424  0.00  0.00    -0.385 N 
HETATM   31  H   UNK N   1      34.864  15.091  19.024  0.00  0.00     0.157 HD
ATOM     32  HN  UNK N   1      36.270  15.126  18.012  1.00  0.00     0.157 HD
ENDBRANCH  26  30
ENDBRANCH   1  26
TORSDOF 6
ENDMDL
MODEL 2
REMARK VINA RESULT:      -7.4      7.850     11.831
REMARK  6 active torsions:
REMARK  status: ('A' for Active; 'I' for Inactive)
REMARK    1  A    between atoms: C_1  and  C_7 
REMARK    2  A    between atoms: C_7  and  N_8 
REMARK    3  A    between atoms: C_7  and  N_9 
REMARK    4  A    between atoms: C_14  and  C_15 
REMARK    5  A    between atoms: C_19  and  C_22 
REMARK    6  A    between atoms: C_20  and  O_21 
ROOT
HETATM    1  C   UNK N   1      30.599  17.165   8.146  0.00  0.00     0.009 A 
HETATM    2  C   UNK N   1      29.976  17.892   9.203  0.00  0.00     0.017 A 
HETATM    3  C   UNK N   1      28.775  18.616   8.974  0.00  0.00     0.033 A 
HETATM    4  C   UNK N   1      28.249  18.590   7.684  0.00  0.00     0.060 A 
HETATM    5  C   UNK N   1      28.855  17.887   6.698  0.00  0.00     0.061 A 
HETATM    6  C   UNK N   1      30.013  17.162   6.876  0.00  0.00     0.047 A 
HETATM    7  N   UNK N   1      27.179  19.245   7.173  0.00  0.00    -0.340 N 
HETATM    8  N   UNK N   1      28.222  18.064   5.556  0.00  0.00    -0.340 N 
ATOM      9  HN  UNK N   1      28.447  17.655   4.650  1.00  0.00     0.167 HD
HETATM   10  C   UNK N   1      27.206  18.907   5.853  0.00  0.00     0.119 A 
HETATM   11  H   UNK N   1      26.537  19.826   7.642  0.00  0.00     0.167 HD
ENDROOT
BRANCH  10  12
HETATM   12  C   UNK N   1      26.355  19.473   4.776  0.00  0.00     0.042 A 
HETATM   13  C   UNK N   1      26.863  20.364   3.823  0.00  0.00     0.018 A 
HETATM   14  C   UNK N   1      26.030  20.847   2.807  0.00  0.00     0.002 A 
HETATM   15  C   UNK N   1      24.694  20.427   2.720  0.00  0.00     0.015 A 
HETATM   16  C   UNK N   1      24.165  19.521   3.654  0.00  0.00     0.008 A 
HETATM   17  C   UNK N   1      25.006  19.054   4.684  0.00  0.00     0.090 A 
BRANCH  16  18
HETATM   18  C   UNK N   1      22.742  19.047   3.539  0.00  0.00    -0.023 A 
HETATM   19  C   UNK N   1      22.418  17.692   3.710  0.00  0.00     0.012 A 
HETATM   20  C   UNK N   1      21.088  17.263   3.613  0.00  0.00     0.001 A 
HETATM   21  C   UNK N   1      20.068  18.179   3.343  0.00  0.00     0.000 A 
HETATM   22  C   UNK N   1      20.371  19.526   3.170  0.00  0.00     0.001 A 
HETATM   23  C   UNK N   1      21.694  19.950   3.269  0.00  0.00     0.012 A 
ENDBRANCH  16  18
BRANCH  17  24
HETATM   24  O   UNK N   1      24.528  18.167   5.576  0.00  0.00    -0.359 OA
HETATM   25  H   UNK N   1      24.970  17.351   5.711  0.00  0.00     0.217 HD
ENDBRANCH  17  24
ENDBRANCH  10  12
BRANCH   1  26
HETATM   26  C   UNK N   1      31.879  16.449   8.337  0.00  0.00     0.102 C 
BRANCH  26  27
HETATM   27  N   UNK N   1      32.097  15.199   7.719  0.00  0.00    -0.385 N 
HETATM   28  H   UNK N   1      32.994  14.832   7.551  0.00  0.00     0.157 HD
HETATM   29  H   UNK N   1      31.314  14.670   7.443  0.00  0.00     0.157 HD
ENDBRANCH  26  27
BRANCH  26  30
HETATM   30  N   UNK N   1      32.775  16.928   9.122  0.00  0.00    -0.385 N 
HETATM   31  H   UNK N   1      33.291  17.729   8.868  0.00  0.00     0.157 HD
ATOM     32  HN  UNK N   1      32.956  16.476  10.019  1.00  0.00     0.157 HD
ENDBRANCH  26  30
ENDBRANCH   1  26
TORSDOF 6
ENDMDL
MODEL 3
REMARK VINA RESULT:      -7.4      8.212     12.757
REMARK  6 active torsions:
REMARK  status: ('A' for Active; 'I' for Inactive)
REMARK    1  A    between atoms: C_1  and  C_7 
REMARK    2  A    between atoms: C_7  and  N_8 
REMARK    3  A    between atoms: C_7  and  N_9 
REMARK    4  A    between atoms: C_14  and  C_15 
REMARK    5  A    between atoms: C_19  and  C_22 
REMARK    6  A    between atoms: C_20  and  O_21 
ROOT
HETATM    1  C   UNK N   1      23.837  19.751   3.471  0.00  0.00     0.009 A 
HETATM    2  C   UNK N   1      24.771  20.529   2.726  0.00  0.00     0.017 A 
HETATM    3  C   UNK N   1      26.150  20.531   3.071  0.00  0.00     0.033 A 
HETATM    4  C   UNK N   1      26.537  19.755   4.162  0.00  0.00     0.060 A 
HETATM    5  C   UNK N   1      25.632  19.019   4.850  0.00  0.00     0.061 A 
HETATM    6  C   UNK N   1      24.290  18.977   4.545  0.00  0.00     0.047 A 
HETATM    7  N   UNK N   1      27.751  19.637   4.750  0.00  0.00    -0.340 N 
HETATM    8  N   UNK N   1      26.212  18.426   5.873  0.00  0.00    -0.340 N 
ATOM      9  HN  UNK N   1      25.781  17.806   6.559  1.00  0.00     0.167 HD
HETATM   10  C   UNK N   1      27.505  18.821   5.813  0.00  0.00     0.119 A 
HETATM   11  H   UNK N   1      28.606  20.042   4.477  0.00  0.00     0.167 HD
ENDROOT
BRANCH  10  12
HETATM   12  C   UNK N   1      28.450  18.481   6.908  0.00  0.00     0.042 A 
HETATM   13  C   UNK N   1      28.159  18.760   8.248  0.00  0.00     0.018 A 
HETATM   14  C   UNK N   1      29.067  18.393   9.249  0.00  0.00     0.002 A 
HETATM   15  C   UNK N   1      30.257  17.725   8.923  0.00  0.00     0.015 A 
HETATM   16  C   UNK N   1      30.564  17.419   7.586  0.00  0.00     0.008 A 
HETATM   17  C   UNK N   1      29.652  17.809   6.584  0.00  0.00     0.090 A 
BRANCH  16  18
HETATM   18  C   UNK N   1      31.824  16.674   7.241  0.00  0.00    -0.023 A 
HETATM   19  C   UNK N   1      31.863  15.272   7.275  0.00  0.00     0.012 A 
HETATM   20  C   UNK N   1      33.039  14.587   6.941  0.00  0.00     0.001 A 
HETATM   21  C   UNK N   1      34.188  15.293   6.571  0.00  0.00     0.000 A 
HETATM   22  C   UNK N   1      34.166  16.684   6.533  0.00  0.00     0.001 A 
HETATM   23  C   UNK N   1      32.996  17.362   6.864  0.00  0.00     0.012 A 
ENDBRANCH  16  18
BRANCH  17  24
HETATM   24  O   UNK N   1      29.913  17.505   5.299  0.00  0.00    -0.359 OA
HETATM   25  H   UNK N   1      29.743  18.132   4.624  0.00  0.00     0.217 HD
ENDBRANCH  17  24
ENDBRANCH  10  12
BRANCH   1  26
HETATM   26  C   UNK N   1      22.388  19.771   3.175  0.00  0.00     0.102 C 
BRANCH  26  27
HETATM   27  N   UNK N   1      21.511  18.888   3.838  0.00  0.00    -0.385 N 
HETATM   28  H   UNK N   1      20.582  19.121   4.064  0.00  0.00     0.157 HD
HETATM   29  H   UNK N   1      21.845  17.995   4.086  0.00  0.00     0.157 HD
ENDBRANCH  26  27
BRANCH  26  30
HETATM   30  N   UNK N   1      21.928  20.549   2.262  0.00  0.00    -0.385 N 
HETATM   31  H   UNK N   1      22.534  21.115   1.729  0.00  0.00     0.157 HD
ATOM     32  HN  UNK N   1      20.924  20.581   2.084  1.00  0.00     0.157 HD
ENDBRANCH  26  30
ENDBRANCH   1  26
TORSDOF 6
ENDMDL
MODEL 4
REMARK VINA RESULT:      -7.2      3.654      8.616
REMARK  6 active torsions:
REMARK  status: ('A' for Active; 'I' for Inactive)
REMARK    1  A    between atoms: C_1  and  C_7 
REMARK    2  A    between atoms: C_7  and  N_8 
REMARK    3  A    between atoms: C_7  and  N_9 
REMARK    4  A    between atoms: C_14  and  C_15 
REMARK    5  A    between atoms: C_19  and  C_22 
REMARK    6  A    between atoms: C_20  and  O_21 
ROOT
HETATM    1  C   UNK N   1      32.567  17.156   5.793  0.00  0.00     0.009 A 
HETATM    2  C   UNK N   1      31.799  17.689   6.870  0.00  0.00     0.017 A 
HETATM    3  C   UNK N   1      32.174  17.443   8.218  0.00  0.00     0.033 A 
HETATM    4  C   UNK N   1      33.306  16.659   8.434  0.00  0.00     0.060 A 
HETATM    5  C   UNK N   1      34.024  16.170   7.395  0.00  0.00     0.061 A 
HETATM    6  C   UNK N   1      33.705  16.391   6.073  0.00  0.00     0.047 A 
HETATM    7  N   UNK N   1      33.836  16.207   9.596  0.00  0.00    -0.340 N 
HETATM    8  N   UNK N   1      35.003  15.407   7.836  0.00  0.00    -0.340 N 
ATOM      9  HN  UNK N   1      35.704  14.912   7.285  1.00  0.00     0.167 HD
HETATM   10  C   UNK N   1      34.871  15.423   9.183  0.00  0.00     0.119 A 
HETATM   11  H   UNK N   1      33.543  16.397  10.516  0.00  0.00     0.167 HD
ENDROOT
BRANCH  10  12
HETATM   12  C   UNK N   1      35.708  14.539  10.034  0.00  0.00     0.042 A 
HETATM   13  C   UNK N   1      37.062  14.316   9.762  0.00  0.00     0.018 A 
HETATM   14  C   UNK N   1      37.819  13.498  10.611  0.00  0.00     0.002 A 
HETATM   15  C   UNK N   1      37.236  12.920  11.748  0.00  0.00     0.015 A 
HETATM   16  C   UNK N   1      35.882  13.142  12.053  0.00  0.00     0.008 A 
HETATM   17  C   UNK N   1      35.124  13.952  11.182  0.00  0.00     0.090 A 
BRANCH  16  18
HETATM   18  C   UNK N   1      35.269  12.548  13.291  0.00  0.00    -0.023 A 
HETATM   19  C   UNK N   1      35.423  13.168  14.540  0.00  0.00     0.012 A 
HETATM   20  C   UNK N   1      34.837  12.612  15.685  0.00  0.00     0.001 A 
HETATM   21  C   UNK N   1      34.093  11.432  15.597  0.00  0.00     0.000 A 
HETATM   22  C   UNK N   1      33.931  10.804  14.366  0.00  0.00     0.001 A 
HETATM   23  C   UNK N   1      34.512  11.359  13.229  0.00  0.00     0.012 A 
ENDBRANCH  16  18
BRANCH  17  24
HETATM   24  O   UNK N   1      33.833  14.198  11.467  0.00  0.00    -0.359 OA
HETATM   25  H   UNK N   1      33.263  13.495  11.711  0.00  0.00     0.217 HD
ENDBRANCH  17  24
ENDBRANCH  10  12
BRANCH   1  26
HETATM   26  C   UNK N   1      32.171  17.345   4.381  0.00  0.00     0.102 C 
BRANCH  26  27
HETATM   27  N   UNK N   1      33.013  16.904   3.338  0.00  0.00    -0.385 N 
HETATM   28  H   UNK N   1      33.912  16.533   3.494  0.00  0.00     0.157 HD
HETATM   29  H   UNK N   1      32.686  16.970   2.412  0.00  0.00     0.157 HD
ENDBRANCH  26  27
BRANCH  26  30
HETATM   30  N   UNK N   1      31.089  17.974   4.093  0.00  0.00    -0.385 N 
HETATM   31  H   UNK N   1      30.803  18.754   4.622  0.00  0.00     0.157 HD
ATOM     32  HN  UNK N   1      30.517  17.662   3.307  1.00  0.00     0.157 HD
ENDBRANCH  26  30
ENDBRANCH   1  26
TORSDOF 6
ENDMDL
MODEL 5
REMARK VINA RESULT:      -7.2      2.680      8.245
REMARK  6 active torsions:
REMARK  status: ('A' for Active; 'I' for Inactive)
REMARK    1  A    between atoms: C_1  and  C_7 
REMARK    2  A    between atoms: C_7  and  N_8 
REMARK    3  A    between atoms: C_7  and  N_9 
REMARK    4  A    between atoms: C_14  and  C_15 
REMARK    5  A    between atoms: C_19  and  C_22 
REMARK    6  A    between atoms: C_20  and  O_21 
ROOT
HETATM    1  C   UNK N   1      34.073  16.344   8.889  0.00  0.00     0.009 A 
HETATM    2  C   UNK N   1      33.500  15.194   8.271  0.00  0.00     0.017 A 
HETATM    3  C   UNK N   1      33.588  13.919   8.891  0.00  0.00     0.033 A 
HETATM    4  C   UNK N   1      34.261  13.846  10.109  0.00  0.00     0.060 A 
HETATM    5  C   UNK N   1      34.792  14.954  10.680  0.00  0.00     0.061 A 
HETATM    6  C   UNK N   1      34.721  16.211  10.122  0.00  0.00     0.047 A 
HETATM    7  N   UNK N   1      34.560  12.764  10.868  0.00  0.00    -0.340 N 
HETATM    8  N   UNK N   1      35.434  14.633  11.785  0.00  0.00    -0.340 N 
ATOM      9  HN  UNK N   1      35.925  15.259  12.424  1.00  0.00     0.167 HD
HETATM   10  C   UNK N   1      35.300  13.291  11.885  0.00  0.00     0.119 A 
HETATM   11  H   UNK N   1      34.306  11.825  10.721  0.00  0.00     0.167 HD
ENDROOT
BRANCH  10  12
HETATM   12  C   UNK N   1      36.034  12.533  12.930  0.00  0.00     0.042 A 
HETATM   13  C   UNK N   1      37.155  11.751  12.627  0.00  0.00     0.018 A 
HETATM   14  C   UNK N   1      37.834  11.080  13.650  0.00  0.00     0.002 A 
HETATM   15  C   UNK N   1      37.417  11.204  14.984  0.00  0.00     0.015 A 
HETATM   16  C   UNK N   1      36.305  11.997  15.317  0.00  0.00     0.008 A 
HETATM   17  C   UNK N   1      35.616  12.654  14.277  0.00  0.00     0.090 A 
BRANCH  16  18
HETATM   18  C   UNK N   1      35.879  12.155  16.751  0.00  0.00    -0.023 A 
HETATM   19  C   UNK N   1      35.697  11.034  17.575  0.00  0.00     0.012 A 
HETATM   20  C   UNK N   1      35.312  11.193  18.913  0.00  0.00     0.001 A 
HETATM   21  C   UNK N   1      35.104  12.470  19.442  0.00  0.00     0.000 A 
HETATM   22  C   UNK N   1      35.280  13.592  18.638  0.00  0.00     0.001 A 
HETATM   23  C   UNK N   1      35.664  13.431  17.309  0.00  0.00     0.012 A 
ENDBRANCH  16  18
BRANCH  17  24
HETATM   24  O   UNK N   1      34.564  13.438  14.574  0.00  0.00    -0.359 OA
HETATM   25  H   UNK N   1      34.561  13.940  15.366  0.00  0.00     0.217 HD
ENDBRANCH  17  24
ENDBRANCH  10  12
BRANCH   1  26
HETATM   26  C   UNK N   1      34.049  17.675   8.243  0.00  0.00     0.102 C 
BRANCH  26  27
HETATM   27  N   UNK N   1      34.937  18.688   8.661  0.00  0.00    -0.385 N 
HETATM   28  H   UNK N   1      35.681  19.013   8.105  0.00  0.00     0.157 HD
HETATM   29  H   UNK N   1      34.807  19.087   9.551  0.00  0.00     0.157 HD
ENDBRANCH  26  27
BRANCH  26  30
HETATM   30  N   UNK N   1      33.173  17.938   7.342  0.00  0.00    -0.385 N 
HETATM   31  H   UNK N   1      33.445  18.280   6.458  0.00  0.00     0.157 HD
ATOM     32  HN  UNK N   1      32.183  17.791   7.541  1.00  0.00     0.157 HD
ENDBRANCH  26  30
ENDBRANCH   1  26
TORSDOF 6
ENDMDL
MODEL 6
REMARK VINA RESULT:      -7.2      4.051      8.693
REMARK  6 active torsions:
REMARK  status: ('A' for Active; 'I' for Inactive)
REMARK    1  A    between atoms: C_1  and  C_7 
REMARK    2  A    between atoms: C_7  and  N_8 
REMARK    3  A    between atoms: C_7  and  N_9 
REMARK    4  A    between atoms: C_14  and  C_15 
REMARK    5  A    between atoms: C_19  and  C_22 
REMARK    6  A    between atoms: C_20  and  O_21 
ROOT
HETATM    1  C   UNK N   1      28.690  17.733   7.293  0.00  0.00     0.009 A 
HETATM    2  C   UNK N   1      29.008  18.675   8.315  0.00  0.00     0.017 A 
HETATM    3  C   UNK N   1      30.249  18.606   9.002  0.00  0.00     0.033 A 
HETATM    4  C   UNK N   1      31.123  17.582   8.642  0.00  0.00     0.060 A 
HETATM    5  C   UNK N   1      30.801  16.703   7.663  0.00  0.00     0.061 A 
HETATM    6  C   UNK N   1      29.616  16.738   6.963  0.00  0.00     0.047 A 
HETATM    7  N   UNK N   1      32.318  17.236   9.179  0.00  0.00    -0.340 N 
HETATM    8  N   UNK N   1      31.743  15.789   7.545  0.00  0.00    -0.340 N 
ATOM      9  HN  UNK N   1      31.774  15.009   6.889  1.00  0.00     0.167 HD
HETATM   10  C   UNK N   1      32.660  16.115   8.485  0.00  0.00     0.119 A 
HETATM   11  H   UNK N   1      32.819  17.687   9.897  0.00  0.00     0.167 HD
ENDROOT
BRANCH  10  12
HETATM   12  C   UNK N   1      33.805  15.213   8.767  0.00  0.00     0.042 A 
HETATM   13  C   UNK N   1      34.700  14.818   7.766  0.00  0.00     0.018 A 
HETATM   14  C   UNK N   1      35.784  13.991   8.086  0.00  0.00     0.002 A 
HETATM   15  C   UNK N   1      35.996  13.574   9.408  0.00  0.00     0.015 A 
HETATM   16  C   UNK N   1      35.121  13.970  10.435  0.00  0.00     0.008 A 
HETATM   17  C   UNK N   1      34.023  14.788  10.100  0.00  0.00     0.090 A 
BRANCH  16  18
HETATM   18  C   UNK N   1      35.370  13.548  11.857  0.00  0.00    -0.023 A 
HETATM   19  C   UNK N   1      34.940  12.296  12.323  0.00  0.00     0.012 A 
HETATM   20  C   UNK N   1      35.188  11.909  13.646  0.00  0.00     0.001 A 
HETATM   21  C   UNK N   1      35.865  12.765  14.519  0.00  0.00     0.000 A 
HETATM   22  C   UNK N   1      36.297  14.010  14.074  0.00  0.00     0.001 A 
HETATM   23  C   UNK N   1      36.052  14.393  12.757  0.00  0.00     0.012 A 
ENDBRANCH  16  18
BRANCH  17  24
HETATM   24  O   UNK N   1      33.186  15.199  11.070  0.00  0.00    -0.359 OA
HETATM   25  H   UNK N   1      32.306  14.878  11.099  0.00  0.00     0.217 HD
ENDBRANCH  17  24
ENDBRANCH  10  12
BRANCH   1  26
HETATM   26  C   UNK N   1      27.384  17.742   6.598  0.00  0.00     0.102 C 
BRANCH  26  27
HETATM   27  N   UNK N   1      26.642  16.551   6.457  0.00  0.00    -0.385 N 
HETATM   28  H   UNK N   1      26.451  15.944   7.208  0.00  0.00     0.157 HD
HETATM   29  H   UNK N   1      26.300  16.316   5.564  0.00  0.00     0.157 HD
ENDBRANCH  26  27
BRANCH  26  30
HETATM   30  N   UNK N   1      26.947  18.824   6.060  0.00  0.00    -0.385 N 
HETATM   31  H   UNK N   1      27.068  18.992   5.097  0.00  0.00     0.157 HD
ATOM     32  HN  UNK N   1      26.470  19.518   6.636  1.00  0.00     0.157 HD
ENDBRANCH  26  30
ENDBRANCH   1  26
TORSDOF 6
ENDMDL
MODEL 7
REMARK VINA RESULT:      -7.1      2.024      3.485
REMARK  6 active torsions:
REMARK  status: ('A' for Active; 'I' for Inactive)
REMARK    1  A    between atoms: C_1  and  C_7 
REMARK    2  A    between atoms: C_7  and  N_8 
REMARK    3  A    between atoms: C_7  and  N_9 
REMARK    4  A    between atoms: C_14  and  C_15 
REMARK    5  A    between atoms: C_19  and  C_22 
REMARK    6  A    between atoms: C_20  and  O_21 
ROOT
HETATM    1  C   UNK N   1      36.035  13.441  13.663  0.00  0.00     0.009 A 
HETATM    2  C   UNK N   1      35.586  12.209  13.103  0.00  0.00     0.017 A 
HETATM    3  C   UNK N   1      35.048  12.165  11.789  0.00  0.00     0.033 A 
HETATM    4  C   UNK N   1      34.971  13.367  11.089  0.00  0.00     0.060 A 
HETATM    5  C   UNK N   1      35.410  14.524  11.640  0.00  0.00     0.061 A 
HETATM    6  C   UNK N   1      35.949  14.613  12.904  0.00  0.00     0.047 A 
HETATM    7  N   UNK N   1      34.437  13.626   9.871  0.00  0.00    -0.340 N 
HETATM    8  N   UNK N   1      35.176  15.534  10.826  0.00  0.00    -0.340 N 
ATOM      9  HN  UNK N   1      35.403  16.517  10.973  1.00  0.00     0.167 HD
HETATM   10  C   UNK N   1      34.567  14.977   9.754  0.00  0.00     0.119 A 
HETATM   11  H   UNK N   1      34.047  12.992   9.227  0.00  0.00     0.167 HD
ENDROOT
BRANCH  10  12
HETATM   12  C   UNK N   1      34.000  15.833   8.680  0.00  0.00     0.042 A 
HETATM   13  C   UNK N   1      34.748  16.204   7.557  0.00  0.00     0.018 A 
HETATM   14  C   UNK N   1      34.161  16.986   6.555  0.00  0.00     0.002 A 
HETATM   15  C   UNK N   1      32.818  17.380   6.654  0.00  0.00     0.015 A 
HETATM   16  C   UNK N   1      32.040  17.006   7.763  0.00  0.00     0.008 A 
HETATM   17  C   UNK N   1      32.646  16.234   8.776  0.00  0.00     0.090 A 
BRANCH  16  18
HETATM   18  C   UNK N   1      30.592  17.401   7.851  0.00  0.00    -0.023 A 
HETATM   19  C   UNK N   1      29.644  16.866   6.964  0.00  0.00     0.012 A 
HETATM   20  C   UNK N   1      28.295  17.232   7.063  0.00  0.00     0.001 A 
HETATM   21  C   UNK N   1      27.878  18.136   8.044  0.00  0.00     0.000 A 
HETATM   22  C   UNK N   1      28.804  18.677   8.930  0.00  0.00     0.001 A 
HETATM   23  C   UNK N   1      30.144  18.310   8.831  0.00  0.00     0.012 A 
ENDBRANCH  16  18
BRANCH  17  24
HETATM   24  O   UNK N   1      31.914  15.843   9.835  0.00  0.00    -0.359 OA
HETATM   25  H   UNK N   1      32.196  15.120  10.360  0.00  0.00     0.217 HD
ENDBRANCH  17  24
ENDBRANCH  10  12
BRANCH   1  26
HETATM   26  C   UNK N   1      36.547  13.531  15.048  0.00  0.00     0.102 C 
BRANCH  26  27
HETATM   27  N   UNK N   1      36.142  12.592  16.021  0.00  0.00    -0.385 N 
HETATM   28  H   UNK N   1      36.685  12.368  16.810  0.00  0.00     0.157 HD
HETATM   29  H   UNK N   1      35.274  12.141  15.904  0.00  0.00     0.157 HD
ENDBRANCH  26  27
BRANCH  26  30
HETATM   30  N   UNK N   1      37.311  14.504  15.392  0.00  0.00    -0.385 N 
HETATM   31  H   UNK N   1      38.285  14.455  15.247  0.00  0.00     0.157 HD
ATOM     32  HN  UNK N   1      36.907  15.338  15.819  1.00  0.00     0.157 HD
ENDBRANCH  26  30
ENDBRANCH   1  26
TORSDOF 6
ENDMDL
MODEL 8
REMARK VINA RESULT:      -7.0     11.556     12.830
REMARK  6 active torsions:
REMARK  status: ('A' for Active; 'I' for Inactive)
REMARK    1  A    between atoms: C_1  and  C_7 
REMARK    2  A    between atoms: C_7  and  N_8 
REMARK    3  A    between atoms: C_7  and  N_9 
REMARK    4  A    between atoms: C_14  and  C_15 
REMARK    5  A    between atoms: C_19  and  C_22 
REMARK    6  A    between atoms: C_20  and  O_21 
ROOT
HETATM    1  C   UNK N   1      21.518  12.932   9.940  0.00  0.00     0.009 A 
HETATM    2  C   UNK N   1      20.594  14.006   9.785  0.00  0.00     0.017 A 
HETATM    3  C   UNK N   1      20.615  14.816   8.617  0.00  0.00     0.033 A 
HETATM    4  C   UNK N   1      21.574  14.519   7.651  0.00  0.00     0.060 A 
HETATM    5  C   UNK N   1      22.436  13.488   7.818  0.00  0.00     0.061 A 
HETATM    6  C   UNK N   1      22.446  12.671   8.926  0.00  0.00     0.047 A 
HETATM    7  N   UNK N   1      21.867  15.166   6.497  0.00  0.00    -0.340 N 
HETATM    8  N   UNK N   1      23.289  13.441   6.815  0.00  0.00    -0.340 N 
ATOM      9  HN  UNK N   1      24.044  12.771   6.671  1.00  0.00     0.167 HD
HETATM   10  C   UNK N   1      22.943  14.479   6.019  0.00  0.00     0.119 A 
HETATM   11  H   UNK N   1      21.413  15.944   6.100  0.00  0.00     0.167 HD
ENDROOT
BRANCH  10  12
HETATM   12  C   UNK N   1      23.786  14.853   4.855  0.00  0.00     0.042 A 
HETATM   13  C   UNK N   1      23.865  14.050   3.711  0.00  0.00     0.018 A 
HETATM   14  C   UNK N   1      24.649  14.458   2.625  0.00  0.00     0.002 A 
HETATM   15  C   UNK N   1      25.338  15.680   2.663  0.00  0.00     0.015 A 
HETATM   16  C   UNK N   1      25.261  16.512   3.793  0.00  0.00     0.008 A 
HETATM   17  C   UNK N   1      24.484  16.084   4.888  0.00  0.00     0.090 A 
BRANCH  16  18
HETATM   18  C   UNK N   1      25.974  17.836   3.818  0.00  0.00    -0.023 A 
HETATM   19  C   UNK N   1      25.359  18.994   3.317  0.00  0.00     0.012 A 
HETATM   20  C   UNK N   1      26.028  20.225   3.356  0.00  0.00     0.001 A 
HETATM   21  C   UNK N   1      27.315  20.314   3.893  0.00  0.00     0.000 A 
HETATM   22  C   UNK N   1      27.940  19.175   4.392  0.00  0.00     0.001 A 
HETATM   23  C   UNK N   1      27.273  17.953   4.355  0.00  0.00     0.012 A 
ENDBRANCH  16  18
BRANCH  17  24
HETATM   24  O   UNK N   1      24.377  16.875   5.971  0.00  0.00    -0.359 OA
HETATM   25  H   UNK N   1      25.049  16.872   6.624  0.00  0.00     0.217 HD
ENDBRANCH  17  24
ENDBRANCH  10  12
BRANCH   1  26
HETATM   26  C   UNK N   1      21.561  12.107  11.168  0.00  0.00     0.102 C 
BRANCH  26  27
HETATM   27  N   UNK N   1      22.759  11.474  11.561  0.00  0.00    -0.385 N 
HETATM   28  H   UNK N   1      23.523  11.962  11.945  0.00  0.00     0.157 HD
HETATM   29  H   UNK N   1      22.833  10.499  11.446  0.00  0.00     0.157 HD
ENDBRANCH  26  27
BRANCH  26  30
HETATM   30  N   UNK N   1      20.490  11.907  11.848  0.00  0.00    -0.385 N 
HETATM   31  H   UNK N   1      20.459  11.214  12.548  0.00  0.00     0.157 HD
ATOM     32  HN  UNK N   1      19.661  12.472  11.662  1.00  0.00     0.157 HD
ENDBRANCH  26  30
ENDBRANCH   1  26
TORSDOF 6
ENDMDL
MODEL 9
REMARK VINA RESULT:      -7.0      3.195      5.932
REMARK  6 active torsions:
REMARK  status: ('A' for Active; 'I' for Inactive)
REMARK    1  A    between atoms: C_1  and  C_7 
REMARK    2  A    between atoms: C_7  and  N_8 
REMARK    3  A    between atoms: C_7  and  N_9 
REMARK    4  A    between atoms: C_14  and  C_15 
REMARK    5  A    between atoms: C_19  and  C_22 
REMARK    6  A    between atoms: C_20  and  O_21 
ROOT
HETATM    1  C   UNK N   1      35.171  14.478  11.525  0.00  0.00     0.009 A 
HETATM    2  C   UNK N   1      35.854  15.720  11.685  0.00  0.00     0.017 A 
HETATM    3  C   UNK N   1      35.587  16.810  10.813  0.00  0.00     0.033 A 
HETATM    4  C   UNK N   1      34.648  16.606   9.804  0.00  0.00     0.060 A 
HETATM    5  C   UNK N   1      34.007  15.420   9.677  0.00  0.00     0.061 A 
HETATM    6  C   UNK N   1      34.225  14.341  10.504  0.00  0.00     0.047 A 
HETATM    7  N   UNK N   1      34.265  17.432   8.800  0.00  0.00    -0.340 N 
HETATM    8  N   UNK N   1      33.221  15.438   8.620  0.00  0.00    -0.340 N 
ATOM      9  HN  UNK N   1      32.616  14.690   8.282  1.00  0.00     0.167 HD
HETATM   10  C   UNK N   1      33.396  16.667   8.082  0.00  0.00     0.119 A 
HETATM   11  H   UNK N   1      34.546  18.360   8.631  0.00  0.00     0.167 HD
ENDROOT
BRANCH  10  12
HETATM   12  C   UNK N   1      32.789  17.010   6.770  0.00  0.00     0.042 A 
HETATM   13  C   UNK N   1      33.572  17.281   5.642  0.00  0.00     0.018 A 
HETATM   14  C   UNK N   1      32.956  17.569   4.418  0.00  0.00     0.002 A 
HETATM   15  C   UNK N   1      31.557  17.564   4.306  0.00  0.00     0.015 A 
HETATM   16  C   UNK N   1      30.749  17.279   5.420  0.00  0.00     0.008 A 
HETATM   17  C   UNK N   1      31.379  17.008   6.652  0.00  0.00     0.090 A 
BRANCH  16  18
HETATM   18  C   UNK N   1      29.251  17.242   5.289  0.00  0.00    -0.023 A 
HETATM   19  C   UNK N   1      28.578  16.031   5.066  0.00  0.00     0.012 A 
HETATM   20  C   UNK N   1      27.181  16.006   4.959  0.00  0.00     0.001 A 
HETATM   21  C   UNK N   1      26.442  17.188   5.070  0.00  0.00     0.000 A 
HETATM   22  C   UNK N   1      27.094  18.396   5.290  0.00  0.00     0.001 A 
HETATM   23  C   UNK N   1      28.482  18.418   5.399  0.00  0.00     0.012 A 
ENDBRANCH  16  18
BRANCH  17  24
HETATM   24  O   UNK N   1      30.626  16.708   7.726  0.00  0.00    -0.359 OA
HETATM   25  H   UNK N   1      29.891  17.245   7.949  0.00  0.00     0.217 HD
ENDBRANCH  17  24
ENDBRANCH  10  12
BRANCH   1  26
HETATM   26  C   UNK N   1      35.468  13.307  12.378  0.00  0.00     0.102 C 
BRANCH  26  27
HETATM   27  N   UNK N   1      36.715  13.195  13.029  0.00  0.00    -0.385 N 
HETATM   28  H   UNK N   1      37.166  13.956  13.461  0.00  0.00     0.157 HD
HETATM   29  H   UNK N   1      37.154  12.314  13.051  0.00  0.00     0.157 HD
ENDBRANCH  26  27
BRANCH  26  30
HETATM   30  N   UNK N   1      34.617  12.350  12.479  0.00  0.00    -0.385 N 
HETATM   31  H   UNK N   1      33.807  12.451  13.032  0.00  0.00     0.157 HD
ATOM     32  HN  UNK N   1      34.779  11.475  11.980  1.00  0.00     0.157 HD
ENDBRANCH  26  30
ENDBRANCH   1  26
TORSDOF 6
ENDMDL
