REMARK  10 active torsions:
REMARK  status: ('A' for Active; 'I' for Inactive)
REMARK    1  A    between atoms: N_1  and  C_18 
REMARK    2  A    between atoms: C_14  and  C_15 
REMARK    3  A    between atoms: C_14  and  C_16 
REMARK    4  A    between atoms: C_16  and  C_21 
REMARK    5  A    between atoms: C_17  and  C_19 
REMARK    6  A    between atoms: C_17  and  C_20 
REMARK    7  A    between atoms: C_18  and  C_22 
REMARK    8  A    between atoms: C_20  and  C_23 
REMARK    9  A    between atoms: C_28  and  C_30 
REMARK   10  A    between atoms: C_31  and  C_35 
ROOT
HETATM    1  N   UNK N   1       8.396  -0.657   1.312  0.00  0.00    -0.365 N 
ATOM      2  HN  UNK N   1       8.810  -1.364   1.918  1.00  0.00     0.165 HD
HETATM    3  C   UNK N   1       6.654   0.892   0.863  0.00  0.00    -0.023 A 
HETATM    4  C   UNK N   1       7.251   1.225  -0.357  0.00  0.00     0.012 A 
HETATM    5  C   UNK N   1       7.242  -0.061   1.686  0.00  0.00     0.097 A 
HETATM    6  C   UNK N   1       9.018  -0.336   0.148  0.00  0.00     0.043 A 
HETATM    7  C   UNK N   1       8.452   0.616  -0.715  0.00  0.00     0.031 A 
ENDROOT
BRANCH   3   8
HETATM    8  C   UNK N   1       5.327   1.422   1.238  0.00  0.00     0.190 C 
BRANCH   8   9
HETATM    9  N   UNK N   1       4.304   0.972   0.300  0.00  0.00    -0.275 N 
HETATM   10  N   UNK N   1       3.262   1.715  -0.011  0.00  0.00    -0.285 N 
HETATM   11  C   UNK N   1       2.545   1.012  -0.911  0.00  0.00     0.097 A 
ATOM     12  HN  UNK N   1       3.042   2.641   0.356  1.00  0.00     0.188 HD
HETATM   13  N   UNK N   1       3.117  -0.177  -1.187  0.00  0.00    -0.333 N 
HETATM   14  C   UNK N   1       4.215  -0.180  -0.413  0.00  0.00     0.100 A 
ATOM     15  HN  UNK N   1       2.793  -0.900  -1.829  1.00  0.00     0.168 HD
BRANCH  11  16
HETATM   16  C   UNK N   1       1.296   1.497  -1.568  0.00  0.00     0.078 C 
BRANCH  16  17
HETATM   17  C   UNK N   1       1.014   2.942  -1.201  0.00  0.00     0.007 C 
BRANCH  17  18
HETATM   18  C   UNK N   1      -0.272   3.029  -0.414  0.00  0.00    -0.004 C 
HETATM   19  C   UNK N   1      -0.273   4.313   0.387  0.00  0.00     0.005 C 
ENDBRANCH  17  18
ENDBRANCH  16  17
ENDBRANCH  11  16
BRANCH  14  20
HETATM   20  C   UNK N   1       5.208  -1.305  -0.434  0.00  0.00     0.078 C 
BRANCH  20  21
HETATM   21  C   UNK N   1       5.068  -2.224   0.770  0.00  0.00     0.007 C 
BRANCH  21  22
HETATM   22  C   UNK N   1       3.813  -3.076   0.661  0.00  0.00    -0.004 C 
HETATM   23  C   UNK N   1       3.932  -4.071  -0.480  0.00  0.00     0.005 C 
ENDBRANCH  21  22
ENDBRANCH  20  21
ENDBRANCH  14  20
ENDBRANCH   8   9
ENDBRANCH   3   8
BRANCH   6  24
HETATM   24  C   UNK N   1      10.322  -0.936  -0.119  0.00  0.00     0.005 A 
HETATM   25  C   UNK N   1      11.515  -0.164  -0.177  0.00  0.00     0.023 A 
HETATM   26  C   UNK N   1      12.738  -0.835  -0.331  0.00  0.00     0.016 A 
HETATM   27  C   UNK N   1      12.789  -2.227  -0.428  0.00  0.00     0.001 A 
HETATM   28  C   UNK N   1      11.617  -2.977  -0.350  0.00  0.00     0.001 A 
HETATM   29  C   UNK N   1      10.393  -2.334  -0.181  0.00  0.00     0.014 A 
BRANCH  25  30
HETATM   30  C   UNK N   1      11.554   1.313   0.024  0.00  0.00     0.145 A 
HETATM   31  N   UNK N   1      10.494   2.120   0.214  0.00  0.00    -0.271 N 
HETATM   32  N   UNK N   1      10.984   3.333   0.385  0.00  0.00    -0.225 N 
ATOM     33  HN  UNK N   1       9.510   1.849   0.223  1.00  0.00     0.190 HD
HETATM   34  N   UNK N   1      12.306   3.282   0.318  0.00  0.00    -0.005 NA
HETATM   35  H   UNK N   1      10.451   4.147   0.539  0.00  0.00     0.205 HD
HETATM   36  N   UNK N   1      12.687   2.036   0.096  0.00  0.00    -0.266 N 
ATOM     37  HN  UNK N   1      13.642   1.693  -0.002  1.00  0.00     0.186 HD
ENDBRANCH  25  30
ENDBRANCH   6  24
TORSDOF 10
