MODEL 1
REMARK VINA RESULT:      -6.9      0.000      0.000
REMARK  10 active torsions:
REMARK  status: ('A' for Active; 'I' for Inactive)
REMARK    1  A    between atoms: N_1  and  C_18 
REMARK    2  A    between atoms: C_14  and  C_15 
REMARK    3  A    between atoms: C_14  and  C_16 
REMARK    4  A    between atoms: C_16  and  C_21 
REMARK    5  A    between atoms: C_17  and  C_19 
REMARK    6  A    between atoms: C_17  and  C_20 
REMARK    7  A    between atoms: C_18  and  C_22 
REMARK    8  A    between atoms: C_20  and  C_23 
REMARK    9  A    between atoms: C_28  and  C_30 
REMARK   10  A    between atoms: C_31  and  C_35 
ROOT
HETATM    1  N   UNK N   1      32.898  15.258   8.962  0.00  0.00    -0.365 N 
ATOM      2  HN  UNK N   1      32.088  14.747   8.614  1.00  0.00     0.165 HD
HETATM    3  C   UNK N   1      34.612  15.526  10.584  0.00  0.00    -0.023 A 
HETATM    4  C   UNK N   1      35.065  16.675   9.929  0.00  0.00     0.012 A 
HETATM    5  C   UNK N   1      33.517  14.830  10.085  0.00  0.00     0.097 A 
HETATM    6  C   UNK N   1      33.331  16.353   8.285  0.00  0.00     0.043 A 
HETATM    7  C   UNK N   1      34.429  17.088   8.760  0.00  0.00     0.031 A 
ENDROOT
BRANCH   3   8
HETATM    8  C   UNK N   1      35.176  15.109  11.884  0.00  0.00     0.190 C 
BRANCH   8   9
HETATM    9  N   UNK N   1      35.357  13.662  11.932  0.00  0.00    -0.275 N 
HETATM   10  N   UNK N   1      34.560  12.879  12.629  0.00  0.00    -0.285 N 
HETATM   11  C   UNK N   1      34.994  11.617  12.430  0.00  0.00     0.097 A 
ATOM     12  HN  UNK N   1      33.770  13.169  13.204  1.00  0.00     0.188 HD
HETATM   13  N   UNK N   1      36.062  11.579  11.608  0.00  0.00    -0.333 N 
HETATM   14  C   UNK N   1      36.272  12.873  11.313  0.00  0.00     0.100 A 
ATOM     15  HN  UNK N   1      36.584  10.764  11.289  1.00  0.00     0.168 HD
BRANCH  11  16
HETATM   16  C   UNK N   1      34.352  10.398  13.003  0.00  0.00     0.078 C 
BRANCH  16  17
HETATM   17  C   UNK N   1      33.618  10.724  14.291  0.00  0.00     0.007 C 
BRANCH  17  18
HETATM   18  C   UNK N   1      34.556  10.582  15.465  0.00  0.00    -0.004 C 
HETATM   19  C   UNK N   1      35.347   9.301  15.313  0.00  0.00     0.005 C 
ENDBRANCH  17  18
ENDBRANCH  16  17
ENDBRANCH  11  16
BRANCH  14  20
HETATM   20  C   UNK N   1      37.347  13.314  10.363  0.00  0.00     0.078 C 
BRANCH  20  21
HETATM   21  C   UNK N   1      37.273  12.588   9.028  0.00  0.00     0.007 C 
BRANCH  21  22
HETATM   22  C   UNK N   1      36.015  12.975   8.267  0.00  0.00    -0.004 C 
HETATM   23  C   UNK N   1      36.279  14.157   7.350  0.00  0.00     0.005 C 
ENDBRANCH  21  22
ENDBRANCH  20  21
ENDBRANCH  14  20
ENDBRANCH   8   9
ENDBRANCH   3   8
BRANCH   6  24
HETATM   24  C   UNK N   1      32.684  16.673   7.016  0.00  0.00     0.005 A 
HETATM   25  C   UNK N   1      31.380  17.237   6.950  0.00  0.00     0.023 A 
HETATM   26  C   UNK N   1      30.878  17.613   5.695  0.00  0.00     0.016 A 
HETATM   27  C   UNK N   1      31.634  17.438   4.534  0.00  0.00     0.001 A 
HETATM   28  C   UNK N   1      32.918  16.903   4.610  0.00  0.00     0.001 A 
HETATM   29  C   UNK N   1      33.444  16.538   5.847  0.00  0.00     0.014 A 
BRANCH  25  30
HETATM   30  C   UNK N   1      30.555  17.553   8.151  0.00  0.00     0.145 A 
HETATM   31  N   UNK N   1      30.919  18.329   9.188  0.00  0.00    -0.271 N 
HETATM   32  N   UNK N   1      29.880  18.367  10.000  0.00  0.00    -0.225 N 
ATOM     33  HN  UNK N   1      31.818  18.794   9.320  1.00  0.00     0.190 HD
HETATM   34  N   UNK N   1      28.895  17.649   9.480  0.00  0.00    -0.005 NA
HETATM   35  H   UNK N   1      29.843  18.852  10.856  0.00  0.00     0.205 HD
HETATM   36  N   UNK N   1      29.288  17.133   8.329  0.00  0.00    -0.266 N 
ATOM     37  HN  UNK N   1      28.744  16.538   7.704  1.00  0.00     0.186 HD
ENDBRANCH  25  30
ENDBRANCH   6  24
TORSDOF 10
ENDMDL
MODEL 2
REMARK VINA RESULT:      -6.8      9.247     12.958
REMARK  10 active torsions:
REMARK  status: ('A' for Active; 'I' for Inactive)
REMARK    1  A    between atoms: N_1  and  C_18 
REMARK    2  A    between atoms: C_14  and  C_15 
REMARK    3  A    between atoms: C_14  and  C_16 
REMARK    4  A    between atoms: C_16  and  C_21 
REMARK    5  A    between atoms: C_17  and  C_19 
REMARK    6  A    between atoms: C_17  and  C_20 
REMARK    7  A    between atoms: C_18  and  C_22 
REMARK    8  A    between atoms: C_20  and  C_23 
REMARK    9  A    between atoms: C_28  and  C_30 
REMARK   10  A    between atoms: C_31  and  C_35 
ROOT
HETATM    1  N   UNK N   1      22.764  18.300   5.835  0.00  0.00    -0.365 N 
ATOM      2  HN  UNK N   1      23.211  18.986   6.441  1.00  0.00     0.165 HD
HETATM    3  C   UNK N   1      20.989  16.777   5.422  0.00  0.00    -0.023 A 
HETATM    4  C   UNK N   1      21.579  16.404   4.210  0.00  0.00     0.012 A 
HETATM    5  C   UNK N   1      21.603  17.729   6.228  0.00  0.00     0.097 A 
HETATM    6  C   UNK N   1      23.348  17.981   4.651  0.00  0.00     0.043 A 
HETATM    7  C   UNK N   1      22.763  17.019   3.812  0.00  0.00     0.031 A 
ENDROOT
BRANCH   3   8
HETATM    8  C   UNK N   1      19.798  16.077   5.945  0.00  0.00     0.190 C 
BRANCH   8   9
HETATM    9  N   UNK N   1      20.101  15.403   7.202  0.00  0.00    -0.275 N 
HETATM   10  N   UNK N   1      20.787  14.279   7.248  0.00  0.00    -0.285 N 
HETATM   11  C   UNK N   1      20.903  13.954   8.551  0.00  0.00     0.097 A 
ATOM     12  HN  UNK N   1      21.158  13.758   6.453  1.00  0.00     0.188 HD
HETATM   13  N   UNK N   1      20.302  14.860   9.348  0.00  0.00    -0.333 N 
HETATM   14  C   UNK N   1      19.804  15.755   8.479  0.00  0.00     0.100 A 
ATOM     15  HN  UNK N   1      20.241  14.863  10.366  1.00  0.00     0.168 HD
BRANCH  11  16
HETATM   16  C   UNK N   1      21.645  12.766   9.068  0.00  0.00     0.078 C 
BRANCH  16  17
HETATM   17  C   UNK N   1      21.510  12.654  10.575  0.00  0.00     0.007 C 
BRANCH  17  18
HETATM   18  C   UNK N   1      22.697  11.911  11.141  0.00  0.00    -0.004 C 
HETATM   19  C   UNK N   1      23.949  12.362  10.421  0.00  0.00     0.005 C 
ENDBRANCH  17  18
ENDBRANCH  16  17
ENDBRANCH  11  16
BRANCH  14  20
HETATM   20  C   UNK N   1      19.088  16.995   8.928  0.00  0.00     0.078 C 
BRANCH  20  21
HETATM   21  C   UNK N   1      17.707  16.695   9.492  0.00  0.00     0.007 C 
BRANCH  21  22
HETATM   22  C   UNK N   1      16.938  17.979   9.759  0.00  0.00    -0.004 C 
HETATM   23  C   UNK N   1      17.422  18.645  11.035  0.00  0.00     0.005 C 
ENDBRANCH  21  22
ENDBRANCH  20  21
ENDBRANCH  14  20
ENDBRANCH   8   9
ENDBRANCH   3   8
BRANCH   6  24
HETATM   24  C   UNK N   1      24.532  18.735   4.248  0.00  0.00     0.005 A 
HETATM   25  C   UNK N   1      25.851  18.264   4.494  0.00  0.00     0.023 A 
HETATM   26  C   UNK N   1      26.930  18.999   3.977  0.00  0.00     0.016 A 
HETATM   27  C   UNK N   1      26.719  20.166   3.240  0.00  0.00     0.001 A 
HETATM   28  C   UNK N   1      25.422  20.609   2.987  0.00  0.00     0.001 A 
HETATM   29  C   UNK N   1      24.336  19.888   3.476  0.00  0.00     0.014 A 
BRANCH  25  30
HETATM   30  C   UNK N   1      26.154  16.975   5.179  0.00  0.00     0.145 A 
HETATM   31  N   UNK N   1      26.351  15.784   4.585  0.00  0.00    -0.271 N 
HETATM   32  N   UNK N   1      26.626  14.933   5.555  0.00  0.00    -0.225 N 
ATOM     33  HN  UNK N   1      26.298  15.579   3.586  1.00  0.00     0.190 HD
HETATM   34  N   UNK N   1      26.615  15.574   6.714  0.00  0.00    -0.005 NA
HETATM   35  H   UNK N   1      26.812  13.972   5.436  0.00  0.00     0.205 HD
HETATM   36  N   UNK N   1      26.325  16.848   6.508  0.00  0.00    -0.266 N 
ATOM     37  HN  UNK N   1      26.247  17.582   7.211  1.00  0.00     0.186 HD
ENDBRANCH  25  30
ENDBRANCH   6  24
TORSDOF 10
ENDMDL
MODEL 3
REMARK VINA RESULT:      -6.8     15.112     18.024
REMARK  10 active torsions:
REMARK  status: ('A' for Active; 'I' for Inactive)
REMARK    1  A    between atoms: N_1  and  C_18 
REMARK    2  A    between atoms: C_14  and  C_15 
REMARK    3  A    between atoms: C_14  and  C_16 
REMARK    4  A    between atoms: C_16  and  C_21 
REMARK    5  A    between atoms: C_17  and  C_19 
REMARK    6  A    between atoms: C_17  and  C_20 
REMARK    7  A    between atoms: C_18  and  C_22 
REMARK    8  A    between atoms: C_20  and  C_23 
REMARK    9  A    between atoms: C_28  and  C_30 
REMARK   10  A    between atoms: C_31  and  C_35 
ROOT
HETATM    1  N   UNK N   1      29.156  25.062  -4.378  0.00  0.00    -0.365 N 
ATOM      2  HN  UNK N   1      29.348  25.755  -5.100  1.00  0.00     0.165 HD
HETATM    3  C   UNK N   1      29.918  23.322  -2.954  0.00  0.00    -0.023 A 
HETATM    4  C   UNK N   1      28.623  23.151  -2.454  0.00  0.00     0.012 A 
HETATM    5  C   UNK N   1      30.165  24.285  -3.925  0.00  0.00     0.097 A 
HETATM    6  C   UNK N   1      27.893  24.942  -3.893  0.00  0.00     0.043 A 
HETATM    7  C   UNK N   1      27.601  23.977  -2.917  0.00  0.00     0.031 A 
ENDROOT
BRANCH   3   8
HETATM    8  C   UNK N   1      31.012  22.402  -2.582  0.00  0.00     0.190 C 
BRANCH   8   9
HETATM    9  N   UNK N   1      31.329  21.499  -3.684  0.00  0.00    -0.275 N 
HETATM   10  N   UNK N   1      30.456  21.212  -4.628  0.00  0.00    -0.285 N 
HETATM   11  C   UNK N   1      31.081  20.382  -5.487  0.00  0.00     0.097 A 
ATOM     12  HN  UNK N   1      29.497  21.553  -4.696  1.00  0.00     0.188 HD
HETATM   13  N   UNK N   1      32.351  20.133  -5.108  0.00  0.00    -0.333 N 
HETATM   14  C   UNK N   1      32.480  20.841  -3.974  0.00  0.00     0.100 A 
ATOM     15  HN  UNK N   1      33.045  19.548  -5.572  1.00  0.00     0.168 HD
BRANCH  11  16
HETATM   16  C   UNK N   1      30.473  19.836  -6.736  0.00  0.00     0.078 C 
BRANCH  16  17
HETATM   17  C   UNK N   1      29.285  20.672  -7.173  0.00  0.00     0.007 C 
BRANCH  17  18
HETATM   18  C   UNK N   1      28.934  20.354  -8.607  0.00  0.00    -0.004 C 
HETATM   19  C   UNK N   1      29.734  19.149  -9.054  0.00  0.00     0.005 C 
ENDBRANCH  17  18
ENDBRANCH  16  17
ENDBRANCH  11  16
BRANCH  14  20
HETATM   20  C   UNK N   1      33.773  20.911  -3.216  0.00  0.00     0.078 C 
BRANCH  20  21
HETATM   21  C   UNK N   1      34.965  20.492  -4.062  0.00  0.00     0.007 C 
BRANCH  21  22
HETATM   22  C   UNK N   1      35.786  21.701  -4.484  0.00  0.00    -0.004 C 
HETATM   23  C   UNK N   1      37.155  21.681  -3.828  0.00  0.00     0.005 C 
ENDBRANCH  21  22
ENDBRANCH  20  21
ENDBRANCH  14  20
ENDBRANCH   8   9
ENDBRANCH   3   8
BRANCH   6  24
HETATM   24  C   UNK N   1      26.892  25.904  -4.347  0.00  0.00     0.005 A 
HETATM   25  C   UNK N   1      26.060  25.658  -5.474  0.00  0.00     0.023 A 
HETATM   26  C   UNK N   1      25.052  26.588  -5.775  0.00  0.00     0.016 A 
HETATM   27  C   UNK N   1      24.867  27.729  -4.992  0.00  0.00     0.001 A 
HETATM   28  C   UNK N   1      25.674  27.951  -3.878  0.00  0.00     0.001 A 
HETATM   29  C   UNK N   1      26.671  27.035  -3.550  0.00  0.00     0.014 A 
BRANCH  25  30
HETATM   30  C   UNK N   1      26.126  24.415  -6.294  0.00  0.00     0.145 A 
HETATM   31  N   UNK N   1      25.421  23.287  -6.090  0.00  0.00    -0.271 N 
HETATM   32  N   UNK N   1      25.758  22.464  -7.064  0.00  0.00    -0.225 N 
ATOM     33  HN  UNK N   1      24.760  23.105  -5.333  1.00  0.00     0.190 HD
HETATM   34  N   UNK N   1      26.633  23.063  -7.858  0.00  0.00    -0.005 NA
HETATM   35  H   UNK N   1      25.412  21.549  -7.183  0.00  0.00     0.205 HD
HETATM   36  N   UNK N   1      26.878  24.280  -7.402  0.00  0.00    -0.266 N 
ATOM     37  HN  UNK N   1      27.507  24.972  -7.806  1.00  0.00     0.186 HD
ENDBRANCH  25  30
ENDBRANCH   6  24
TORSDOF 10
ENDMDL
MODEL 4
REMARK VINA RESULT:      -6.8      5.595     10.525
REMARK  10 active torsions:
REMARK  status: ('A' for Active; 'I' for Inactive)
REMARK    1  A    between atoms: N_1  and  C_18 
REMARK    2  A    between atoms: C_14  and  C_15 
REMARK    3  A    between atoms: C_14  and  C_16 
REMARK    4  A    between atoms: C_16  and  C_21 
REMARK    5  A    between atoms: C_17  and  C_19 
REMARK    6  A    between atoms: C_17  and  C_20 
REMARK    7  A    between atoms: C_18  and  C_22 
REMARK    8  A    between atoms: C_20  and  C_23 
REMARK    9  A    between atoms: C_28  and  C_30 
REMARK   10  A    between atoms: C_31  and  C_35 
ROOT
HETATM    1  N   UNK N   1      29.003  17.767   4.309  0.00  0.00    -0.365 N 
ATOM      2  HN  UNK N   1      29.635  18.512   4.020  1.00  0.00     0.165 HD
HETATM    3  C   UNK N   1      26.974  16.571   4.016  0.00  0.00    -0.023 A 
HETATM    4  C   UNK N   1      27.271  15.775   5.127  0.00  0.00     0.012 A 
HETATM    5  C   UNK N   1      27.855  17.571   3.624  0.00  0.00     0.097 A 
HETATM    6  C   UNK N   1      29.337  16.993   5.375  0.00  0.00     0.043 A 
HETATM    7  C   UNK N   1      28.470  15.977   5.807  0.00  0.00     0.031 A 
ENDROOT
BRANCH   3   8
HETATM    8  C   UNK N   1      25.669  16.474   3.330  0.00  0.00     0.190 C 
BRANCH   8   9
HETATM    9  N   UNK N   1      24.584  16.875   4.219  0.00  0.00    -0.275 N 
HETATM   10  N   UNK N   1      23.738  16.005   4.730  0.00  0.00    -0.285 N 
HETATM   11  C   UNK N   1      22.894  16.705   5.514  0.00  0.00     0.097 A 
ATOM     12  HN  UNK N   1      23.726  14.998   4.566  1.00  0.00     0.188 HD
HETATM   13  N   UNK N   1      23.189  18.021   5.517  0.00  0.00    -0.333 N 
HETATM   14  C   UNK N   1      24.249  18.102   4.695  0.00  0.00     0.100 A 
ATOM     15  HN  UNK N   1      22.721  18.773   6.021  1.00  0.00     0.168 HD
BRANCH  11  16
HETATM   16  C   UNK N   1      21.794  16.107   6.326  0.00  0.00     0.078 C 
BRANCH  16  17
HETATM   17  C   UNK N   1      20.956  17.187   6.986  0.00  0.00     0.007 C 
BRANCH  17  18
HETATM   18  C   UNK N   1      20.061  16.570   8.035  0.00  0.00    -0.004 C 
HETATM   19  C   UNK N   1      20.837  15.506   8.781  0.00  0.00     0.005 C 
ENDBRANCH  17  18
ENDBRANCH  16  17
ENDBRANCH  11  16
BRANCH  14  20
HETATM   20  C   UNK N   1      24.966  19.395   4.435  0.00  0.00     0.078 C 
BRANCH  20  21
HETATM   21  C   UNK N   1      25.886  19.787   5.581  0.00  0.00     0.007 C 
BRANCH  21  22
HETATM   22  C   UNK N   1      26.931  20.791   5.121  0.00  0.00    -0.004 C 
HETATM   23  C   UNK N   1      27.393  21.660   6.277  0.00  0.00     0.005 C 
ENDBRANCH  21  22
ENDBRANCH  20  21
ENDBRANCH  14  20
ENDBRANCH   8   9
ENDBRANCH   3   8
BRANCH   6  24
HETATM   24  C   UNK N   1      30.651  17.191   5.979  0.00  0.00     0.005 A 
HETATM   25  C   UNK N   1      30.810  17.585   7.337  0.00  0.00     0.023 A 
HETATM   26  C   UNK N   1      32.108  17.647   7.866  0.00  0.00     0.016 A 
HETATM   27  C   UNK N   1      33.221  17.333   7.084  0.00  0.00     0.001 A 
HETATM   28  C   UNK N   1      33.055  16.928   5.761  0.00  0.00     0.001 A 
HETATM   29  C   UNK N   1      31.775  16.844   5.218  0.00  0.00     0.014 A 
BRANCH  25  30
HETATM   30  C   UNK N   1      29.669  17.833   8.264  0.00  0.00     0.145 A 
HETATM   31  N   UNK N   1      28.731  18.789   8.136  0.00  0.00    -0.271 N 
HETATM   32  N   UNK N   1      27.900  18.624   9.147  0.00  0.00    -0.225 N 
ATOM     33  HN  UNK N   1      28.674  19.499   7.404  1.00  0.00     0.190 HD
HETATM   34  N   UNK N   1      28.298  17.591   9.874  0.00  0.00    -0.005 NA
HETATM   35  H   UNK N   1      27.108  19.180   9.331  0.00  0.00     0.205 HD
HETATM   36  N   UNK N   1      29.396  17.079   9.345  0.00  0.00    -0.266 N 
ATOM     37  HN  UNK N   1      29.928  16.279   9.687  1.00  0.00     0.186 HD
ENDBRANCH  25  30
ENDBRANCH   6  24
TORSDOF 10
ENDMDL
MODEL 5
REMARK VINA RESULT:      -6.8     10.217     14.971
REMARK  10 active torsions:
REMARK  status: ('A' for Active; 'I' for Inactive)
REMARK    1  A    between atoms: N_1  and  C_18 
REMARK    2  A    between atoms: C_14  and  C_15 
REMARK    3  A    between atoms: C_14  and  C_16 
REMARK    4  A    between atoms: C_16  and  C_21 
REMARK    5  A    between atoms: C_17  and  C_19 
REMARK    6  A    between atoms: C_17  and  C_20 
REMARK    7  A    between atoms: C_18  and  C_22 
REMARK    8  A    between atoms: C_20  and  C_23 
REMARK    9  A    between atoms: C_28  and  C_30 
REMARK   10  A    between atoms: C_31  and  C_35 
ROOT
HETATM    1  N   UNK N   1      21.106  12.269   6.742  0.00  0.00    -0.365 N 
ATOM      2  HN  UNK N   1      21.425  11.308   6.863  1.00  0.00     0.165 HD
HETATM    3  C   UNK N   1      19.935  13.894   5.469  0.00  0.00    -0.023 A 
HETATM    4  C   UNK N   1      20.282  14.884   6.394  0.00  0.00     0.012 A 
HETATM    5  C   UNK N   1      20.363  12.586   5.658  0.00  0.00     0.097 A 
HETATM    6  C   UNK N   1      21.436  13.198   7.676  0.00  0.00     0.043 A 
HETATM    7  C   UNK N   1      21.029  14.533   7.517  0.00  0.00     0.031 A 
ENDROOT
BRANCH   3   8
HETATM    8  C   UNK N   1      19.243  14.232   4.208  0.00  0.00     0.190 C 
BRANCH   8   9
HETATM    9  N   UNK N   1      19.810  15.436   3.610  0.00  0.00    -0.275 N 
HETATM   10  N   UNK N   1      19.224  16.612   3.710  0.00  0.00    -0.285 N 
HETATM   11  C   UNK N   1      20.023  17.493   3.075  0.00  0.00     0.097 A 
ATOM     12  HN  UNK N   1      18.341  16.815   4.178  1.00  0.00     0.188 HD
HETATM   13  N   UNK N   1      21.121  16.898   2.569  0.00  0.00    -0.333 N 
HETATM   14  C   UNK N   1      20.963  15.610   2.914  0.00  0.00     0.100 A 
ATOM     15  HN  UNK N   1      21.888  17.325   2.048  1.00  0.00     0.168 HD
BRANCH  11  16
HETATM   16  C   UNK N   1      19.762  18.959   2.978  0.00  0.00     0.078 C 
BRANCH  16  17
HETATM   17  C   UNK N   1      20.888  19.756   3.609  0.00  0.00     0.007 C 
BRANCH  17  18
HETATM   18  C   UNK N   1      21.680  20.463   2.535  0.00  0.00    -0.004 C 
HETATM   19  C   UNK N   1      20.782  20.707   1.341  0.00  0.00     0.005 C 
ENDBRANCH  17  18
ENDBRANCH  16  17
ENDBRANCH  11  16
BRANCH  14  20
HETATM   20  C   UNK N   1      21.994  14.564   2.604  0.00  0.00     0.078 C 
BRANCH  20  21
HETATM   21  C   UNK N   1      22.032  14.209   1.125  0.00  0.00     0.007 C 
BRANCH  21  22
HETATM   22  C   UNK N   1      23.457  13.940   0.667  0.00  0.00    -0.004 C 
HETATM   23  C   UNK N   1      23.505  12.765  -0.294  0.00  0.00     0.005 C 
ENDBRANCH  21  22
ENDBRANCH  20  21
ENDBRANCH  14  20
ENDBRANCH   8   9
ENDBRANCH   3   8
BRANCH   6  24
HETATM   24  C   UNK N   1      22.133  12.745   8.876  0.00  0.00     0.005 A 
HETATM   25  C   UNK N   1      23.549  12.625   8.932  0.00  0.00     0.023 A 
HETATM   26  C   UNK N   1      24.143  12.287  10.157  0.00  0.00     0.016 A 
HETATM   27  C   UNK N   1      23.367  12.069  11.298  0.00  0.00     0.001 A 
HETATM   28  C   UNK N   1      21.982  12.209  11.239  0.00  0.00     0.001 A 
HETATM   29  C   UNK N   1      21.371  12.560  10.038  0.00  0.00     0.014 A 
BRANCH  25  30
HETATM   30  C   UNK N   1      24.450  12.943   7.787  0.00  0.00     0.145 A 
HETATM   31  N   UNK N   1      24.697  12.156   6.724  0.00  0.00    -0.271 N 
HETATM   32  N   UNK N   1      25.514  12.840   5.946  0.00  0.00    -0.225 N 
ATOM     33  HN  UNK N   1      24.328  11.220   6.555  1.00  0.00     0.190 HD
HETATM   34  N   UNK N   1      25.758  14.019   6.498  0.00  0.00    -0.005 NA
HETATM   35  H   UNK N   1      25.884  12.523   5.089  0.00  0.00     0.205 HD
HETATM   36  N   UNK N   1      25.106  14.110   7.644  0.00  0.00    -0.266 N 
ATOM     37  HN  UNK N   1      25.102  14.900   8.288  1.00  0.00     0.186 HD
ENDBRANCH  25  30
ENDBRANCH   6  24
TORSDOF 10
ENDMDL
MODEL 6
REMARK VINA RESULT:      -6.8      1.675      4.091
REMARK  10 active torsions:
REMARK  status: ('A' for Active; 'I' for Inactive)
REMARK    1  A    between atoms: N_1  and  C_18 
REMARK    2  A    between atoms: C_14  and  C_15 
REMARK    3  A    between atoms: C_14  and  C_16 
REMARK    4  A    between atoms: C_16  and  C_21 
REMARK    5  A    between atoms: C_17  and  C_19 
REMARK    6  A    between atoms: C_17  and  C_20 
REMARK    7  A    between atoms: C_18  and  C_22 
REMARK    8  A    between atoms: C_20  and  C_23 
REMARK    9  A    between atoms: C_28  and  C_30 
REMARK   10  A    between atoms: C_31  and  C_35 
ROOT
HETATM    1  N   UNK N   1      33.074  15.557   8.796  0.00  0.00    -0.365 N 
ATOM      2  HN  UNK N   1      32.349  14.888   8.541  1.00  0.00     0.165 HD
HETATM    3  C   UNK N   1      34.845  16.211  10.235  0.00  0.00    -0.023 A 
HETATM    4  C   UNK N   1      35.007  17.397   9.513  0.00  0.00     0.012 A 
HETATM    5  C   UNK N   1      33.863  15.300   9.862  0.00  0.00     0.097 A 
HETATM    6  C   UNK N   1      33.224  16.685   8.054  0.00  0.00     0.043 A 
HETATM    7  C   UNK N   1      34.199  17.634   8.403  0.00  0.00     0.031 A 
ENDROOT
BRANCH   3   8
HETATM    8  C   UNK N   1      35.596  15.963  11.483  0.00  0.00     0.190 C 
BRANCH   8   9
HETATM    9  N   UNK N   1      36.387  14.741  11.379  0.00  0.00    -0.275 N 
HETATM   10  N   UNK N   1      37.323  14.587  10.465  0.00  0.00    -0.285 N 
HETATM   11  C   UNK N   1      37.863  13.369  10.671  0.00  0.00     0.097 A 
ATOM     12  HN  UNK N   1      37.587  15.259   9.744  1.00  0.00     0.188 HD
HETATM   13  N   UNK N   1      37.287  12.736  11.712  0.00  0.00    -0.333 N 
HETATM   14  C   UNK N   1      36.363  13.615  12.136  0.00  0.00     0.100 A 
ATOM     15  HN  UNK N   1      37.502  11.813  12.088  1.00  0.00     0.168 HD
BRANCH  11  16
HETATM   16  C   UNK N   1      38.994  12.797   9.883  0.00  0.00     0.078 C 
BRANCH  16  17
HETATM   17  C   UNK N   1      39.028  13.376   8.481  0.00  0.00     0.007 C 
BRANCH  17  18
HETATM   18  C   UNK N   1      39.998  12.594   7.627  0.00  0.00    -0.004 C 
HETATM   19  C   UNK N   1      40.907  11.787   8.528  0.00  0.00     0.005 C 
ENDBRANCH  17  18
ENDBRANCH  16  17
ENDBRANCH  11  16
BRANCH  14  20
HETATM   20  C   UNK N   1      35.502  13.355  13.337  0.00  0.00     0.078 C 
BRANCH  20  21
HETATM   21  C   UNK N   1      36.179  13.764  14.636  0.00  0.00     0.007 C 
BRANCH  21  22
HETATM   22  C   UNK N   1      36.006  12.692  15.701  0.00  0.00    -0.004 C 
HETATM   23  C   UNK N   1      34.939  13.093  16.704  0.00  0.00     0.005 C 
ENDBRANCH  21  22
ENDBRANCH  20  21
ENDBRANCH  14  20
ENDBRANCH   8   9
ENDBRANCH   3   8
BRANCH   6  24
HETATM   24  C   UNK N   1      32.414  16.824   6.848  0.00  0.00     0.005 A 
HETATM   25  C   UNK N   1      31.057  17.247   6.889  0.00  0.00     0.023 A 
HETATM   26  C   UNK N   1      30.385  17.457   5.675  0.00  0.00     0.016 A 
HETATM   27  C   UNK N   1      31.028  17.256   4.452  0.00  0.00     0.001 A 
HETATM   28  C   UNK N   1      32.364  16.861   4.420  0.00  0.00     0.001 A 
HETATM   29  C   UNK N   1      33.056  16.662   5.613  0.00  0.00     0.014 A 
BRANCH  25  30
HETATM   30  C   UNK N   1      30.334  17.584   8.150  0.00  0.00     0.145 A 
HETATM   31  N   UNK N   1      30.792  18.364   9.146  0.00  0.00    -0.271 N 
HETATM   32  N   UNK N   1      29.822  18.423  10.039  0.00  0.00    -0.225 N 
ATOM     33  HN  UNK N   1      31.704  18.818   9.201  1.00  0.00     0.190 HD
HETATM   34  N   UNK N   1      28.789  17.714   9.607  0.00  0.00    -0.005 NA
HETATM   35  H   UNK N   1      29.860  18.916  10.890  0.00  0.00     0.205 HD
HETATM   36  N   UNK N   1      29.081  17.183   8.432  0.00  0.00    -0.266 N 
ATOM     37  HN  UNK N   1      28.481  16.590   7.859  1.00  0.00     0.186 HD
ENDBRANCH  25  30
ENDBRANCH   6  24
TORSDOF 10
ENDMDL
MODEL 7
REMARK VINA RESULT:      -6.7     10.065     14.727
REMARK  10 active torsions:
REMARK  status: ('A' for Active; 'I' for Inactive)
REMARK    1  A    between atoms: N_1  and  C_18 
REMARK    2  A    between atoms: C_14  and  C_15 
REMARK    3  A    between atoms: C_14  and  C_16 
REMARK    4  A    between atoms: C_16  and  C_21 
REMARK    5  A    between atoms: C_17  and  C_19 
REMARK    6  A    between atoms: C_17  and  C_20 
REMARK    7  A    between atoms: C_18  and  C_22 
REMARK    8  A    between atoms: C_20  and  C_23 
REMARK    9  A    between atoms: C_28  and  C_30 
REMARK   10  A    between atoms: C_31  and  C_35 
ROOT
HETATM    1  N   UNK N   1      21.119  13.327   7.151  0.00  0.00    -0.365 N 
ATOM      2  HN  UNK N   1      21.416  12.369   6.969  1.00  0.00     0.165 HD
HETATM    3  C   UNK N   1      19.894  15.252   6.494  0.00  0.00    -0.023 A 
HETATM    4  C   UNK N   1      20.352  15.940   7.622  0.00  0.00     0.012 A 
HETATM    5  C   UNK N   1      20.295  13.940   6.272  0.00  0.00     0.097 A 
HETATM    6  C   UNK N   1      21.559  13.956   8.271  0.00  0.00     0.043 A 
HETATM    7  C   UNK N   1      21.183  15.284   8.528  0.00  0.00     0.031 A 
ENDROOT
BRANCH   3   8
HETATM    8  C   UNK N   1      19.106  15.933   5.447  0.00  0.00     0.190 C 
BRANCH   8   9
HETATM    9  N   UNK N   1      19.862  16.020   4.202  0.00  0.00    -0.275 N 
HETATM   10  N   UNK N   1      19.619  15.230   3.177  0.00  0.00    -0.285 N 
HETATM   11  C   UNK N   1      20.472  15.596   2.199  0.00  0.00     0.097 A 
ATOM     12  HN  UNK N   1      18.920  14.488   3.131  1.00  0.00     0.188 HD
HETATM   13  N   UNK N   1      21.262  16.619   2.583  0.00  0.00    -0.333 N 
HETATM   14  C   UNK N   1      20.863  16.863   3.842  0.00  0.00     0.100 A 
ATOM     15  HN  UNK N   1      21.989  17.092   2.046  1.00  0.00     0.168 HD
BRANCH  11  16
HETATM   16  C   UNK N   1      20.516  14.988   0.837  0.00  0.00     0.078 C 
BRANCH  16  17
HETATM   17  C   UNK N   1      21.305  13.692   0.845  0.00  0.00     0.007 C 
BRANCH  17  18
HETATM   18  C   UNK N   1      22.782  13.991   0.751  0.00  0.00    -0.004 C 
HETATM   19  C   UNK N   1      23.457  12.895  -0.045  0.00  0.00     0.005 C 
ENDBRANCH  17  18
ENDBRANCH  16  17
ENDBRANCH  11  16
BRANCH  14  20
HETATM   20  C   UNK N   1      21.438  17.980   4.663  0.00  0.00     0.078 C 
BRANCH  20  21
HETATM   21  C   UNK N   1      21.836  19.178   3.814  0.00  0.00     0.007 C 
BRANCH  21  22
HETATM   22  C   UNK N   1      20.615  19.993   3.417  0.00  0.00    -0.004 C 
HETATM   23  C   UNK N   1      20.701  20.424   1.964  0.00  0.00     0.005 C 
ENDBRANCH  21  22
ENDBRANCH  20  21
ENDBRANCH  14  20
ENDBRANCH   8   9
ENDBRANCH   3   8
BRANCH   6  24
HETATM   24  C   UNK N   1      22.343  13.181   9.228  0.00  0.00     0.005 A 
HETATM   25  C   UNK N   1      23.717  12.881   9.016  0.00  0.00     0.023 A 
HETATM   26  C   UNK N   1      24.422  12.224  10.037  0.00  0.00     0.016 A 
HETATM   27  C   UNK N   1      23.795  11.869  11.233  0.00  0.00     0.001 A 
HETATM   28  C   UNK N   1      22.453  12.185  11.440  0.00  0.00     0.001 A 
HETATM   29  C   UNK N   1      21.737  12.851  10.448  0.00  0.00     0.014 A 
BRANCH  25  30
HETATM   30  C   UNK N   1      24.483  13.318   7.814  0.00  0.00     0.145 A 
HETATM   31  N   UNK N   1      25.212  14.444   7.700  0.00  0.00    -0.271 N 
HETATM   32  N   UNK N   1      25.744  14.413   6.493  0.00  0.00    -0.225 N 
ATOM     33  HN  UNK N   1      25.328  15.174   8.403  1.00  0.00     0.190 HD
HETATM   34  N   UNK N   1      25.372  13.299   5.881  0.00  0.00    -0.005 NA
HETATM   35  H   UNK N   1      26.328  15.108   6.109  0.00  0.00     0.205 HD
HETATM   36  N   UNK N   1      24.588  12.598   6.682  0.00  0.00    -0.266 N 
ATOM     37  HN  UNK N   1      24.151  11.699   6.483  1.00  0.00     0.186 HD
ENDBRANCH  25  30
ENDBRANCH   6  24
TORSDOF 10
ENDMDL
MODEL 8
REMARK VINA RESULT:      -6.6      2.522      3.666
REMARK  10 active torsions:
REMARK  status: ('A' for Active; 'I' for Inactive)
REMARK    1  A    between atoms: N_1  and  C_18 
REMARK    2  A    between atoms: C_14  and  C_15 
REMARK    3  A    between atoms: C_14  and  C_16 
REMARK    4  A    between atoms: C_16  and  C_21 
REMARK    5  A    between atoms: C_17  and  C_19 
REMARK    6  A    between atoms: C_17  and  C_20 
REMARK    7  A    between atoms: C_18  and  C_22 
REMARK    8  A    between atoms: C_20  and  C_23 
REMARK    9  A    between atoms: C_28  and  C_30 
REMARK   10  A    between atoms: C_31  and  C_35 
ROOT
HETATM    1  N   UNK N   1      33.476  17.176   9.148  0.00  0.00    -0.365 N 
ATOM      2  HN  UNK N   1      33.290  18.178   9.149  1.00  0.00     0.165 HD
HETATM    3  C   UNK N   1      34.947  15.365   9.587  0.00  0.00    -0.023 A 
HETATM    4  C   UNK N   1      33.997  14.462   9.099  0.00  0.00     0.012 A 
HETATM    5  C   UNK N   1      34.668  16.726   9.599  0.00  0.00     0.097 A 
HETATM    6  C   UNK N   1      32.520  16.325   8.694  0.00  0.00     0.043 A 
HETATM    7  C   UNK N   1      32.765  14.943   8.659  0.00  0.00     0.031 A 
ENDROOT
BRANCH   3   8
HETATM    8  C   UNK N   1      36.306  14.922   9.959  0.00  0.00     0.190 C 
BRANCH   8   9
HETATM    9  N   UNK N   1      36.294  14.231  11.244  0.00  0.00    -0.275 N 
HETATM   10  N   UNK N   1      36.451  14.869  12.385  0.00  0.00    -0.285 N 
HETATM   11  C   UNK N   1      36.361  13.940  13.359  0.00  0.00     0.097 A 
ATOM     12  HN  UNK N   1      36.609  15.869  12.508  1.00  0.00     0.188 HD
HETATM   13  N   UNK N   1      36.143  12.708  12.856  0.00  0.00    -0.333 N 
HETATM   14  C   UNK N   1      36.109  12.916  11.530  0.00  0.00     0.100 A 
ATOM     15  HN  UNK N   1      36.032  11.830  13.363  1.00  0.00     0.168 HD
BRANCH  11  16
HETATM   16  C   UNK N   1      36.441  14.231  14.820  0.00  0.00     0.078 C 
BRANCH  16  17
HETATM   17  C   UNK N   1      36.248  12.967  15.638  0.00  0.00     0.007 C 
BRANCH  17  18
HETATM   18  C   UNK N   1      34.957  13.054  16.417  0.00  0.00    -0.004 C 
HETATM   19  C   UNK N   1      35.225  13.744  17.737  0.00  0.00     0.005 C 
ENDBRANCH  17  18
ENDBRANCH  16  17
ENDBRANCH  11  16
BRANCH  14  20
HETATM   20  C   UNK N   1      35.828  11.813  10.552  0.00  0.00     0.078 C 
BRANCH  20  21
HETATM   21  C   UNK N   1      34.463  11.179  10.770  0.00  0.00     0.007 C 
BRANCH  21  22
HETATM   22  C   UNK N   1      33.809  10.826   9.444  0.00  0.00    -0.004 C 
HETATM   23  C   UNK N   1      32.562   9.986   9.662  0.00  0.00     0.005 C 
ENDBRANCH  21  22
ENDBRANCH  20  21
ENDBRANCH  14  20
ENDBRANCH   8   9
ENDBRANCH   3   8
BRANCH   6  24
HETATM   24  C   UNK N   1      31.218  16.884   8.343  0.00  0.00     0.005 A 
HETATM   25  C   UNK N   1      30.808  17.063   6.993  0.00  0.00     0.023 A 
HETATM   26  C   UNK N   1      29.499  17.505   6.746  0.00  0.00     0.016 A 
HETATM   27  C   UNK N   1      28.616  17.766   7.795  0.00  0.00     0.001 A 
HETATM   28  C   UNK N   1      29.019  17.568   9.115  0.00  0.00     0.001 A 
HETATM   29  C   UNK N   1      30.308  17.115   9.384  0.00  0.00     0.014 A 
BRANCH  25  30
HETATM   30  C   UNK N   1      31.654  16.707   5.818  0.00  0.00     0.145 A 
HETATM   31  N   UNK N   1      31.551  15.592   5.071  0.00  0.00    -0.271 N 
HETATM   32  N   UNK N   1      32.462  15.704   4.122  0.00  0.00    -0.225 N 
ATOM     33  HN  UNK N   1      30.901  14.818   5.210  1.00  0.00     0.190 HD
HETATM   34  N   UNK N   1      33.101  16.855   4.265  0.00  0.00    -0.005 NA
HETATM   35  H   UNK N   1      32.637  15.036   3.419  0.00  0.00     0.205 HD
HETATM   36  N   UNK N   1      32.617  17.500   5.312  0.00  0.00    -0.266 N 
ATOM     37  HN  UNK N   1      32.912  18.409   5.665  1.00  0.00     0.186 HD
ENDBRANCH  25  30
ENDBRANCH   6  24
TORSDOF 10
ENDMDL
MODEL 9
REMARK VINA RESULT:      -6.6      5.163      9.299
REMARK  10 active torsions:
REMARK  status: ('A' for Active; 'I' for Inactive)
REMARK    1  A    between atoms: N_1  and  C_18 
REMARK    2  A    between atoms: C_14  and  C_15 
REMARK    3  A    between atoms: C_14  and  C_16 
REMARK    4  A    between atoms: C_16  and  C_21 
REMARK    5  A    between atoms: C_17  and  C_19 
REMARK    6  A    between atoms: C_17  and  C_20 
REMARK    7  A    between atoms: C_18  and  C_22 
REMARK    8  A    between atoms: C_20  and  C_23 
REMARK    9  A    between atoms: C_28  and  C_30 
REMARK   10  A    between atoms: C_31  and  C_35 
ROOT
HETATM    1  N   UNK N   1      29.935  17.703   4.966  0.00  0.00    -0.365 N 
ATOM      2  HN  UNK N   1      30.344  18.634   4.890  1.00  0.00     0.165 HD
HETATM    3  C   UNK N   1      28.239  16.155   4.366  0.00  0.00    -0.023 A 
HETATM    4  C   UNK N   1      28.802  15.195   5.212  0.00  0.00     0.012 A 
HETATM    5  C   UNK N   1      28.820  17.413   4.260  0.00  0.00     0.097 A 
HETATM    6  C   UNK N   1      30.525  16.785   5.775  0.00  0.00     0.043 A 
HETATM    7  C   UNK N   1      29.964  15.506   5.915  0.00  0.00     0.031 A 
ENDROOT
BRANCH   3   8
HETATM    8  C   UNK N   1      26.948  15.918   3.687  0.00  0.00     0.190 C 
BRANCH   8   9
HETATM    9  N   UNK N   1      25.845  15.954   4.641  0.00  0.00    -0.275 N 
HETATM   10  N   UNK N   1      25.369  14.864   5.205  0.00  0.00    -0.285 N 
HETATM   11  C   UNK N   1      24.387  15.261   6.039  0.00  0.00     0.097 A 
ATOM     12  HN  UNK N   1      25.683  13.907   5.044  1.00  0.00     0.188 HD
HETATM   13  N   UNK N   1      24.227  16.599   6.021  0.00  0.00    -0.333 N 
HETATM   14  C   UNK N   1      25.149  17.010   5.135  0.00  0.00     0.100 A 
ATOM     15  HN  UNK N   1      23.565  17.164   6.553  1.00  0.00     0.168 HD
BRANCH  11  16
HETATM   16  C   UNK N   1      23.598  14.349   6.918  0.00  0.00     0.078 C 
BRANCH  16  17
HETATM   17  C   UNK N   1      24.512  13.471   7.751  0.00  0.00     0.007 C 
BRANCH  17  18
HETATM   18  C   UNK N   1      23.823  13.093   9.041  0.00  0.00    -0.004 C 
HETATM   19  C   UNK N   1      24.872  12.809  10.095  0.00  0.00     0.005 C 
ENDBRANCH  17  18
ENDBRANCH  16  17
ENDBRANCH  11  16
BRANCH  14  20
HETATM   20  C   UNK N   1      25.378  18.462   4.830  0.00  0.00     0.078 C 
BRANCH  20  21
HETATM   21  C   UNK N   1      24.555  18.942   3.644  0.00  0.00     0.007 C 
BRANCH  21  22
HETATM   22  C   UNK N   1      25.275  20.053   2.897  0.00  0.00    -0.004 C 
HETATM   23  C   UNK N   1      26.621  20.351   3.534  0.00  0.00     0.005 C 
ENDBRANCH  21  22
ENDBRANCH  20  21
ENDBRANCH  14  20
ENDBRANCH   8   9
ENDBRANCH   3   8
BRANCH   6  24
HETATM   24  C   UNK N   1      31.794  17.141   6.403  0.00  0.00     0.005 A 
HETATM   25  C   UNK N   1      31.880  17.537   7.766  0.00  0.00     0.023 A 
HETATM   26  C   UNK N   1      33.152  17.757   8.318  0.00  0.00     0.016 A 
HETATM   27  C   UNK N   1      34.308  17.595   7.552  0.00  0.00     0.001 A 
HETATM   28  C   UNK N   1      34.215  17.188   6.223  0.00  0.00     0.001 A 
HETATM   29  C   UNK N   1      32.964  16.948   5.658  0.00  0.00     0.014 A 
BRANCH  25  30
HETATM   30  C   UNK N   1      30.703  17.629   8.677  0.00  0.00     0.145 A 
HETATM   31  N   UNK N   1      30.419  16.801   9.699  0.00  0.00    -0.271 N 
HETATM   32  N   UNK N   1      29.317  17.269  10.253  0.00  0.00    -0.225 N 
ATOM     33  HN  UNK N   1      30.948  15.977   9.986  1.00  0.00     0.190 HD
HETATM   34  N   UNK N   1      28.935  18.361   9.608  0.00  0.00    -0.005 NA
HETATM   35  H   UNK N   1      28.853  16.870  11.025  0.00  0.00     0.205 HD
HETATM   36  N   UNK N   1      29.781  18.608   8.623  0.00  0.00    -0.266 N 
ATOM     37  HN  UNK N   1      29.743  19.380   7.959  1.00  0.00     0.186 HD
ENDBRANCH  25  30
ENDBRANCH   6  24
TORSDOF 10
ENDMDL
