MODEL 1
REMARK VINA RESULT:      -8.2      0.000      0.000
REMARK  9 active torsions:
REMARK  status: ('A' for Active; 'I' for Inactive)
REMARK    1  A    between atoms: S_2  and  N_14 
REMARK    2  A    between atoms: S_2  and  C_39 
REMARK    3  A    between atoms: N_10  and  C_21 
REMARK       I    between atoms: N_13  and  C_23 
REMARK    4  A    between atoms: N_14  and  C_34 
REMARK    5  A    between atoms: C_15  and  C_18 
REMARK    6  A    between atoms: C_19  and  C_23 
REMARK    7  A    between atoms: C_20  and  C_22 
REMARK    8  A    between atoms: C_21  and  C_24 
REMARK    9  A    between atoms: C_32  and  C_33 
ROOT
HETATM    1 Br   UNK N   1      30.260  16.319   3.256  0.00  0.00    -0.047 Br
HETATM    2  O   UNK N   1      28.850  17.165   6.986  0.00  0.00    -0.308 OA
HETATM    3  C   UNK N   1      32.827  17.515   7.267  0.00  0.00    -0.039 A 
HETATM    4  C   UNK N   1      32.199  17.254   6.025  0.00  0.00     0.024 A 
HETATM    5  C   UNK N   1      32.061  17.679   8.432  0.00  0.00     0.011 A 
HETATM    6  C   UNK N   1      30.806  17.185   6.025  0.00  0.00     0.018 A 
HETATM    7  C   UNK N   1      30.102  17.384   7.176  0.00  0.00     0.087 A 
HETATM    8  C   UNK N   1      30.681  17.653   8.390  0.00  0.00     0.039 A 
HETATM    9  C   UNK N   1      29.877  16.837   5.059  0.00  0.00     0.058 A 
HETATM   10  C   UNK N   1      28.651  16.815   5.746  0.00  0.00     0.106 A 
ENDROOT
BRANCH   3  11
HETATM   11  C   UNK N   1      34.288  17.353   7.408  0.00  0.00     0.169 C 
BRANCH  11  12
HETATM   12  N   UNK N   1      34.833  16.004   7.583  0.00  0.00    -0.326 N 
HETATM   13  C   UNK N   1      35.213  15.536   8.793  0.00  0.00     0.127 A 
HETATM   14  C   UNK N   1      35.807  14.302   8.615  0.00  0.00     0.047 A 
HETATM   15  N   UNK N   1      35.777  13.980   7.305  0.00  0.00    -0.347 N 
HETATM   16  C   UNK N   1      35.182  15.020   6.699  0.00  0.00     0.084 A 
ATOM     17  HN  UNK N   1      36.130  13.128   6.870  1.00  0.00     0.167 HD
BRANCH  13  18
HETATM   18  C   UNK N   1      35.033  16.266  10.084  0.00  0.00     0.268 C 
HETATM   19  O   UNK N   1      35.664  17.282  10.317  0.00  0.00    -0.266 OA
HETATM   20  N   UNK N   1      34.143  15.825  10.994  0.00  0.00    -0.365 N 
HETATM   21  H   UNK N   1      33.769  16.440  11.666  0.00  0.00     0.159 HD
HETATM   22  H   UNK N   1      33.864  14.882  10.987  0.00  0.00     0.159 HD
ENDBRANCH  13  18
BRANCH  14  23
HETATM   23  C   UNK N   1      36.442  13.454   9.674  0.00  0.00     0.038 A 
HETATM   24  C   UNK N   1      37.885  13.857   9.921  0.00  0.00     0.011 A 
HETATM   25  C   UNK N   1      37.571  12.646   9.070  0.00  0.00     0.011 A 
ENDBRANCH  14  23
BRANCH  16  26
HETATM   26  C   UNK N   1      34.964  15.019   5.220  0.00  0.00     0.072 C 
HETATM   27  C   UNK N   1      35.592  13.808   4.563  0.00  0.00     0.013 C 
ENDBRANCH  16  26
ENDBRANCH  11  12
ENDBRANCH   3  11
BRANCH  10  28
HETATM   28  C   UNK N   1      27.322  16.343   5.324  0.00  0.00     0.026 A 
HETATM   29  C   UNK N   1      26.201  17.230   5.375  0.00  0.00     0.055 A 
HETATM   30  C   UNK N   1      24.925  16.730   5.111  0.00  0.00     0.031 A 
HETATM   31  C   UNK N   1      24.743  15.391   4.764  0.00  0.00     0.002 A 
HETATM   32  C   UNK N   1      25.838  14.530   4.695  0.00  0.00     0.001 A 
HETATM   33  C   UNK N   1      27.120  15.000   4.985  0.00  0.00     0.017 A 
BRANCH  29  34
HETATM   34  N   UNK N   1      26.303  18.574   5.845  0.00  0.00    -0.276 N 
HETATM   35  H   UNK N   1      26.165  18.729   6.807  0.00  0.00     0.179 HD
BRANCH  34  36
HETATM   36  S   UNK N   1      26.657  19.979   4.834  0.00  0.00     0.334 S 
HETATM   37  O   UNK N   1      28.175  19.993   4.590  0.00  0.00    -0.196 OA
HETATM   38  O   UNK N   1      26.468  21.182   5.776  0.00  0.00    -0.196 OA
BRANCH  36  39
HETATM   39  C   UNK N   1      25.665  20.184   3.342  0.00  0.00     0.517 C 
HETATM   40  F   UNK N   1      25.554  18.966   2.704  0.00  0.00    -0.155 F 
HETATM   41  F   UNK N   1      26.277  21.097   2.505  0.00  0.00    -0.155 F 
HETATM   42  F   UNK N   1      24.411  20.648   3.691  0.00  0.00    -0.155 F 
ENDBRANCH  36  39
ENDBRANCH  34  36
ENDBRANCH  29  34
ENDBRANCH  10  28
TORSDOF 9
ENDMDL
MODEL 2
REMARK VINA RESULT:      -8.1      2.671      3.591
REMARK  9 active torsions:
REMARK  status: ('A' for Active; 'I' for Inactive)
REMARK    1  A    between atoms: S_2  and  N_14 
REMARK    2  A    between atoms: S_2  and  C_39 
REMARK    3  A    between atoms: N_10  and  C_21 
REMARK       I    between atoms: N_13  and  C_23 
REMARK    4  A    between atoms: N_14  and  C_34 
REMARK    5  A    between atoms: C_15  and  C_18 
REMARK    6  A    between atoms: C_19  and  C_23 
REMARK    7  A    between atoms: C_20  and  C_22 
REMARK    8  A    between atoms: C_21  and  C_24 
REMARK    9  A    between atoms: C_32  and  C_33 
ROOT
HETATM    1 Br   UNK N   1      28.964  18.025   9.034  0.00  0.00    -0.047 Br
HETATM    2  O   UNK N   1      29.885  17.660   5.080  0.00  0.00    -0.308 OA
HETATM    3  C   UNK N   1      33.251  16.718   7.028  0.00  0.00    -0.039 A 
HETATM    4  C   UNK N   1      32.050  16.989   7.727  0.00  0.00     0.024 A 
HETATM    5  C   UNK N   1      33.282  16.753   5.626  0.00  0.00     0.011 A 
HETATM    6  C   UNK N   1      30.922  17.273   6.957  0.00  0.00     0.018 A 
HETATM    7  C   UNK N   1      30.992  17.263   5.595  0.00  0.00     0.087 A 
HETATM    8  C   UNK N   1      32.138  16.989   4.890  0.00  0.00     0.039 A 
HETATM    9  C   UNK N   1      29.642  17.695   7.274  0.00  0.00     0.058 A 
HETATM   10  C   UNK N   1      29.041  17.953   6.031  0.00  0.00     0.106 A 
ENDROOT
BRANCH   3  11
HETATM   11  C   UNK N   1      34.535  16.660   7.756  0.00  0.00     0.169 C 
BRANCH  11  12
HETATM   12  N   UNK N   1      35.133  15.349   8.023  0.00  0.00    -0.326 N 
HETATM   13  C   UNK N   1      35.131  14.797   9.257  0.00  0.00     0.127 A 
HETATM   14  C   UNK N   1      35.882  13.639   9.217  0.00  0.00     0.047 A 
HETATM   15  N   UNK N   1      36.332  13.446   7.960  0.00  0.00    -0.347 N 
HETATM   16  C   UNK N   1      35.867  14.488   7.253  0.00  0.00     0.084 A 
ATOM     17  HN  UNK N   1      36.903  12.672   7.620  1.00  0.00     0.167 HD
BRANCH  13  18
HETATM   18  C   UNK N   1      34.445  15.380  10.449  0.00  0.00     0.268 C 
HETATM   19  O   UNK N   1      35.031  16.153  11.188  0.00  0.00    -0.266 OA
HETATM   20  N   UNK N   1      33.156  15.083  10.702  0.00  0.00    -0.365 N 
HETATM   21  H   UNK N   1      32.602  15.687  11.250  0.00  0.00     0.159 HD
HETATM   22  H   UNK N   1      32.763  14.258  10.338  0.00  0.00     0.159 HD
ENDBRANCH  13  18
BRANCH  14  23
HETATM   23  C   UNK N   1      36.210  12.746  10.374  0.00  0.00     0.038 A 
HETATM   24  C   UNK N   1      37.496  13.172  11.061  0.00  0.00     0.011 A 
HETATM   25  C   UNK N   1      37.502  12.007  10.096  0.00  0.00     0.011 A 
ENDBRANCH  14  23
BRANCH  16  26
HETATM   26  C   UNK N   1      36.163  14.614   5.794  0.00  0.00     0.072 C 
HETATM   27  C   UNK N   1      35.303  13.682   4.965  0.00  0.00     0.013 C 
ENDBRANCH  16  26
ENDBRANCH  11  12
ENDBRANCH   3  11
BRANCH  10  28
HETATM   28  C   UNK N   1      27.759  18.595   5.697  0.00  0.00     0.026 A 
HETATM   29  C   UNK N   1      26.802  17.902   4.893  0.00  0.00     0.055 A 
HETATM   30  C   UNK N   1      25.656  18.576   4.466  0.00  0.00     0.031 A 
HETATM   31  C   UNK N   1      25.424  19.897   4.847  0.00  0.00     0.002 A 
HETATM   32  C   UNK N   1      26.348  20.568   5.648  0.00  0.00     0.001 A 
HETATM   33  C   UNK N   1      27.516  19.925   6.062  0.00  0.00     0.017 A 
BRANCH  29  34
HETATM   34  N   UNK N   1      27.039  16.598   4.365  0.00  0.00    -0.276 N 
HETATM   35  H   UNK N   1      27.314  16.533   3.422  0.00  0.00     0.179 HD
BRANCH  34  36
HETATM   36  S   UNK N   1      26.879  15.090   5.273  0.00  0.00     0.334 S 
HETATM   37  O   UNK N   1      28.287  14.489   5.410  0.00  0.00    -0.196 OA
HETATM   38  O   UNK N   1      26.206  14.121   4.285  0.00  0.00    -0.196 OA
BRANCH  36  39
HETATM   39  C   UNK N   1      25.950  15.161   6.817  0.00  0.00     0.517 C 
HETATM   40  F   UNK N   1      26.632  15.953   7.717  0.00  0.00    -0.155 F 
HETATM   41  F   UNK N   1      25.810  13.885   7.329  0.00  0.00    -0.155 F 
HETATM   42  F   UNK N   1      24.701  15.698   6.572  0.00  0.00    -0.155 F 
ENDBRANCH  36  39
ENDBRANCH  34  36
ENDBRANCH  29  34
ENDBRANCH  10  28
TORSDOF 9
ENDMDL
MODEL 3
REMARK VINA RESULT:      -8.0      5.790     10.665
REMARK  9 active torsions:
REMARK  status: ('A' for Active; 'I' for Inactive)
REMARK    1  A    between atoms: S_2  and  N_14 
REMARK    2  A    between atoms: S_2  and  C_39 
REMARK    3  A    between atoms: N_10  and  C_21 
REMARK       I    between atoms: N_13  and  C_23 
REMARK    4  A    between atoms: N_14  and  C_34 
REMARK    5  A    between atoms: C_15  and  C_18 
REMARK    6  A    between atoms: C_19  and  C_23 
REMARK    7  A    between atoms: C_20  and  C_22 
REMARK    8  A    between atoms: C_21  and  C_24 
REMARK    9  A    between atoms: C_32  and  C_33 
ROOT
HETATM    1 Br   UNK N   1      33.539  12.260   8.850  0.00  0.00    -0.047 Br
HETATM    2  O   UNK N   1      35.252  15.869   8.036  0.00  0.00    -0.308 OA
HETATM    3  C   UNK N   1      31.368  16.340   7.191  0.00  0.00    -0.039 A 
HETATM    4  C   UNK N   1      31.856  15.136   7.754  0.00  0.00     0.024 A 
HETATM    5  C   UNK N   1      32.239  17.410   6.936  0.00  0.00     0.011 A 
HETATM    6  C   UNK N   1      33.219  15.082   8.045  0.00  0.00     0.018 A 
HETATM    7  C   UNK N   1      34.021  16.160   7.809  0.00  0.00     0.087 A 
HETATM    8  C   UNK N   1      33.575  17.345   7.280  0.00  0.00     0.039 A 
HETATM    9  C   UNK N   1      34.055  14.065   8.472  0.00  0.00     0.058 A 
HETATM   10  C   UNK N   1      35.343  14.625   8.416  0.00  0.00     0.106 A 
ENDROOT
BRANCH   3  11
HETATM   11  C   UNK N   1      30.006  16.394   6.622  0.00  0.00     0.169 C 
BRANCH  11  12
HETATM   12  N   UNK N   1      29.144  17.528   6.968  0.00  0.00    -0.326 N 
HETATM   13  C   UNK N   1      28.304  18.090   6.071  0.00  0.00     0.127 A 
HETATM   14  C   UNK N   1      27.738  19.210   6.648  0.00  0.00     0.047 A 
HETATM   15  N   UNK N   1      28.195  19.337   7.911  0.00  0.00    -0.347 N 
HETATM   16  C   UNK N   1      29.041  18.309   8.086  0.00  0.00     0.084 A 
ATOM     17  HN  UNK N   1      27.948  20.059   8.588  1.00  0.00     0.167 HD
BRANCH  13  18
HETATM   18  C   UNK N   1      28.071  17.580   4.686  0.00  0.00     0.268 C 
HETATM   19  O   UNK N   1      27.103  16.883   4.434  0.00  0.00    -0.266 OA
HETATM   20  N   UNK N   1      28.914  17.915   3.690  0.00  0.00    -0.365 N 
HETATM   21  H   UNK N   1      28.615  17.885   2.752  0.00  0.00     0.159 HD
HETATM   22  H   UNK N   1      29.834  18.193   3.900  0.00  0.00     0.159 HD
ENDBRANCH  13  18
BRANCH  14  23
HETATM   23  C   UNK N   1      26.805  20.179   5.991  0.00  0.00     0.038 A 
HETATM   24  C   UNK N   1      27.396  21.577   5.941  0.00  0.00     0.011 A 
HETATM   25  C   UNK N   1      26.368  21.227   6.994  0.00  0.00     0.011 A 
ENDBRANCH  14  23
BRANCH  16  26
HETATM   26  C   UNK N   1      29.748  18.116   9.389  0.00  0.00     0.072 C 
HETATM   27  C   UNK N   1      29.088  17.042  10.230  0.00  0.00     0.013 C 
ENDBRANCH  16  26
ENDBRANCH  11  12
ENDBRANCH   3  11
BRANCH  10  28
HETATM   28  C   UNK N   1      36.669  14.003   8.569  0.00  0.00     0.026 A 
HETATM   29  C   UNK N   1      37.318  14.011   9.843  0.00  0.00     0.055 A 
HETATM   30  C   UNK N   1      38.632  13.549   9.940  0.00  0.00     0.031 A 
HETATM   31  C   UNK N   1      39.295  13.048   8.820  0.00  0.00     0.002 A 
HETATM   32  C   UNK N   1      38.655  13.022   7.581  0.00  0.00     0.001 A 
HETATM   33  C   UNK N   1      37.352  13.507   7.453  0.00  0.00     0.017 A 
BRANCH  29  34
HETATM   34  N   UNK N   1      36.744  14.625  10.996  0.00  0.00    -0.276 N 
HETATM   35  H   UNK N   1      36.924  15.582  11.137  0.00  0.00     0.179 HD
BRANCH  34  36
HETATM   36  S   UNK N   1      35.735  13.800  12.190  0.00  0.00     0.334 S 
HETATM   37  O   UNK N   1      35.554  12.351  11.709  0.00  0.00    -0.196 OA
HETATM   38  O   UNK N   1      34.331  14.392  11.976  0.00  0.00    -0.196 OA
BRANCH  36  39
HETATM   39  C   UNK N   1      36.227  13.951  13.919  0.00  0.00     0.517 C 
HETATM   40  F   UNK N   1      35.122  13.751  14.720  0.00  0.00    -0.155 F 
HETATM   41  F   UNK N   1      36.745  15.212  14.141  0.00  0.00    -0.155 F 
HETATM   42  F   UNK N   1      37.190  13.001  14.202  0.00  0.00    -0.155 F 
ENDBRANCH  36  39
ENDBRANCH  34  36
ENDBRANCH  29  34
ENDBRANCH  10  28
TORSDOF 9
ENDMDL
MODEL 4
REMARK VINA RESULT:      -8.0      5.902     10.319
REMARK  9 active torsions:
REMARK  status: ('A' for Active; 'I' for Inactive)
REMARK    1  A    between atoms: S_2  and  N_14 
REMARK    2  A    between atoms: S_2  and  C_39 
REMARK    3  A    between atoms: N_10  and  C_21 
REMARK       I    between atoms: N_13  and  C_23 
REMARK    4  A    between atoms: N_14  and  C_34 
REMARK    5  A    between atoms: C_15  and  C_18 
REMARK    6  A    between atoms: C_19  and  C_23 
REMARK    7  A    between atoms: C_20  and  C_22 
REMARK    8  A    between atoms: C_21  and  C_24 
REMARK    9  A    between atoms: C_32  and  C_33 
ROOT
HETATM    1 Br   UNK N   1      33.500  12.560   8.626  0.00  0.00    -0.047 Br
HETATM    2  O   UNK N   1      35.655  16.000   8.999  0.00  0.00    -0.308 OA
HETATM    3  C   UNK N   1      31.943  17.186   8.085  0.00  0.00    -0.039 A 
HETATM    4  C   UNK N   1      32.244  15.820   8.305  0.00  0.00     0.024 A 
HETATM    5  C   UNK N   1      32.943  18.163   8.205  0.00  0.00     0.011 A 
HETATM    6  C   UNK N   1      33.559  15.511   8.652  0.00  0.00     0.018 A 
HETATM    7  C   UNK N   1      34.490  16.499   8.790  0.00  0.00     0.087 A 
HETATM    8  C   UNK N   1      34.225  17.832   8.599  0.00  0.00     0.039 A 
HETATM    9  C   UNK N   1      34.238  14.316   8.819  0.00  0.00     0.058 A 
HETATM   10  C   UNK N   1      35.577  14.698   9.008  0.00  0.00     0.106 A 
ENDROOT
BRANCH   3  11
HETATM   11  C   UNK N   1      30.657  17.572   7.471  0.00  0.00     0.169 C 
BRANCH  11  12
HETATM   12  N   UNK N   1      30.450  17.307   6.044  0.00  0.00    -0.326 N 
HETATM   13  C   UNK N   1      29.232  17.011   5.538  0.00  0.00     0.127 A 
HETATM   14  C   UNK N   1      29.384  16.680   4.206  0.00  0.00     0.047 A 
HETATM   15  N   UNK N   1      30.684  16.794   3.866  0.00  0.00    -0.347 N 
HETATM   16  C   UNK N   1      31.312  17.177   4.989  0.00  0.00     0.084 A 
ATOM     17  HN  UNK N   1      31.100  16.627   2.950  1.00  0.00     0.167 HD
BRANCH  13  18
HETATM   18  C   UNK N   1      27.960  17.020   6.321  0.00  0.00     0.268 C 
HETATM   19  O   UNK N   1      27.499  15.987   6.772  0.00  0.00    -0.266 OA
HETATM   20  N   UNK N   1      27.323  18.183   6.564  0.00  0.00    -0.365 N 
HETATM   21  H   UNK N   1      26.705  18.263   7.327  0.00  0.00     0.159 HD
HETATM   22  H   UNK N   1      27.476  18.957   5.977  0.00  0.00     0.159 HD
ENDBRANCH  13  18
BRANCH  14  23
HETATM   23  C   UNK N   1      28.309  16.213   3.273  0.00  0.00     0.038 A 
HETATM   24  C   UNK N   1      28.049  14.724   3.423  0.00  0.00     0.011 A 
HETATM   25  C   UNK N   1      28.891  15.235   2.274  0.00  0.00     0.011 A 
ENDBRANCH  14  23
BRANCH  16  26
HETATM   26  C   UNK N   1      32.788  17.414   4.997  0.00  0.00     0.072 C 
HETATM   27  C   UNK N   1      33.562  16.120   4.851  0.00  0.00     0.013 C 
ENDBRANCH  16  26
ENDBRANCH  11  12
ENDBRANCH   3  11
BRANCH  10  28
HETATM   28  C   UNK N   1      36.808  13.893   9.058  0.00  0.00     0.026 A 
HETATM   29  C   UNK N   1      37.499  13.721  10.298  0.00  0.00     0.055 A 
HETATM   30  C   UNK N   1      38.738  13.079  10.303  0.00  0.00     0.031 A 
HETATM   31  C   UNK N   1      39.284  12.575   9.123  0.00  0.00     0.002 A 
HETATM   32  C   UNK N   1      38.601  12.725   7.916  0.00  0.00     0.001 A 
HETATM   33  C   UNK N   1      37.375  13.391   7.881  0.00  0.00     0.017 A 
BRANCH  29  34
HETATM   34  N   UNK N   1      37.058  14.322  11.515  0.00  0.00    -0.276 N 
HETATM   35  H   UNK N   1      37.372  15.235  11.709  0.00  0.00     0.179 HD
BRANCH  34  36
HETATM   36  S   UNK N   1      35.994  13.556  12.699  0.00  0.00     0.334 S 
HETATM   37  O   UNK N   1      35.855  12.078  12.298  0.00  0.00    -0.196 OA
HETATM   38  O   UNK N   1      34.598  14.114  12.373  0.00  0.00    -0.196 OA
BRANCH  36  39
HETATM   39  C   UNK N   1      36.386  13.817  14.440  0.00  0.00     0.517 C 
HETATM   40  F   UNK N   1      37.352  12.910  14.825  0.00  0.00    -0.155 F 
HETATM   41  F   UNK N   1      35.246  13.639  15.200  0.00  0.00    -0.155 F 
HETATM   42  F   UNK N   1      36.857  15.105  14.611  0.00  0.00    -0.155 F 
ENDBRANCH  36  39
ENDBRANCH  34  36
ENDBRANCH  29  34
ENDBRANCH  10  28
TORSDOF 9
ENDMDL
MODEL 5
REMARK VINA RESULT:      -7.8      5.181      7.382
REMARK  9 active torsions:
REMARK  status: ('A' for Active; 'I' for Inactive)
REMARK    1  A    between atoms: S_2  and  N_14 
REMARK    2  A    between atoms: S_2  and  C_39 
REMARK    3  A    between atoms: N_10  and  C_21 
REMARK       I    between atoms: N_13  and  C_23 
REMARK    4  A    between atoms: N_14  and  C_34 
REMARK    5  A    between atoms: C_15  and  C_18 
REMARK    6  A    between atoms: C_19  and  C_23 
REMARK    7  A    between atoms: C_20  and  C_22 
REMARK    8  A    between atoms: C_21  and  C_24 
REMARK    9  A    between atoms: C_32  and  C_33 
ROOT
HETATM    1 Br   UNK N   1      32.837  12.188   5.899  0.00  0.00    -0.047 Br
HETATM    2  O   UNK N   1      35.978  14.717   6.493  0.00  0.00    -0.308 OA
HETATM    3  C   UNK N   1      36.567  11.700   9.055  0.00  0.00    -0.039 A 
HETATM    4  C   UNK N   1      35.497  11.677   8.128  0.00  0.00     0.024 A 
HETATM    5  C   UNK N   1      37.464  12.779   9.081  0.00  0.00     0.011 A 
HETATM    6  C   UNK N   1      35.397  12.760   7.253  0.00  0.00     0.018 A 
HETATM    7  C   UNK N   1      36.312  13.770   7.294  0.00  0.00     0.087 A 
HETATM    8  C   UNK N   1      37.368  13.812   8.170  0.00  0.00     0.039 A 
HETATM    9  C   UNK N   1      34.445  13.138   6.323  0.00  0.00     0.058 A 
HETATM   10  C   UNK N   1      34.860  14.410   5.896  0.00  0.00     0.106 A 
ENDROOT
BRANCH   3  11
HETATM   11  C   UNK N   1      36.600  10.735  10.173  0.00  0.00     0.169 C 
BRANCH  11  12
HETATM   12  N   UNK N   1      35.559  10.815  11.202  0.00  0.00    -0.326 N 
HETATM   13  C   UNK N   1      35.758  11.457  12.375  0.00  0.00     0.127 A 
HETATM   14  C   UNK N   1      34.657  11.241  13.180  0.00  0.00     0.047 A 
HETATM   15  N   UNK N   1      33.758  10.491  12.511  0.00  0.00    -0.347 N 
HETATM   16  C   UNK N   1      34.320  10.247  11.316  0.00  0.00     0.084 A 
ATOM     17  HN  UNK N   1      32.845  10.179  12.841  1.00  0.00     0.167 HD
BRANCH  13  18
HETATM   18  C   UNK N   1      36.984  12.237  12.722  0.00  0.00     0.268 C 
HETATM   19  O   UNK N   1      37.964  11.681  13.187  0.00  0.00    -0.266 OA
HETATM   20  N   UNK N   1      37.031  13.564  12.492  0.00  0.00    -0.365 N 
HETATM   21  H   UNK N   1      37.896  14.022  12.391  0.00  0.00     0.159 HD
HETATM   22  H   UNK N   1      36.195  14.078  12.424  0.00  0.00     0.159 HD
ENDBRANCH  13  18
BRANCH  14  23
HETATM   23  C   UNK N   1      34.480  11.702  14.594  0.00  0.00     0.038 A 
HETATM   24  C   UNK N   1      35.216  10.803  15.571  0.00  0.00     0.011 A 
HETATM   25  C   UNK N   1      33.723  10.653  15.381  0.00  0.00     0.011 A 
ENDBRANCH  14  23
BRANCH  16  26
HETATM   26  C   UNK N   1      33.602   9.437  10.285  0.00  0.00     0.072 C 
HETATM   27  C   UNK N   1      32.514  10.240   9.601  0.00  0.00     0.013 C 
ENDBRANCH  16  26
ENDBRANCH  11  12
ENDBRANCH   3  11
BRANCH  10  28
HETATM   28  C   UNK N   1      34.181  15.412   5.057  0.00  0.00     0.026 A 
HETATM   29  C   UNK N   1      33.939  16.725   5.569  0.00  0.00     0.055 A 
HETATM   30  C   UNK N   1      33.169  17.616   4.819  0.00  0.00     0.031 A 
HETATM   31  C   UNK N   1      32.671  17.249   3.569  0.00  0.00     0.002 A 
HETATM   32  C   UNK N   1      32.923  15.975   3.061  0.00  0.00     0.001 A 
HETATM   33  C   UNK N   1      33.665  15.056   3.805  0.00  0.00     0.017 A 
BRANCH  29  34
HETATM   34  N   UNK N   1      34.310  17.118   6.889  0.00  0.00    -0.276 N 
HETATM   35  H   UNK N   1      35.223  17.461   7.020  0.00  0.00     0.179 HD
BRANCH  34  36
HETATM   36  S   UNK N   1      33.258  17.038   8.307  0.00  0.00     0.334 S 
HETATM   37  O   UNK N   1      32.341  18.272   8.263  0.00  0.00    -0.196 OA
HETATM   38  O   UNK N   1      34.187  17.365   9.489  0.00  0.00    -0.196 OA
BRANCH  36  39
HETATM   39  C   UNK N   1      32.392  15.482   8.595  0.00  0.00     0.517 C 
HETATM   40  F   UNK N   1      31.410  15.682   9.543  0.00  0.00    -0.155 F 
HETATM   41  F   UNK N   1      33.291  14.533   9.043  0.00  0.00    -0.155 F 
HETATM   42  F   UNK N   1      31.822  15.054   7.412  0.00  0.00    -0.155 F 
ENDBRANCH  36  39
ENDBRANCH  34  36
ENDBRANCH  29  34
ENDBRANCH  10  28
TORSDOF 9
ENDMDL
MODEL 6
REMARK VINA RESULT:      -7.8      5.557      8.451
REMARK  9 active torsions:
REMARK  status: ('A' for Active; 'I' for Inactive)
REMARK    1  A    between atoms: S_2  and  N_14 
REMARK    2  A    between atoms: S_2  and  C_39 
REMARK    3  A    between atoms: N_10  and  C_21 
REMARK       I    between atoms: N_13  and  C_23 
REMARK    4  A    between atoms: N_14  and  C_34 
REMARK    5  A    between atoms: C_15  and  C_18 
REMARK    6  A    between atoms: C_19  and  C_23 
REMARK    7  A    between atoms: C_20  and  C_22 
REMARK    8  A    between atoms: C_21  and  C_24 
REMARK    9  A    between atoms: C_32  and  C_33 
ROOT
HETATM    1 Br   UNK N   1      24.362  14.542   4.100  0.00  0.00    -0.047 Br
HETATM    2  O   UNK N   1      22.014  17.826   3.534  0.00  0.00    -0.308 OA
HETATM    3  C   UNK N   1      25.732  19.254   3.930  0.00  0.00    -0.039 A 
HETATM    4  C   UNK N   1      25.480  17.861   3.905  0.00  0.00     0.024 A 
HETATM    5  C   UNK N   1      24.678  20.171   3.793  0.00  0.00     0.011 A 
HETATM    6  C   UNK N   1      24.155  17.463   3.728  0.00  0.00     0.018 A 
HETATM    7  C   UNK N   1      23.168  18.390   3.566  0.00  0.00     0.087 A 
HETATM    8  C   UNK N   1      23.383  19.746   3.570  0.00  0.00     0.039 A 
HETATM    9  C   UNK N   1      23.523  16.232   3.773  0.00  0.00     0.058 A 
HETATM   10  C   UNK N   1      22.156  16.537   3.672  0.00  0.00     0.106 A 
ENDROOT
BRANCH   3  11
HETATM   11  C   UNK N   1      27.050  19.761   4.364  0.00  0.00     0.169 C 
BRANCH  11  12
HETATM   12  N   UNK N   1      27.408  19.667   5.782  0.00  0.00    -0.326 N 
HETATM   13  C   UNK N   1      28.167  18.657   6.264  0.00  0.00     0.127 A 
HETATM   14  C   UNK N   1      28.213  18.767   7.640  0.00  0.00     0.047 A 
HETATM   15  N   UNK N   1      27.511  19.854   8.022  0.00  0.00    -0.347 N 
HETATM   16  C   UNK N   1      27.035  20.386   6.884  0.00  0.00     0.084 A 
ATOM     17  HN  UNK N   1      27.374  20.199   8.972  1.00  0.00     0.167 HD
BRANCH  13  18
HETATM   18  C   UNK N   1      28.810  17.601   5.427  0.00  0.00     0.268 C 
HETATM   19  O   UNK N   1      28.358  16.469   5.397  0.00  0.00    -0.266 OA
HETATM   20  N   UNK N   1      29.882  17.898   4.666  0.00  0.00    -0.365 N 
HETATM   21  H   UNK N   1      30.106  17.346   3.882  0.00  0.00     0.159 HD
HETATM   22  H   UNK N   1      30.445  18.671   4.896  0.00  0.00     0.159 HD
ENDBRANCH  13  18
BRANCH  14  23
HETATM   23  C   UNK N   1      28.878  17.820   8.590  0.00  0.00     0.038 A 
HETATM   24  C   UNK N   1      29.643  18.560   9.673  0.00  0.00     0.011 A 
HETATM   25  C   UNK N   1      30.381  17.971   8.491  0.00  0.00     0.011 A 
ENDBRANCH  14  23
BRANCH  16  26
HETATM   26  C   UNK N   1      26.202  21.626   6.911  0.00  0.00     0.072 C 
HETATM   27  C   UNK N   1      25.582  21.854   8.275  0.00  0.00     0.013 C 
ENDBRANCH  16  26
ENDBRANCH  11  12
ENDBRANCH   3  11
BRANCH  10  28
HETATM   28  C   UNK N   1      20.966  15.686   3.840  0.00  0.00     0.026 A 
HETATM   29  C   UNK N   1      20.309  15.620   5.108  0.00  0.00     0.055 A 
HETATM   30  C   UNK N   1      19.274  14.702   5.292  0.00  0.00     0.031 A 
HETATM   31  C   UNK N   1      18.855  13.882   4.244  0.00  0.00     0.002 A 
HETATM   32  C   UNK N   1      19.483  13.960   3.001  0.00  0.00     0.001 A 
HETATM   33  C   UNK N   1      20.541  14.848   2.802  0.00  0.00     0.017 A 
BRANCH  29  34
HETATM   34  N   UNK N   1      20.771  16.336   6.253  0.00  0.00    -0.276 N 
HETATM   35  H   UNK N   1      21.557  16.917   6.138  0.00  0.00     0.179 HD
BRANCH  34  36
HETATM   36  S   UNK N   1      20.039  16.263   7.860  0.00  0.00     0.334 S 
HETATM   37  O   UNK N   1      18.538  16.546   7.690  0.00  0.00    -0.196 OA
HETATM   38  O   UNK N   1      20.534  17.541   8.561  0.00  0.00    -0.196 OA
BRANCH  36  39
HETATM   39  C   UNK N   1      20.411  14.810   8.861  0.00  0.00     0.517 C 
HETATM   40  F   UNK N   1      19.388  14.612   9.765  0.00  0.00    -0.155 F 
HETATM   41  F   UNK N   1      21.600  15.008   9.536  0.00  0.00    -0.155 F 
HETATM   42  F   UNK N   1      20.527  13.708   8.036  0.00  0.00    -0.155 F 
ENDBRANCH  36  39
ENDBRANCH  34  36
ENDBRANCH  29  34
ENDBRANCH  10  28
TORSDOF 9
ENDMDL
MODEL 7
REMARK VINA RESULT:      -7.5      5.484      8.279
REMARK  9 active torsions:
REMARK  status: ('A' for Active; 'I' for Inactive)
REMARK    1  A    between atoms: S_2  and  N_14 
REMARK    2  A    between atoms: S_2  and  C_39 
REMARK    3  A    between atoms: N_10  and  C_21 
REMARK       I    between atoms: N_13  and  C_23 
REMARK    4  A    between atoms: N_14  and  C_34 
REMARK    5  A    between atoms: C_15  and  C_18 
REMARK    6  A    between atoms: C_19  and  C_23 
REMARK    7  A    between atoms: C_20  and  C_22 
REMARK    8  A    between atoms: C_21  and  C_24 
REMARK    9  A    between atoms: C_32  and  C_33 
ROOT
HETATM    1 Br   UNK N   1      22.452  11.864   3.856  0.00  0.00    -0.047 Br
HETATM    2  O   UNK N   1      23.557  14.594   1.037  0.00  0.00    -0.308 OA
HETATM    3  C   UNK N   1      26.674  14.351   3.536  0.00  0.00    -0.039 A 
HETATM    4  C   UNK N   1      25.546  13.508   3.685  0.00  0.00     0.024 A 
HETATM    5  C   UNK N   1      26.733  15.281   2.487  0.00  0.00     0.011 A 
HETATM    6  C   UNK N   1      24.526  13.646   2.743  0.00  0.00     0.018 A 
HETATM    7  C   UNK N   1      24.643  14.542   1.721  0.00  0.00     0.087 A 
HETATM    8  C   UNK N   1      25.730  15.360   1.541  0.00  0.00     0.039 A 
HETATM    9  C   UNK N   1      23.258  13.103   2.638  0.00  0.00     0.058 A 
HETATM   10  C   UNK N   1      22.681  13.772   1.545  0.00  0.00     0.106 A 
ENDROOT
BRANCH   3  11
HETATM   11  C   UNK N   1      27.673  14.452   4.619  0.00  0.00     0.169 C 
BRANCH  11  12
HETATM   12  N   UNK N   1      27.486  15.473   5.655  0.00  0.00    -0.326 N 
HETATM   13  C   UNK N   1      28.333  16.517   5.793  0.00  0.00     0.127 A 
HETATM   14  C   UNK N   1      27.976  17.217   6.929  0.00  0.00     0.047 A 
HETATM   15  N   UNK N   1      26.895  16.636   7.488  0.00  0.00    -0.347 N 
HETATM   16  C   UNK N   1      26.612  15.585   6.701  0.00  0.00     0.084 A 
ATOM     17  HN  UNK N   1      26.398  16.933   8.327  1.00  0.00     0.167 HD
BRANCH  13  18
HETATM   18  C   UNK N   1      29.470  16.820   4.873  0.00  0.00     0.268 C 
HETATM   19  O   UNK N   1      30.586  16.385   5.099  0.00  0.00    -0.266 OA
HETATM   20  N   UNK N   1      29.265  17.552   3.761  0.00  0.00    -0.365 N 
HETATM   21  H   UNK N   1      29.882  17.482   2.996  0.00  0.00     0.159 HD
HETATM   22  H   UNK N   1      28.494  18.160   3.711  0.00  0.00     0.159 HD
ENDBRANCH  13  18
BRANCH  14  23
HETATM   23  C   UNK N   1      28.686  18.403   7.507  0.00  0.00     0.038 A 
HETATM   24  C   UNK N   1      29.828  17.982   8.415  0.00  0.00     0.011 A 
HETATM   25  C   UNK N   1      28.508  18.420   9.011  0.00  0.00     0.011 A 
ENDBRANCH  14  23
BRANCH  16  26
HETATM   26  C   UNK N   1      25.453  14.692   7.008  0.00  0.00     0.072 C 
HETATM   27  C   UNK N   1      24.147  15.281   6.516  0.00  0.00     0.013 C 
ENDBRANCH  16  26
ENDBRANCH  11  12
ENDBRANCH   3  11
BRANCH  10  28
HETATM   28  C   UNK N   1      21.297  13.777   1.042  0.00  0.00     0.026 A 
HETATM   29  C   UNK N   1      20.545  14.993   1.036  0.00  0.00     0.055 A 
HETATM   30  C   UNK N   1      19.192  14.954   0.693  0.00  0.00     0.031 A 
HETATM   31  C   UNK N   1      18.586  13.754   0.324  0.00  0.00     0.002 A 
HETATM   32  C   UNK N   1      19.324  12.571   0.311  0.00  0.00     0.001 A 
HETATM   33  C   UNK N   1      20.670  12.580   0.679  0.00  0.00     0.017 A 
BRANCH  29  34
HETATM   34  N   UNK N   1      21.070  16.227   1.524  0.00  0.00    -0.276 N 
HETATM   35  H   UNK N   1      21.788  16.652   1.002  0.00  0.00     0.179 HD
BRANCH  34  36
HETATM   36  S   UNK N   1      20.532  17.051   2.992  0.00  0.00     0.334 S 
HETATM   37  O   UNK N   1      19.402  18.011   2.586  0.00  0.00    -0.196 OA
HETATM   38  O   UNK N   1      21.679  18.020   3.326  0.00  0.00    -0.196 OA
BRANCH  36  39
HETATM   39  C   UNK N   1      20.147  16.013   4.416  0.00  0.00     0.517 C 
HETATM   40  F   UNK N   1      18.782  15.823   4.479  0.00  0.00    -0.155 F 
HETATM   41  F   UNK N   1      20.588  16.634   5.569  0.00  0.00    -0.155 F 
HETATM   42  F   UNK N   1      20.784  14.795   4.276  0.00  0.00    -0.155 F 
ENDBRANCH  36  39
ENDBRANCH  34  36
ENDBRANCH  29  34
ENDBRANCH  10  28
TORSDOF 9
ENDMDL
MODEL 8
REMARK VINA RESULT:      -7.5      4.202     10.383
REMARK  9 active torsions:
REMARK  status: ('A' for Active; 'I' for Inactive)
REMARK    1  A    between atoms: S_2  and  N_14 
REMARK    2  A    between atoms: S_2  and  C_39 
REMARK    3  A    between atoms: N_10  and  C_21 
REMARK       I    between atoms: N_13  and  C_23 
REMARK    4  A    between atoms: N_14  and  C_34 
REMARK    5  A    between atoms: C_15  and  C_18 
REMARK    6  A    between atoms: C_19  and  C_23 
REMARK    7  A    between atoms: C_20  and  C_22 
REMARK    8  A    between atoms: C_21  and  C_24 
REMARK    9  A    between atoms: C_32  and  C_33 
ROOT
HETATM    1 Br   UNK N   1      29.248  17.737   9.039  0.00  0.00    -0.047 Br
HETATM    2  O   UNK N   1      30.943  16.945   5.417  0.00  0.00    -0.308 OA
HETATM    3  C   UNK N   1      27.004  17.070   4.722  0.00  0.00    -0.039 A 
HETATM    4  C   UNK N   1      27.534  17.373   6.000  0.00  0.00     0.024 A 
HETATM    5  C   UNK N   1      27.857  16.738   3.658  0.00  0.00     0.011 A 
HETATM    6  C   UNK N   1      28.922  17.335   6.132  0.00  0.00     0.018 A 
HETATM    7  C   UNK N   1      29.713  17.040   5.061  0.00  0.00     0.087 A 
HETATM    8  C   UNK N   1      29.229  16.758   3.808  0.00  0.00     0.039 A 
HETATM    9  C   UNK N   1      29.772  17.447   7.219  0.00  0.00     0.058 A 
HETATM   10  C   UNK N   1      31.044  17.158   6.699  0.00  0.00     0.106 A 
ENDROOT
BRANCH   3  11
HETATM   11  C   UNK N   1      25.555  16.838   4.557  0.00  0.00     0.169 C 
BRANCH  11  12
HETATM   12  N   UNK N   1      24.690  17.980   4.249  0.00  0.00    -0.326 N 
HETATM   13  C   UNK N   1      23.345  17.916   4.372  0.00  0.00     0.127 A 
HETATM   14  C   UNK N   1      22.808  19.090   3.881  0.00  0.00     0.047 A 
HETATM   15  N   UNK N   1      23.807  19.901   3.479  0.00  0.00    -0.347 N 
HETATM   16  C   UNK N   1      24.937  19.214   3.712  0.00  0.00     0.084 A 
ATOM     17  HN  UNK N   1      23.722  20.837   3.083  1.00  0.00     0.167 HD
BRANCH  13  18
HETATM   18  C   UNK N   1      22.595  16.747   4.922  0.00  0.00     0.268 C 
HETATM   19  O   UNK N   1      22.190  15.865   4.185  0.00  0.00    -0.266 OA
HETATM   20  N   UNK N   1      22.387  16.639   6.248  0.00  0.00    -0.365 N 
HETATM   21  H   UNK N   1      22.210  15.760   6.656  0.00  0.00     0.159 HD
HETATM   22  H   UNK N   1      22.411  17.444   6.814  0.00  0.00     0.159 HD
ENDBRANCH  13  18
BRANCH  14  23
HETATM   23  C   UNK N   1      21.353  19.420   3.751  0.00  0.00     0.038 A 
HETATM   24  C   UNK N   1      20.813  19.039   2.384  0.00  0.00     0.011 A 
HETATM   25  C   UNK N   1      21.164  20.479   2.685  0.00  0.00     0.011 A 
ENDBRANCH  14  23
BRANCH  16  26
HETATM   26  C   UNK N   1      26.271  19.807   3.392  0.00  0.00     0.072 C 
HETATM   27  C   UNK N   1      26.776  20.688   4.516  0.00  0.00     0.013 C 
ENDBRANCH  16  26
ENDBRANCH  11  12
ENDBRANCH   3  11
BRANCH  10  28
HETATM   28  C   UNK N   1      32.332  16.935   7.377  0.00  0.00     0.026 A 
HETATM   29  C   UNK N   1      32.775  15.603   7.647  0.00  0.00     0.055 A 
HETATM   30  C   UNK N   1      33.924  15.410   8.417  0.00  0.00     0.031 A 
HETATM   31  C   UNK N   1      34.656  16.499   8.888  0.00  0.00     0.002 A 
HETATM   32  C   UNK N   1      34.235  17.800   8.608  0.00  0.00     0.001 A 
HETATM   33  C   UNK N   1      33.073  18.017   7.867  0.00  0.00     0.017 A 
BRANCH  29  34
HETATM   34  N   UNK N   1      32.005  14.451   7.305  0.00  0.00    -0.276 N 
HETATM   35  H   UNK N   1      31.324  14.152   7.949  0.00  0.00     0.179 HD
BRANCH  34  36
HETATM   36  S   UNK N   1      32.180  13.519   5.813  0.00  0.00     0.334 S 
HETATM   37  O   UNK N   1      30.775  13.362   5.207  0.00  0.00    -0.196 OA
HETATM   38  O   UNK N   1      32.490  12.090   6.291  0.00  0.00    -0.196 OA
BRANCH  36  39
HETATM   39  C   UNK N   1      33.432  14.079   4.642  0.00  0.00     0.517 C 
HETATM   40  F   UNK N   1      33.485  13.197   3.583  0.00  0.00    -0.155 F 
HETATM   41  F   UNK N   1      34.661  14.128   5.273  0.00  0.00    -0.155 F 
HETATM   42  F   UNK N   1      33.098  15.340   4.187  0.00  0.00    -0.155 F 
ENDBRANCH  36  39
ENDBRANCH  34  36
ENDBRANCH  29  34
ENDBRANCH  10  28
TORSDOF 9
ENDMDL
MODEL 9
REMARK VINA RESULT:      -7.5      4.598     10.966
REMARK  9 active torsions:
REMARK  status: ('A' for Active; 'I' for Inactive)
REMARK    1  A    between atoms: S_2  and  N_14 
REMARK    2  A    between atoms: S_2  and  C_39 
REMARK    3  A    between atoms: N_10  and  C_21 
REMARK       I    between atoms: N_13  and  C_23 
REMARK    4  A    between atoms: N_14  and  C_34 
REMARK    5  A    between atoms: C_15  and  C_18 
REMARK    6  A    between atoms: C_19  and  C_23 
REMARK    7  A    between atoms: C_20  and  C_22 
REMARK    8  A    between atoms: C_21  and  C_24 
REMARK    9  A    between atoms: C_32  and  C_33 
ROOT
HETATM    1 Br   UNK N   1      27.811  19.561   4.586  0.00  0.00    -0.047 Br
HETATM    2  O   UNK N   1      27.358  16.147   6.768  0.00  0.00    -0.308 OA
HETATM    3  C   UNK N   1      24.001  16.463   4.613  0.00  0.00    -0.039 A 
HETATM    4  C   UNK N   1      25.070  17.377   4.445  0.00  0.00     0.024 A 
HETATM    5  C   UNK N   1      24.106  15.406   5.530  0.00  0.00     0.011 A 
HETATM    6  C   UNK N   1      26.211  17.162   5.217  0.00  0.00     0.018 A 
HETATM    7  C   UNK N   1      26.280  16.101   6.072  0.00  0.00     0.087 A 
HETATM    8  C   UNK N   1      25.267  15.190   6.244  0.00  0.00     0.039 A 
HETATM    9  C   UNK N   1      27.371  17.890   5.413  0.00  0.00     0.058 A 
HETATM   10  C   UNK N   1      28.047  17.204   6.436  0.00  0.00     0.106 A 
ENDROOT
BRANCH   3  11
HETATM   11  C   UNK N   1      22.675  16.759   4.032  0.00  0.00     0.169 C 
BRANCH  11  12
HETATM   12  N   UNK N   1      22.205  15.949   2.904  0.00  0.00    -0.326 N 
HETATM   13  C   UNK N   1      20.899  15.888   2.560  0.00  0.00     0.127 A 
HETATM   14  C   UNK N   1      20.757  14.947   1.560  0.00  0.00     0.047 A 
HETATM   15  N   UNK N   1      21.968  14.438   1.255  0.00  0.00    -0.347 N 
HETATM   16  C   UNK N   1      22.831  15.058   2.076  0.00  0.00     0.084 A 
ATOM     17  HN  UNK N   1      22.183  13.733   0.549  1.00  0.00     0.167 HD
BRANCH  13  18
HETATM   18  C   UNK N   1      19.813  16.695   3.193  0.00  0.00     0.268 C 
HETATM   19  O   UNK N   1      19.554  17.815   2.790  0.00  0.00    -0.266 OA
HETATM   20  N   UNK N   1      19.083  16.176   4.200  0.00  0.00    -0.365 N 
HETATM   21  H   UNK N   1      18.184  16.527   4.396  0.00  0.00     0.159 HD
HETATM   22  H   UNK N   1      19.450  15.442   4.742  0.00  0.00     0.159 HD
ENDBRANCH  13  18
BRANCH  14  23
HETATM   23  C   UNK N   1      19.474  14.499   0.930  0.00  0.00     0.038 A 
HETATM   24  C   UNK N   1      18.842  13.355   1.704  0.00  0.00     0.011 A 
HETATM   25  C   UNK N   1      19.619  13.074   0.437  0.00  0.00     0.011 A 
ENDBRANCH  14  23
BRANCH  16  26
HETATM   26  C   UNK N   1      24.292  14.750   2.022  0.00  0.00     0.072 C 
HETATM   27  C   UNK N   1      24.551  13.353   1.497  0.00  0.00     0.013 C 
ENDBRANCH  16  26
ENDBRANCH  11  12
ENDBRANCH   3  11
BRANCH  10  28
HETATM   28  C   UNK N   1      29.241  17.572   7.215  0.00  0.00     0.026 A 
HETATM   29  C   UNK N   1      30.485  16.913   6.968  0.00  0.00     0.055 A 
HETATM   30  C   UNK N   1      31.569  17.168   7.809  0.00  0.00     0.031 A 
HETATM   31  C   UNK N   1      31.458  18.082   8.856  0.00  0.00     0.002 A 
HETATM   32  C   UNK N   1      30.250  18.740   9.086  0.00  0.00     0.001 A 
HETATM   33  C   UNK N   1      29.143  18.478   8.278  0.00  0.00     0.017 A 
BRANCH  29  34
HETATM   34  N   UNK N   1      30.628  15.877   5.997  0.00  0.00    -0.276 N 
HETATM   35  H   UNK N   1      29.942  15.172   5.981  0.00  0.00     0.179 HD
BRANCH  34  36
HETATM   36  S   UNK N   1      31.942  15.763   4.820  0.00  0.00     0.334 S 
HETATM   37  O   UNK N   1      31.470  14.820   3.701  0.00  0.00    -0.196 OA
HETATM   38  O   UNK N   1      33.014  14.917   5.528  0.00  0.00    -0.196 OA
BRANCH  36  39
HETATM   39  C   UNK N   1      32.648  17.314   4.231  0.00  0.00     0.517 C 
HETATM   40  F   UNK N   1      33.236  17.104   3.001  0.00  0.00    -0.155 F 
HETATM   41  F   UNK N   1      33.596  17.759   5.133  0.00  0.00    -0.155 F 
HETATM   42  F   UNK N   1      31.644  18.256   4.117  0.00  0.00    -0.155 F 
ENDBRANCH  36  39
ENDBRANCH  34  36
ENDBRANCH  29  34
ENDBRANCH  10  28
TORSDOF 9
ENDMDL
