MODEL 1
REMARK VINA RESULT:      -7.3      0.000      0.000
REMARK  0 active torsions:
REMARK  status: ('A' for Active; 'I' for Inactive)
ROOT
HETATM    1  C   UNK N   1      25.914  22.526  -7.554  0.00  0.00     0.021 C 
HETATM    2  C   UNK N   1      25.704  23.047  -8.931  0.00  0.00     0.135 C 
HETATM    3  C   UNK N   1      27.238  21.744  -7.717  0.00  0.00     0.006 C 
HETATM    4  C   UNK N   1      26.000  23.621  -6.483  0.00  0.00     0.018 C 
HETATM    5  C   UNK N   1      24.758  21.592  -7.216  0.00  0.00     0.024 C 
HETATM    6  C   UNK N   1      26.584  22.423  -9.954  0.00  0.00     0.079 C 
HETATM    7  C   UNK N   1      28.507  22.631  -7.464  0.00  0.00    -0.004 C 
HETATM    8  C   UNK N   1      27.220  21.270  -9.174  0.00  0.00     0.013 C 
HETATM    9  C   UNK N   1      27.058  23.267  -5.441  0.00  0.00     0.007 C 
HETATM   10  C   UNK N   1      28.435  23.429  -6.104  0.00  0.00    -0.002 C 
HETATM   11  C   UNK N   1      29.757  21.736  -7.536  0.00  0.00     0.010 C 
HETATM   12  C   UNK N   1      29.626  23.152  -5.144  0.00  0.00     0.019 C 
HETATM   13  C   UNK N   1      29.840  20.834  -6.300  0.00  0.00     0.035 C 
HETATM   14  C   UNK N   1      29.972  21.679  -5.067  0.00  0.00    -0.072 C 
HETATM   15  C   UNK N   1      29.400  23.742  -3.746  0.00  0.00     0.017 C 
HETATM   16  C   UNK N   1      30.781  21.240  -4.092  0.00  0.00     0.053 C 
HETATM   17  C   UNK N   1      30.585  23.491  -2.809  0.00  0.00     0.084 C 
HETATM   18  C   UNK N   1      31.169  22.112  -2.963  0.00  0.00     0.149 C 
HETATM   19  O   UNK N   1      32.013  21.728  -2.172  0.00  0.00    -0.293 OA
HETATM   20  O   UNK N   1      24.797  23.809  -9.227  0.00  0.00    -0.297 OA
ENDROOT
TORSDOF 0
ENDMDL
MODEL 2
REMARK VINA RESULT:      -7.1     13.011     14.841
REMARK  0 active torsions:
REMARK  status: ('A' for Active; 'I' for Inactive)
ROOT
HETATM    1  C   UNK N   1      28.751  17.750   7.601  0.00  0.00     0.021 C 
HETATM    2  C   UNK N   1      28.479  17.565   9.052  0.00  0.00     0.135 C 
HETATM    3  C   UNK N   1      30.289  17.910   7.593  0.00  0.00     0.006 C 
HETATM    4  C   UNK N   1      28.271  16.585   6.727  0.00  0.00     0.018 C 
HETATM    5  C   UNK N   1      28.060  19.029   7.145  0.00  0.00     0.024 C 
HETATM    6  C   UNK N   1      29.633  17.893   9.931  0.00  0.00     0.079 C 
HETATM    7  C   UNK N   1      31.045  16.543   7.456  0.00  0.00    -0.004 C 
HETATM    8  C   UNK N   1      30.610  18.546   8.950  0.00  0.00     0.013 C 
HETATM    9  C   UNK N   1      29.275  16.305   5.611  0.00  0.00     0.007 C 
HETATM   10  C   UNK N   1      30.518  15.669   6.252  0.00  0.00    -0.002 C 
HETATM   11  C   UNK N   1      32.554  16.822   7.342  0.00  0.00     0.010 C 
HETATM   12  C   UNK N   1      31.618  15.277   5.225  0.00  0.00     0.019 C 
HETATM   13  C   UNK N   1      32.884  17.421   5.969  0.00  0.00     0.035 C 
HETATM   14  C   UNK N   1      32.534  16.437   4.893  0.00  0.00    -0.072 C 
HETATM   15  C   UNK N   1      31.033  14.650   3.953  0.00  0.00     0.017 C 
HETATM   16  C   UNK N   1      33.353  16.350   3.835  0.00  0.00     0.053 C 
HETATM   17  C   UNK N   1      32.118  14.240   2.954  0.00  0.00     0.084 C 
HETATM   18  C   UNK N   1      33.233  15.247   2.857  0.00  0.00     0.149 C 
HETATM   19  O   UNK N   1      34.080  15.122   1.989  0.00  0.00    -0.293 OA
HETATM   20  O   UNK N   1      27.370  17.310   9.497  0.00  0.00    -0.297 OA
ENDROOT
TORSDOF 0
ENDMDL
MODEL 3
REMARK VINA RESULT:      -7.1      3.746      5.267
REMARK  0 active torsions:
REMARK  status: ('A' for Active; 'I' for Inactive)
ROOT
HETATM    1  C   UNK N   1      26.679  22.891  -7.258  0.00  0.00     0.021 C 
HETATM    2  C   UNK N   1      25.882  22.126  -8.254  0.00  0.00     0.135 C 
HETATM    3  C   UNK N   1      27.029  24.168  -8.057  0.00  0.00     0.006 C 
HETATM    4  C   UNK N   1      25.924  23.192  -5.958  0.00  0.00     0.018 C 
HETATM    5  C   UNK N   1      27.931  22.085  -6.929  0.00  0.00     0.024 C 
HETATM    6  C   UNK N   1      25.968  22.662  -9.639  0.00  0.00     0.079 C 
HETATM    7  C   UNK N   1      25.950  25.296  -7.907  0.00  0.00    -0.004 C 
HETATM    8  C   UNK N   1      27.087  23.698  -9.515  0.00  0.00     0.013 C 
HETATM    9  C   UNK N   1      26.262  24.594  -5.457  0.00  0.00     0.007 C 
HETATM   10  C   UNK N   1      25.587  25.601  -6.402  0.00  0.00    -0.002 C 
HETATM   11  C   UNK N   1      26.447  26.555  -8.641  0.00  0.00     0.010 C 
HETATM   12  C   UNK N   1      25.799  27.085  -5.987  0.00  0.00     0.019 C 
HETATM   13  C   UNK N   1      27.594  27.209  -7.862  0.00  0.00     0.035 C 
HETATM   14  C   UNK N   1      27.102  27.648  -6.515  0.00  0.00    -0.072 C 
HETATM   15  C   UNK N   1      25.679  27.290  -4.471  0.00  0.00     0.017 C 
HETATM   16  C   UNK N   1      27.566  28.809  -6.028  0.00  0.00     0.053 C 
HETATM   17  C   UNK N   1      25.861  28.756  -4.066  0.00  0.00     0.084 C 
HETATM   18  C   UNK N   1      26.956  29.443  -4.839  0.00  0.00     0.149 C 
HETATM   19  O   UNK N   1      27.310  30.562  -4.509  0.00  0.00    -0.293 OA
HETATM   20  O   UNK N   1      25.323  21.071  -7.996  0.00  0.00    -0.297 OA
ENDROOT
TORSDOF 0
ENDMDL
MODEL 4
REMARK VINA RESULT:      -7.0      4.333      7.233
REMARK  0 active torsions:
REMARK  status: ('A' for Active; 'I' for Inactive)
ROOT
HETATM    1  C   UNK N   1      27.977  28.702  -5.353  0.00  0.00     0.021 C 
HETATM    2  C   UNK N   1      27.397  29.940  -4.766  0.00  0.00     0.135 C 
HETATM    3  C   UNK N   1      26.993  27.625  -4.839  0.00  0.00     0.006 C 
HETATM    4  C   UNK N   1      28.079  28.729  -6.883  0.00  0.00     0.018 C 
HETATM    5  C   UNK N   1      29.369  28.502  -4.767  0.00  0.00     0.024 C 
HETATM    6  C   UNK N   1      26.364  29.691  -3.727  0.00  0.00     0.079 C 
HETATM    7  C   UNK N   1      25.780  27.394  -5.806  0.00  0.00    -0.004 C 
HETATM    8  C   UNK N   1      26.489  28.181  -3.502  0.00  0.00     0.013 C 
HETATM    9  C   UNK N   1      27.740  27.360  -7.466  0.00  0.00     0.007 C 
HETATM   10  C   UNK N   1      26.227  27.146  -7.300  0.00  0.00    -0.002 C 
HETATM   11  C   UNK N   1      24.930  26.231  -5.263  0.00  0.00     0.010 C 
HETATM   12  C   UNK N   1      25.717  25.804  -7.899  0.00  0.00     0.019 C 
HETATM   13  C   UNK N   1      25.660  24.898  -5.463  0.00  0.00     0.035 C 
HETATM   14  C   UNK N   1      25.863  24.650  -6.929  0.00  0.00    -0.072 C 
HETATM   15  C   UNK N   1      26.371  25.481  -9.248  0.00  0.00     0.017 C 
HETATM   16  C   UNK N   1      25.731  23.391  -7.374  0.00  0.00     0.053 C 
HETATM   17  C   UNK N   1      25.849  24.173  -9.850  0.00  0.00     0.084 C 
HETATM   18  C   UNK N   1      25.663  23.090  -8.820  0.00  0.00     0.149 C 
HETATM   19  O   UNK N   1      25.403  21.956  -9.183  0.00  0.00    -0.293 OA
HETATM   20  O   UNK N   1      27.828  31.058  -5.005  0.00  0.00    -0.297 OA
ENDROOT
TORSDOF 0
ENDMDL
MODEL 5
REMARK VINA RESULT:      -7.0     24.215     26.315
REMARK  0 active torsions:
REMARK  status: ('A' for Active; 'I' for Inactive)
ROOT
HETATM    1  C   UNK N   1      36.775   8.559  13.860  0.00  0.00     0.021 C 
HETATM    2  C   UNK N   1      36.084   7.475  13.112  0.00  0.00     0.135 C 
HETATM    3  C   UNK N   1      35.772   9.727  13.709  0.00  0.00     0.006 C 
HETATM    4  C   UNK N   1      37.068   8.214  15.325  0.00  0.00     0.018 C 
HETATM    5  C   UNK N   1      38.089   8.865  13.151  0.00  0.00     0.024 C 
HETATM    6  C   UNK N   1      34.938   7.942  12.289  0.00  0.00     0.079 C 
HETATM    7  C   UNK N   1      34.699   9.761  14.853  0.00  0.00    -0.004 C 
HETATM    8  C   UNK N   1      35.086   9.464  12.364  0.00  0.00     0.013 C 
HETATM    9  C   UNK N   1      36.852   9.435  16.215  0.00  0.00     0.007 C 
HETATM   10  C   UNK N   1      35.338   9.691  16.295  0.00  0.00    -0.002 C 
HETATM   11  C   UNK N   1      33.829  11.018  14.675  0.00  0.00     0.010 C 
HETATM   12  C   UNK N   1      34.955  10.883  17.217  0.00  0.00     0.019 C 
HETATM   13  C   UNK N   1      34.623  12.275  15.047  0.00  0.00     0.035 C 
HETATM   14  C   UNK N   1      35.018  12.212  16.493  0.00  0.00    -0.072 C 
HETATM   15  C   UNK N   1      35.783  10.913  18.508  0.00  0.00     0.017 C 
HETATM   16  C   UNK N   1      34.986  13.352  17.200  0.00  0.00     0.053 C 
HETATM   17  C   UNK N   1      35.386  12.072  19.426  0.00  0.00     0.084 C 
HETATM   18  C   UNK N   1      35.110  13.346  18.674  0.00  0.00     0.149 C 
HETATM   19  O   UNK N   1      34.937  14.382  19.292  0.00  0.00    -0.293 OA
HETATM   20  O   UNK N   1      36.502   6.328  13.059  0.00  0.00    -0.297 OA
ENDROOT
TORSDOF 0
ENDMDL
MODEL 6
REMARK VINA RESULT:      -6.8     24.988     28.956
REMARK  0 active torsions:
REMARK  status: ('A' for Active; 'I' for Inactive)
ROOT
HETATM    1  C   UNK N   1      33.538   8.642  20.059  0.00  0.00     0.021 C 
HETATM    2  C   UNK N   1      33.987   7.976  21.311  0.00  0.00     0.135 C 
HETATM    3  C   UNK N   1      33.976  10.103  20.313  0.00  0.00     0.006 C 
HETATM    4  C   UNK N   1      34.155   8.050  18.786  0.00  0.00     0.018 C 
HETATM    5  C   UNK N   1      32.021   8.527  19.975  0.00  0.00     0.024 C 
HETATM    6  C   UNK N   1      34.369   8.918  22.396  0.00  0.00     0.079 C 
HETATM    7  C   UNK N   1      35.437  10.396  19.824  0.00  0.00    -0.004 C 
HETATM    8  C   UNK N   1      33.898  10.263  21.835  0.00  0.00     0.013 C 
HETATM    9  C   UNK N   1      34.484   9.157  17.787  0.00  0.00     0.007 C 
HETATM   10  C   UNK N   1      35.690   9.935  18.336  0.00  0.00    -0.002 C 
HETATM   11  C   UNK N   1      35.730  11.896  20.015  0.00  0.00     0.010 C 
HETATM   12  C   UNK N   1      36.179  11.072  17.394  0.00  0.00     0.019 C 
HETATM   13  C   UNK N   1      34.957  12.726  18.984  0.00  0.00     0.035 C 
HETATM   14  C   UNK N   1      35.409  12.360  17.601  0.00  0.00    -0.072 C 
HETATM   15  C   UNK N   1      36.172  10.653  15.919  0.00  0.00     0.017 C 
HETATM   16  C   UNK N   1      35.512  13.345  16.697  0.00  0.00     0.053 C 
HETATM   17  C   UNK N   1      36.679  11.764  14.995  0.00  0.00     0.084 C 
HETATM   18  C   UNK N   1      36.183  13.128  15.397  0.00  0.00     0.149 C 
HETATM   19  O   UNK N   1      36.382  14.079  14.660  0.00  0.00    -0.293 OA
HETATM   20  O   UNK N   1      33.913   6.769  21.491  0.00  0.00    -0.297 OA
ENDROOT
TORSDOF 0
ENDMDL
MODEL 7
REMARK VINA RESULT:      -6.8     20.879     24.370
REMARK  0 active torsions:
REMARK  status: ('A' for Active; 'I' for Inactive)
ROOT
HETATM    1  C   UNK N   1      36.111  13.079  11.596  0.00  0.00     0.021 C 
HETATM    2  C   UNK N   1      37.239  13.525  10.735  0.00  0.00     0.135 C 
HETATM    3  C   UNK N   1      36.727  11.846  12.297  0.00  0.00     0.006 C 
HETATM    4  C   UNK N   1      35.628  14.145  12.586  0.00  0.00     0.018 C 
HETATM    5  C   UNK N   1      34.951  12.678  10.692  0.00  0.00     0.024 C 
HETATM    6  C   UNK N   1      38.342  12.535  10.620  0.00  0.00     0.079 C 
HETATM    7  C   UNK N   1      37.467  12.209  13.631  0.00  0.00    -0.004 C 
HETATM    8  C   UNK N   1      37.733  11.295  11.280  0.00  0.00     0.013 C 
HETATM    9  C   UNK N   1      35.271  13.506  13.926  0.00  0.00     0.007 C 
HETATM   10  C   UNK N   1      36.584  13.084  14.604  0.00  0.00    -0.002 C 
HETATM   11  C   UNK N   1      37.939  10.907  14.304  0.00  0.00     0.010 C 
HETATM   12  C   UNK N   1      36.386  12.459  16.014  0.00  0.00     0.019 C 
HETATM   13  C   UNK N   1      36.744  10.144  14.887  0.00  0.00     0.035 C 
HETATM   14  C   UNK N   1      36.085  10.976  15.948  0.00  0.00    -0.072 C 
HETATM   15  C   UNK N   1      35.329  13.204  16.839  0.00  0.00     0.017 C 
HETATM   16  C   UNK N   1      35.621  10.346  17.038  0.00  0.00     0.053 C 
HETATM   17  C   UNK N   1      35.153  12.603  18.237  0.00  0.00     0.084 C 
HETATM   18  C   UNK N   1      35.190  11.098  18.235  0.00  0.00     0.149 C 
HETATM   19  O   UNK N   1      34.907  10.491  19.254  0.00  0.00    -0.293 OA
HETATM   20  O   UNK N   1      37.206  14.546  10.064  0.00  0.00    -0.297 OA
ENDROOT
TORSDOF 0
ENDMDL
MODEL 8
REMARK VINA RESULT:      -6.6     11.580     14.682
REMARK  0 active torsions:
REMARK  status: ('A' for Active; 'I' for Inactive)
ROOT
HETATM    1  C   UNK N   1      32.064  16.655   6.142  0.00  0.00     0.021 C 
HETATM    2  C   UNK N   1      33.041  17.585   6.769  0.00  0.00     0.135 C 
HETATM    3  C   UNK N   1      30.875  16.744   7.126  0.00  0.00     0.006 C 
HETATM    4  C   UNK N   1      31.677  17.036   4.708  0.00  0.00     0.018 C 
HETATM    5  C   UNK N   1      32.673  15.257   6.136  0.00  0.00     0.024 C 
HETATM    6  C   UNK N   1      32.691  17.985   8.158  0.00  0.00     0.079 C 
HETATM    7  C   UNK N   1      29.865  17.887   6.762  0.00  0.00    -0.004 C 
HETATM    8  C   UNK N   1      31.528  17.043   8.481  0.00  0.00     0.013 C 
HETATM    9  C   UNK N   1      30.192  16.778   4.469  0.00  0.00     0.007 C 
HETATM   10  C   UNK N   1      29.404  17.839   5.253  0.00  0.00    -0.002 C 
HETATM   11  C   UNK N   1      28.669  17.816   7.728  0.00  0.00     0.010 C 
HETATM   12  C   UNK N   1      27.863  17.737   5.065  0.00  0.00     0.019 C 
HETATM   13  C   UNK N   1      27.791  16.602   7.402  0.00  0.00     0.035 C 
HETATM   14  C   UNK N   1      27.233  16.741   6.017  0.00  0.00    -0.072 C 
HETATM   15  C   UNK N   1      27.470  17.441   3.612  0.00  0.00     0.017 C 
HETATM   16  C   UNK N   1      25.972  16.333   5.808  0.00  0.00     0.053 C 
HETATM   17  C   UNK N   1      25.952  17.367   3.423  0.00  0.00     0.084 C 
HETATM   18  C   UNK N   1      25.257  16.658   4.555  0.00  0.00     0.149 C 
HETATM   19  O   UNK N   1      24.071  16.392   4.457  0.00  0.00    -0.293 OA
HETATM   20  O   UNK N   1      34.108  17.882   6.254  0.00  0.00    -0.297 OA
ENDROOT
TORSDOF 0
ENDMDL
MODEL 9
REMARK VINA RESULT:      -6.5     21.927     25.688
REMARK  0 active torsions:
REMARK  status: ('A' for Active; 'I' for Inactive)
ROOT
HETATM    1  C   UNK N   1      36.261  11.448  12.903  0.00  0.00     0.021 C 
HETATM    2  C   UNK N   1      35.467  11.975  11.760  0.00  0.00     0.135 C 
HETATM    3  C   UNK N   1      35.891  12.447  14.023  0.00  0.00     0.006 C 
HETATM    4  C   UNK N   1      35.932   9.996  13.270  0.00  0.00     0.018 C 
HETATM    5  C   UNK N   1      37.738  11.546  12.542  0.00  0.00     0.024 C 
HETATM    6  C   UNK N   1      34.905  13.332  11.988  0.00  0.00     0.079 C 
HETATM    7  C   UNK N   1      34.622  12.010  14.837  0.00  0.00    -0.004 C 
HETATM    8  C   UNK N   1      35.603  13.758  13.282  0.00  0.00     0.013 C 
HETATM    9  C   UNK N   1      35.948   9.811  14.785  0.00  0.00     0.007 C 
HETATM   10  C   UNK N   1      34.709  10.521  15.353  0.00  0.00    -0.002 C 
HETATM   11  C   UNK N   1      34.410  13.005  15.993  0.00  0.00     0.010 C 
HETATM   12  C   UNK N   1      34.558  10.376  16.894  0.00  0.00     0.019 C 
HETATM   13  C   UNK N   1      35.477  12.800  17.075  0.00  0.00     0.035 C 
HETATM   14  C   UNK N   1      35.352  11.421  17.650  0.00  0.00    -0.072 C 
HETATM   15  C   UNK N   1      34.895   8.961  17.383  0.00  0.00     0.017 C 
HETATM   16  C   UNK N   1      35.553  11.273  18.969  0.00  0.00     0.053 C 
HETATM   17  C   UNK N   1      34.721   8.812  18.897  0.00  0.00     0.084 C 
HETATM   18  C   UNK N   1      35.208  10.014  19.662  0.00  0.00     0.149 C 
HETATM   19  O   UNK N   1      35.272   9.964  20.879  0.00  0.00    -0.293 OA
HETATM   20  O   UNK N   1      35.399  11.413  10.677  0.00  0.00    -0.297 OA
ENDROOT
TORSDOF 0
ENDMDL
