MODEL 1
REMARK VINA RESULT:      -6.8      0.000      0.000
REMARK  6 active torsions:
REMARK  status: ('A' for Active; 'I' for Inactive)
REMARK    1  A    between atoms: N_3  and  C_11 
REMARK    2  A    between atoms: N_4  and  C_5 
REMARK    3  A    between atoms: N_4  and  C_13 
REMARK       I    between atoms: N_4  and  C_14 
REMARK    4  A    between atoms: C_11  and  C_12 
REMARK    5  A    between atoms: C_12  and  C_16 
REMARK    6  A    between atoms: C_14  and  C_15 
ROOT
HETATM    1  N   UNK N   1      34.562  14.815  10.753  0.00  0.00     0.089 N 
HETATM    2  C   UNK N   1      33.801  15.975   8.542  0.00  0.00     0.100 C 
HETATM    3  C   UNK N   1      34.303  14.529   8.313  0.00  0.00     0.033 C 
HETATM    4  C   UNK N   1      34.871  16.791   9.273  0.00  0.00     0.056 C 
HETATM    5  C   UNK N   1      34.969  14.001   9.601  0.00  0.00     0.278 C 
HETATM    6  C   UNK N   1      35.135  16.166  10.652  0.00  0.00     0.274 C 
HETATM    7  C   UNK N   1      33.150  13.608   7.959  0.00  0.00     0.014 C 
ENDROOT
BRANCH   2   8
HETATM    8  N   UNK N   1      33.148  16.748   7.472  0.00  0.00    -0.313 N 
HETATM    9  C   UNK N   1      33.781  16.993   6.259  0.00  0.00     0.224 C 
HETATM   10  O   UNK N   1      34.933  16.618   6.082  0.00  0.00    -0.273 OA
BRANCH   8  11
HETATM   11  C   UNK N   1      31.808  17.230   7.774  0.00  0.00     0.037 A 
HETATM   12  C   UNK N   1      31.553  18.242   8.716  0.00  0.00     0.030 A 
HETATM   13  C   UNK N   1      30.246  18.638   9.016  0.00  0.00     0.002 A 
HETATM   14  C   UNK N   1      29.165  18.027   8.382  0.00  0.00     0.000 A 
HETATM   15  C   UNK N   1      29.389  17.023   7.443  0.00  0.00     0.002 A 
HETATM   16  C   UNK N   1      30.693  16.628   7.145  0.00  0.00     0.030 A 
ENDBRANCH   8  11
BRANCH   9  17
HETATM   17  C   UNK N   1      33.090  17.701   5.116  0.00  0.00     0.099 C 
HETATM   18  C   UNK N   1      32.773  16.799   3.933  0.00  0.00     0.014 C 
ENDBRANCH   9  17
ENDBRANCH   2   8
BRANCH   1  19
HETATM   19  C   UNK N   1      34.894  14.180  12.027  0.00  0.00     0.277 C 
BRANCH  19  20
HETATM   20  C   UNK N   1      34.977  12.660  11.945  0.00  0.00     0.076 C 
BRANCH  20  21
HETATM   21  C   UNK N   1      34.745  12.076  13.291  0.00  0.00    -0.016 A 
HETATM   22  S   UNK N   1      35.218  12.720  14.735  0.00  0.00    -0.106 SA
HETATM   23  C   UNK N   1      34.643  11.557  15.767  0.00  0.00     0.050 A 
HETATM   24  C   UNK N   1      34.035  10.588  14.954  0.00  0.00     0.008 A 
HETATM   25  C   UNK N   1      34.090  10.880  13.561  0.00  0.00     0.015 A 
ENDBRANCH  20  21
ENDBRANCH  19  20
ENDBRANCH   1  19
TORSDOF 6
ENDMDL
MODEL 2
REMARK VINA RESULT:      -6.7      1.512      2.125
REMARK  6 active torsions:
REMARK  status: ('A' for Active; 'I' for Inactive)
REMARK    1  A    between atoms: N_3  and  C_11 
REMARK    2  A    between atoms: N_4  and  C_5 
REMARK    3  A    between atoms: N_4  and  C_13 
REMARK       I    between atoms: N_4  and  C_14 
REMARK    4  A    between atoms: C_11  and  C_12 
REMARK    5  A    between atoms: C_12  and  C_16 
REMARK    6  A    between atoms: C_14  and  C_15 
ROOT
HETATM    1  N   UNK N   1      34.736  13.661   9.755  0.00  0.00     0.089 N 
HETATM    2  C   UNK N   1      33.548  15.506   8.343  0.00  0.00     0.100 C 
HETATM    3  C   UNK N   1      33.877  15.976   9.780  0.00  0.00     0.033 C 
HETATM    4  C   UNK N   1      32.732  14.212   8.389  0.00  0.00     0.056 C 
HETATM    5  C   UNK N   1      34.336  14.771  10.628  0.00  0.00     0.278 C 
HETATM    6  C   UNK N   1      33.563  13.108   9.061  0.00  0.00     0.274 C 
HETATM    7  C   UNK N   1      34.990  17.006   9.770  0.00  0.00     0.014 C 
ENDROOT
BRANCH   2   8
HETATM    8  N   UNK N   1      33.053  16.439   7.316  0.00  0.00    -0.313 N 
HETATM    9  C   UNK N   1      33.791  16.726   6.174  0.00  0.00     0.224 C 
HETATM   10  O   UNK N   1      34.909  16.249   6.031  0.00  0.00    -0.273 OA
BRANCH   8  11
HETATM   11  C   UNK N   1      31.749  17.029   7.582  0.00  0.00     0.037 A 
HETATM   12  C   UNK N   1      31.541  18.014   8.564  0.00  0.00     0.030 A 
HETATM   13  C   UNK N   1      30.263  18.517   8.826  0.00  0.00     0.002 A 
HETATM   14  C   UNK N   1      29.163  18.042   8.112  0.00  0.00     0.000 A 
HETATM   15  C   UNK N   1      29.340  17.068   7.133  0.00  0.00     0.002 A 
HETATM   16  C   UNK N   1      30.616  16.567   6.873  0.00  0.00     0.030 A 
ENDBRANCH   8  11
BRANCH   9  17
HETATM   17  C   UNK N   1      33.256  17.605   5.066  0.00  0.00     0.099 C 
HETATM   18  C   UNK N   1      32.878  16.845   3.804  0.00  0.00     0.014 C 
ENDBRANCH   9  17
ENDBRANCH   2   8
BRANCH   1  19
HETATM   19  C   UNK N   1      35.476  12.626  10.476  0.00  0.00     0.277 C 
BRANCH  19  20
HETATM   20  C   UNK N   1      36.806  13.111  11.041  0.00  0.00     0.076 C 
BRANCH  20  21
HETATM   21  C   UNK N   1      36.818  12.927  12.514  0.00  0.00    -0.016 A 
HETATM   22  S   UNK N   1      37.241  11.555  13.328  0.00  0.00    -0.106 SA
HETATM   23  C   UNK N   1      37.011  12.067  14.888  0.00  0.00     0.050 A 
HETATM   24  C   UNK N   1      36.576  13.398  14.795  0.00  0.00     0.008 A 
HETATM   25  C   UNK N   1      36.468  13.883  13.460  0.00  0.00     0.015 A 
ENDBRANCH  20  21
ENDBRANCH  19  20
ENDBRANCH   1  19
TORSDOF 6
ENDMDL
MODEL 3
REMARK VINA RESULT:      -6.5      1.721      3.335
REMARK  6 active torsions:
REMARK  status: ('A' for Active; 'I' for Inactive)
REMARK    1  A    between atoms: N_3  and  C_11 
REMARK    2  A    between atoms: N_4  and  C_5 
REMARK    3  A    between atoms: N_4  and  C_13 
REMARK       I    between atoms: N_4  and  C_14 
REMARK    4  A    between atoms: C_11  and  C_12 
REMARK    5  A    between atoms: C_12  and  C_16 
REMARK    6  A    between atoms: C_14  and  C_15 
ROOT
HETATM    1  N   UNK N   1      34.785  15.866  10.105  0.00  0.00     0.089 N 
HETATM    2  C   UNK N   1      33.057  16.216   8.181  0.00  0.00     0.100 C 
HETATM    3  C   UNK N   1      33.855  14.898   8.032  0.00  0.00     0.033 C 
HETATM    4  C   UNK N   1      34.021  17.399   8.302  0.00  0.00     0.056 C 
HETATM    5  C   UNK N   1      35.020  14.880   9.043  0.00  0.00     0.278 C 
HETATM    6  C   UNK N   1      34.880  17.230   9.564  0.00  0.00     0.274 C 
HETATM    7  C   UNK N   1      32.968  13.697   8.303  0.00  0.00     0.014 C 
ENDROOT
BRANCH   2   8
HETATM    8  N   UNK N   1      31.903  16.525   7.320  0.00  0.00    -0.313 N 
HETATM    9  C   UNK N   1      30.673  16.892   7.853  0.00  0.00     0.224 C 
HETATM   10  O   UNK N   1      30.509  16.904   9.066  0.00  0.00    -0.273 OA
BRANCH   8  11
HETATM   11  C   UNK N   1      32.143  16.421   5.887  0.00  0.00     0.037 A 
HETATM   12  C   UNK N   1      32.676  17.473   5.123  0.00  0.00     0.030 A 
HETATM   13  C   UNK N   1      32.840  17.353   3.740  0.00  0.00     0.002 A 
HETATM   14  C   UNK N   1      32.471  16.174   3.091  0.00  0.00     0.000 A 
HETATM   15  C   UNK N   1      31.943  15.115   3.824  0.00  0.00     0.002 A 
HETATM   16  C   UNK N   1      31.779  15.238   5.204  0.00  0.00     0.030 A 
ENDBRANCH   8  11
BRANCH   9  17
HETATM   17  C   UNK N   1      29.507  17.305   6.983  0.00  0.00     0.099 C 
HETATM   18  C   UNK N   1      28.269  17.714   7.767  0.00  0.00     0.014 C 
ENDBRANCH   9  17
ENDBRANCH   2   8
BRANCH   1  19
HETATM   19  C   UNK N   1      35.676  15.674  11.249  0.00  0.00     0.277 C 
BRANCH  19  20
HETATM   20  C   UNK N   1      36.212  14.252  11.369  0.00  0.00     0.076 C 
BRANCH  20  21
HETATM   21  C   UNK N   1      35.953  13.737  12.738  0.00  0.00    -0.016 A 
HETATM   22  S   UNK N   1      35.050  12.414  13.134  0.00  0.00    -0.106 SA
HETATM   23  C   UNK N   1      35.194  12.455  14.785  0.00  0.00     0.050 A 
HETATM   24  C   UNK N   1      35.999  13.568  15.073  0.00  0.00     0.008 A 
HETATM   25  C   UNK N   1      36.428  14.289  13.922  0.00  0.00     0.015 A 
ENDBRANCH  20  21
ENDBRANCH  19  20
ENDBRANCH   1  19
TORSDOF 6
ENDMDL
MODEL 4
REMARK VINA RESULT:      -6.4      6.583     11.366
REMARK  6 active torsions:
REMARK  status: ('A' for Active; 'I' for Inactive)
REMARK    1  A    between atoms: N_3  and  C_11 
REMARK    2  A    between atoms: N_4  and  C_5 
REMARK    3  A    between atoms: N_4  and  C_13 
REMARK       I    between atoms: N_4  and  C_14 
REMARK    4  A    between atoms: C_11  and  C_12 
REMARK    5  A    between atoms: C_12  and  C_16 
REMARK    6  A    between atoms: C_14  and  C_15 
ROOT
HETATM    1  N   UNK N   1      25.472  17.873   4.790  0.00  0.00     0.089 N 
HETATM    2  C   UNK N   1      27.977  17.381   5.333  0.00  0.00     0.100 C 
HETATM    3  C   UNK N   1      27.807  18.410   4.190  0.00  0.00     0.033 C 
HETATM    4  C   UNK N   1      27.204  16.101   5.003  0.00  0.00     0.056 C 
HETATM    5  C   UNK N   1      26.328  18.459   3.751  0.00  0.00     0.278 C 
HETATM    6  C   UNK N   1      25.707  16.425   4.887  0.00  0.00     0.274 C 
HETATM    7  C   UNK N   1      28.216  19.797   4.648  0.00  0.00     0.014 C 
ENDROOT
BRANCH   2   8
HETATM    8  N   UNK N   1      29.292  17.097   5.932  0.00  0.00    -0.313 N 
HETATM    9  C   UNK N   1      29.494  17.147   7.306  0.00  0.00     0.224 C 
HETATM   10  O   UNK N   1      28.583  17.493   8.048  0.00  0.00    -0.273 OA
BRANCH   8  11
HETATM   11  C   UNK N   1      30.352  16.765   4.990  0.00  0.00     0.037 A 
HETATM   12  C   UNK N   1      31.311  17.697   4.559  0.00  0.00     0.030 A 
HETATM   13  C   UNK N   1      32.281  17.352   3.612  0.00  0.00     0.002 A 
HETATM   14  C   UNK N   1      32.308  16.066   3.073  0.00  0.00     0.000 A 
HETATM   15  C   UNK N   1      31.370  15.123   3.484  0.00  0.00     0.002 A 
HETATM   16  C   UNK N   1      30.403  15.468   4.429  0.00  0.00     0.030 A 
ENDBRANCH   8  11
BRANCH   9  17
HETATM   17  C   UNK N   1      30.811  16.765   7.943  0.00  0.00     0.099 C 
HETATM   18  C   UNK N   1      31.616  17.952   8.450  0.00  0.00     0.014 C 
ENDBRANCH   9  17
ENDBRANCH   2   8
BRANCH   1  19
HETATM   19  C   UNK N   1      24.057  18.179   4.582  0.00  0.00     0.277 C 
BRANCH  19  20
HETATM   20  C   UNK N   1      23.823  19.454   3.778  0.00  0.00     0.076 C 
BRANCH  20  21
HETATM   21  C   UNK N   1      22.407  19.507   3.332  0.00  0.00    -0.016 A 
HETATM   22  S   UNK N   1      21.210  18.446   3.739  0.00  0.00    -0.106 SA
HETATM   23  C   UNK N   1      19.946  19.108   2.895  0.00  0.00     0.050 A 
HETATM   24  C   UNK N   1      20.467  20.236   2.243  0.00  0.00     0.008 A 
HETATM   25  C   UNK N   1      21.852  20.463   2.490  0.00  0.00     0.015 A 
ENDBRANCH  20  21
ENDBRANCH  19  20
ENDBRANCH   1  19
TORSDOF 6
ENDMDL
MODEL 5
REMARK VINA RESULT:      -6.4     15.028     17.945
REMARK  6 active torsions:
REMARK  status: ('A' for Active; 'I' for Inactive)
REMARK    1  A    between atoms: N_3  and  C_11 
REMARK    2  A    between atoms: N_4  and  C_5 
REMARK    3  A    between atoms: N_4  and  C_13 
REMARK       I    between atoms: N_4  and  C_14 
REMARK    4  A    between atoms: C_11  and  C_12 
REMARK    5  A    between atoms: C_12  and  C_16 
REMARK    6  A    between atoms: C_14  and  C_15 
ROOT
HETATM    1  N   UNK N   1      29.931  23.204  -3.384  0.00  0.00     0.089 N 
HETATM    2  C   UNK N   1      28.352  24.920  -4.554  0.00  0.00     0.100 C 
HETATM    3  C   UNK N   1      29.768  25.491  -4.301  0.00  0.00     0.033 C 
HETATM    4  C   UNK N   1      27.755  24.401  -3.243  0.00  0.00     0.056 C 
HETATM    5  C   UNK N   1      30.559  24.531  -3.388  0.00  0.00     0.278 C 
HETATM    6  C   UNK N   1      28.628  23.258  -2.703  0.00  0.00     0.274 C 
HETATM    7  C   UNK N   1      30.527  25.646  -5.605  0.00  0.00     0.014 C 
ENDROOT
BRANCH   2   8
HETATM    8  N   UNK N   1      27.359  25.642  -5.368  0.00  0.00    -0.313 N 
HETATM    9  C   UNK N   1      26.678  25.020  -6.408  0.00  0.00     0.224 C 
HETATM   10  O   UNK N   1      26.941  23.863  -6.709  0.00  0.00    -0.273 OA
BRANCH   8  11
HETATM   11  C   UNK N   1      27.145  27.036  -5.008  0.00  0.00     0.037 A 
HETATM   12  C   UNK N   1      26.291  27.433  -3.964  0.00  0.00     0.030 A 
HETATM   13  C   UNK N   1      26.070  28.786  -3.684  0.00  0.00     0.002 A 
HETATM   14  C   UNK N   1      26.699  29.770  -4.446  0.00  0.00     0.000 A 
HETATM   15  C   UNK N   1      27.552  29.405  -5.484  0.00  0.00     0.002 A 
HETATM   16  C   UNK N   1      27.770  28.055  -5.763  0.00  0.00     0.030 A 
ENDBRANCH   8  11
BRANCH   9  17
HETATM   17  C   UNK N   1      25.588  25.717  -7.191  0.00  0.00     0.099 C 
HETATM   18  C   UNK N   1      26.022  26.181  -8.573  0.00  0.00     0.014 C 
ENDBRANCH   9  17
ENDBRANCH   2   8
BRANCH   1  19
HETATM   19  C   UNK N   1      30.801  22.180  -2.807  0.00  0.00     0.277 C 
BRANCH  19  20
HETATM   20  C   UNK N   1      30.954  20.946  -3.689  0.00  0.00     0.076 C 
BRANCH  20  21
HETATM   21  C   UNK N   1      32.385  20.765  -4.046  0.00  0.00    -0.016 A 
HETATM   22  S   UNK N   1      32.977  20.275  -5.507  0.00  0.00    -0.106 SA
HETATM   23  C   UNK N   1      34.601  20.294  -5.176  0.00  0.00     0.050 A 
HETATM   24  C   UNK N   1      34.717  20.709  -3.840  0.00  0.00     0.008 A 
HETATM   25  C   UNK N   1      33.470  20.977  -3.204  0.00  0.00     0.015 A 
ENDBRANCH  20  21
ENDBRANCH  19  20
ENDBRANCH   1  19
TORSDOF 6
ENDMDL
MODEL 6
REMARK VINA RESULT:      -6.4      3.350      5.236
REMARK  6 active torsions:
REMARK  status: ('A' for Active; 'I' for Inactive)
REMARK    1  A    between atoms: N_3  and  C_11 
REMARK    2  A    between atoms: N_4  and  C_5 
REMARK    3  A    between atoms: N_4  and  C_13 
REMARK       I    between atoms: N_4  and  C_14 
REMARK    4  A    between atoms: C_11  and  C_12 
REMARK    5  A    between atoms: C_12  and  C_16 
REMARK    6  A    between atoms: C_14  and  C_15 
ROOT
HETATM    1  N   UNK N   1      33.177  16.444   6.541  0.00  0.00     0.089 N 
HETATM    2  C   UNK N   1      30.677  16.933   5.973  0.00  0.00     0.100 C 
HETATM    3  C   UNK N   1      31.652  17.526   4.927  0.00  0.00     0.033 C 
HETATM    4  C   UNK N   1      31.049  17.427   7.374  0.00  0.00     0.056 C 
HETATM    5  C   UNK N   1      33.100  17.425   5.452  0.00  0.00     0.278 C 
HETATM    6  C   UNK N   1      32.463  16.941   7.727  0.00  0.00     0.274 C 
HETATM    7  C   UNK N   1      31.564  16.766   3.617  0.00  0.00     0.014 C 
ENDROOT
BRANCH   2   8
HETATM    8  N   UNK N   1      29.220  16.922   5.757  0.00  0.00    -0.313 N 
HETATM    9  C   UNK N   1      28.520  15.737   5.570  0.00  0.00     0.224 C 
HETATM   10  O   UNK N   1      29.119  14.671   5.519  0.00  0.00    -0.273 OA
BRANCH   8  11
HETATM   11  C   UNK N   1      28.576  18.228   5.756  0.00  0.00     0.037 A 
HETATM   12  C   UNK N   1      28.139  18.866   6.930  0.00  0.00     0.030 A 
HETATM   13  C   UNK N   1      27.476  20.096   6.881  0.00  0.00     0.002 A 
HETATM   14  C   UNK N   1      27.233  20.713   5.654  0.00  0.00     0.000 A 
HETATM   15  C   UNK N   1      27.656  20.104   4.476  0.00  0.00     0.002 A 
HETATM   16  C   UNK N   1      28.317  18.876   4.526  0.00  0.00     0.030 A 
ENDBRANCH   8  11
BRANCH   9  17
HETATM   17  C   UNK N   1      27.013  15.700   5.443  0.00  0.00     0.099 C 
HETATM   18  C   UNK N   1      26.287  15.504   6.765  0.00  0.00     0.014 C 
ENDBRANCH   9  17
ENDBRANCH   2   8
BRANCH   1  19
HETATM   19  C   UNK N   1      34.555  16.071   6.855  0.00  0.00     0.277 C 
BRANCH  19  20
HETATM   20  C   UNK N   1      34.687  14.670   7.442  0.00  0.00     0.076 C 
BRANCH  20  21
HETATM   21  C   UNK N   1      35.508  14.725   8.679  0.00  0.00    -0.016 A 
HETATM   22  S   UNK N   1      35.292  15.748   9.956  0.00  0.00    -0.106 SA
HETATM   23  C   UNK N   1      36.541  15.256  10.929  0.00  0.00     0.050 A 
HETATM   24  C   UNK N   1      37.187  14.223  10.233  0.00  0.00     0.008 A 
HETATM   25  C   UNK N   1      36.605  13.922   8.968  0.00  0.00     0.015 A 
ENDBRANCH  20  21
ENDBRANCH  19  20
ENDBRANCH   1  19
TORSDOF 6
ENDMDL
MODEL 7
REMARK VINA RESULT:      -6.4     10.042     13.715
REMARK  6 active torsions:
REMARK  status: ('A' for Active; 'I' for Inactive)
REMARK    1  A    between atoms: N_3  and  C_11 
REMARK    2  A    between atoms: N_4  and  C_5 
REMARK    3  A    between atoms: N_4  and  C_13 
REMARK       I    between atoms: N_4  and  C_14 
REMARK    4  A    between atoms: C_11  and  C_12 
REMARK    5  A    between atoms: C_12  and  C_16 
REMARK    6  A    between atoms: C_14  and  C_15 
ROOT
HETATM    1  N   UNK N   1      21.966  15.911   6.785  0.00  0.00     0.089 N 
HETATM    2  C   UNK N   1      22.754  13.469   7.259  0.00  0.00     0.100 C 
HETATM    3  C   UNK N   1      23.740  14.249   6.356  0.00  0.00     0.033 C 
HETATM    4  C   UNK N   1      21.349  13.506   6.652  0.00  0.00     0.056 C 
HETATM    5  C   UNK N   1      23.096  15.578   5.910  0.00  0.00     0.278 C 
HETATM    6  C   UNK N   1      20.863  14.961   6.579  0.00  0.00     0.274 C 
HETATM    7  C   UNK N   1      25.021  14.564   7.104  0.00  0.00     0.014 C 
ENDROOT
BRANCH   2   8
HETATM    8  N   UNK N   1      23.087  12.144   7.808  0.00  0.00    -0.313 N 
HETATM    9  C   UNK N   1      23.319  11.050   6.984  0.00  0.00     0.224 C 
HETATM   10  O   UNK N   1      23.186  11.156   5.772  0.00  0.00    -0.273 OA
BRANCH   8  11
HETATM   11  C   UNK N   1      23.157  12.067   9.261  0.00  0.00     0.037 A 
HETATM   12  C   UNK N   1      22.014  12.011  10.079  0.00  0.00     0.030 A 
HETATM   13  C   UNK N   1      22.123  11.992  11.473  0.00  0.00     0.002 A 
HETATM   14  C   UNK N   1      23.378  12.032  12.079  0.00  0.00     0.000 A 
HETATM   15  C   UNK N   1      24.526  12.086  11.292  0.00  0.00     0.002 A 
HETATM   16  C   UNK N   1      24.416  12.105   9.901  0.00  0.00     0.030 A 
ENDBRANCH   8  11
BRANCH   9  17
HETATM   17  C   UNK N   1      23.755   9.707   7.527  0.00  0.00     0.099 C 
HETATM   18  C   UNK N   1      24.341   8.778   6.474  0.00  0.00     0.014 C 
ENDBRANCH   9  17
ENDBRANCH   2   8
BRANCH   1  19
HETATM   19  C   UNK N   1      21.526  17.296   6.621  0.00  0.00     0.277 C 
BRANCH  19  20
HETATM   20  C   UNK N   1      22.227  18.025   5.480  0.00  0.00     0.076 C 
BRANCH  20  21
HETATM   21  C   UNK N   1      21.239  18.363   4.424  0.00  0.00    -0.016 A 
HETATM   22  S   UNK N   1      20.134  17.339   3.750  0.00  0.00    -0.106 SA
HETATM   23  C   UNK N   1      19.406  18.372   2.677  0.00  0.00     0.050 A 
HETATM   24  C   UNK N   1      20.050  19.609   2.837  0.00  0.00     0.008 A 
HETATM   25  C   UNK N   1      21.080  19.606   3.822  0.00  0.00     0.015 A 
ENDBRANCH  20  21
ENDBRANCH  19  20
ENDBRANCH   1  19
TORSDOF 6
ENDMDL
MODEL 8
REMARK VINA RESULT:      -6.3      6.053     10.833
REMARK  6 active torsions:
REMARK  status: ('A' for Active; 'I' for Inactive)
REMARK    1  A    between atoms: N_3  and  C_11 
REMARK    2  A    between atoms: N_4  and  C_5 
REMARK    3  A    between atoms: N_4  and  C_13 
REMARK       I    between atoms: N_4  and  C_14 
REMARK    4  A    between atoms: C_11  and  C_12 
REMARK    5  A    between atoms: C_12  and  C_16 
REMARK    6  A    between atoms: C_14  and  C_15 
ROOT
HETATM    1  N   UNK N   1      26.556  18.262   4.018  0.00  0.00     0.089 N 
HETATM    2  C   UNK N   1      28.633  17.612   5.458  0.00  0.00     0.100 C 
HETATM    3  C   UNK N   1      27.321  16.988   5.991  0.00  0.00     0.033 C 
HETATM    4  C   UNK N   1      28.479  19.130   5.336  0.00  0.00     0.056 C 
HETATM    5  C   UNK N   1      26.115  17.613   5.259  0.00  0.00     0.278 C 
HETATM    6  C   UNK N   1      27.367  19.450   4.325  0.00  0.00     0.274 C 
HETATM    7  C   UNK N   1      27.301  15.490   5.754  0.00  0.00     0.014 C 
ENDROOT
BRANCH   2   8
HETATM    8  N   UNK N   1      29.949  17.229   5.997  0.00  0.00    -0.313 N 
HETATM    9  C   UNK N   1      30.231  17.307   7.356  0.00  0.00     0.224 C 
HETATM   10  O   UNK N   1      29.399  17.762   8.130  0.00  0.00    -0.273 OA
BRANCH   8  11
HETATM   11  C   UNK N   1      30.920  16.767   5.015  0.00  0.00     0.037 A 
HETATM   12  C   UNK N   1      31.841  17.625   4.389  0.00  0.00     0.030 A 
HETATM   13  C   UNK N   1      32.721  17.152   3.411  0.00  0.00     0.002 A 
HETATM   14  C   UNK N   1      32.695  15.809   3.036  0.00  0.00     0.000 A 
HETATM   15  C   UNK N   1      31.794  14.937   3.641  0.00  0.00     0.002 A 
HETATM   16  C   UNK N   1      30.916  15.411   4.617  0.00  0.00     0.030 A 
ENDBRANCH   8  11
BRANCH   9  17
HETATM   17  C   UNK N   1      31.542  16.828   7.938  0.00  0.00     0.099 C 
HETATM   18  C   UNK N   1      32.534  17.945   8.223  0.00  0.00     0.014 C 
ENDBRANCH   9  17
ENDBRANCH   2   8
BRANCH   1  19
HETATM   19  C   UNK N   1      25.438  18.584   3.132  0.00  0.00     0.277 C 
BRANCH  19  20
HETATM   20  C   UNK N   1      24.739  19.892   3.485  0.00  0.00     0.076 C 
BRANCH  20  21
HETATM   21  C   UNK N   1      23.268  19.693   3.457  0.00  0.00    -0.016 A 
HETATM   22  S   UNK N   1      22.422  18.514   4.243  0.00  0.00    -0.106 SA
HETATM   23  C   UNK N   1      20.883  18.896   3.758  0.00  0.00     0.050 A 
HETATM   24  C   UNK N   1      21.011  20.018   2.924  0.00  0.00     0.008 A 
HETATM   25  C   UNK N   1      22.352  20.468   2.756  0.00  0.00     0.015 A 
ENDBRANCH  20  21
ENDBRANCH  19  20
ENDBRANCH   1  19
TORSDOF 6
ENDMDL
MODEL 9
REMARK VINA RESULT:      -6.2     15.522     18.598
REMARK  6 active torsions:
REMARK  status: ('A' for Active; 'I' for Inactive)
REMARK    1  A    between atoms: N_3  and  C_11 
REMARK    2  A    between atoms: N_4  and  C_5 
REMARK    3  A    between atoms: N_4  and  C_13 
REMARK       I    between atoms: N_4  and  C_14 
REMARK    4  A    between atoms: C_11  and  C_12 
REMARK    5  A    between atoms: C_12  and  C_16 
REMARK    6  A    between atoms: C_14  and  C_15 
ROOT
HETATM    1  N   UNK N   1      29.883  23.223  -3.467  0.00  0.00     0.089 N 
HETATM    2  C   UNK N   1      28.293  24.902  -4.676  0.00  0.00     0.100 C 
HETATM    3  C   UNK N   1      29.698  25.496  -4.413  0.00  0.00     0.033 C 
HETATM    4  C   UNK N   1      27.689  24.389  -3.366  0.00  0.00     0.056 C 
HETATM    5  C   UNK N   1      30.492  24.558  -3.479  0.00  0.00     0.278 C 
HETATM    6  C   UNK N   1      28.572  23.265  -2.803  0.00  0.00     0.274 C 
HETATM    7  C   UNK N   1      30.471  25.648  -5.709  0.00  0.00     0.014 C 
ENDROOT
BRANCH   2   8
HETATM    8  N   UNK N   1      27.300  25.600  -5.510  0.00  0.00    -0.313 N 
HETATM    9  C   UNK N   1      26.653  24.961  -6.561  0.00  0.00     0.224 C 
HETATM   10  O   UNK N   1      26.948  23.809  -6.855  0.00  0.00    -0.273 OA
BRANCH   8  11
HETATM   11  C   UNK N   1      27.049  26.989  -5.157  0.00  0.00     0.037 A 
HETATM   12  C   UNK N   1      27.690  28.068  -5.792  0.00  0.00     0.030 A 
HETATM   13  C   UNK N   1      27.461  29.386  -5.386  0.00  0.00     0.002 A 
HETATM   14  C   UNK N   1      26.587  29.654  -4.333  0.00  0.00     0.000 A 
HETATM   15  C   UNK N   1      25.938  28.605  -3.688  0.00  0.00     0.002 A 
HETATM   16  C   UNK N   1      26.167  27.289  -4.093  0.00  0.00     0.030 A 
ENDBRANCH   8  11
BRANCH   9  17
HETATM   17  C   UNK N   1      25.563  25.632  -7.366  0.00  0.00     0.099 C 
HETATM   18  C   UNK N   1      26.032  26.173  -8.708  0.00  0.00     0.014 C 
ENDBRANCH   9  17
ENDBRANCH   2   8
BRANCH   1  19
HETATM   19  C   UNK N   1      30.761  22.218  -2.868  0.00  0.00     0.277 C 
BRANCH  19  20
HETATM   20  C   UNK N   1      30.867  20.937  -3.688  0.00  0.00     0.076 C 
BRANCH  20  21
HETATM   21  C   UNK N   1      30.841  21.269  -5.135  0.00  0.00    -0.016 A 
HETATM   22  S   UNK N   1      32.094  21.869  -6.026  0.00  0.00    -0.106 SA
HETATM   23  C   UNK N   1      31.356  21.996  -7.505  0.00  0.00     0.050 A 
HETATM   24  C   UNK N   1      30.041  21.545  -7.319  0.00  0.00     0.008 A 
HETATM   25  C   UNK N   1      29.751  21.134  -5.986  0.00  0.00     0.015 A 
ENDBRANCH  20  21
ENDBRANCH  19  20
ENDBRANCH   1  19
TORSDOF 6
ENDMDL
