REMARK  6 active torsions:
REMARK  status: ('A' for Active; 'I' for Inactive)
REMARK    1  A    between atoms: O_1  and  C_18 
REMARK    2  A    between atoms: N_2  and  C_4 
REMARK    3  A    between atoms: N_2  and  C_5 
REMARK    4  A    between atoms: N_2  and  C_6 
REMARK    5  A    between atoms: C_4  and  C_7 
REMARK    6  A    between atoms: C_7  and  C_8 
ROOT
HETATM    1  N   UNK N   1       5.349  -3.637   0.027  0.00  0.00    -0.365 N 
HETATM    2  C   UNK N   1       5.811  -1.470   0.377  0.00  0.00    -0.029 A 
HETATM    3  C   UNK N   1       4.460  -1.594   0.187  0.00  0.00     0.001 A 
HETATM    4  C   UNK N   1       4.211  -2.918  -0.023  0.00  0.00     0.043 A 
HETATM    5  C   UNK N   1       6.345  -2.750   0.278  0.00  0.00     0.096 A 
HETATM    6  C   UNK N   1       3.441  -0.643   0.195  0.00  0.00     0.051 A 
HETATM    7  C   UNK N   1       2.927  -3.398  -0.248  0.00  0.00     0.033 A 
HETATM    8  C   UNK N   1       2.122  -1.085  -0.018  0.00  0.00     0.069 A 
HETATM    9  C   UNK N   1       1.871  -2.467  -0.242  0.00  0.00     0.039 A 
HETATM   10  H   UNK N   1       5.440  -4.610  -0.093  0.00  0.00     0.165 HD
ENDROOT
BRANCH   2  11
HETATM   11  C   UNK N   1       6.570  -0.218   0.637  0.00  0.00     0.071 C 
BRANCH  11  12
HETATM   12  C   UNK N   1       6.680   0.575  -0.664  0.00  0.00     0.278 C 
BRANCH  12  13
HETATM   13  N   UNK N   1       7.176   1.953  -0.474  0.00  0.00     0.096 N 
BRANCH  13  14
HETATM   14  C   UNK N   1       6.164   2.775   0.235  0.00  0.00     0.215 C 
HETATM   15  C   UNK N   1       4.745   2.548  -0.282  0.00  0.00     0.042 C 
HETATM   16  C   UNK N   1       6.441   4.259   0.063  0.00  0.00     0.042 C 
ENDBRANCH  13  14
BRANCH  13  17
HETATM   17  C   UNK N   1       8.473   1.973   0.250  0.00  0.00     0.215 C 
HETATM   18  C   UNK N   1       9.432   0.877  -0.210  0.00  0.00     0.042 C 
HETATM   19  C   UNK N   1       9.200   3.291   0.041  0.00  0.00     0.042 C 
ENDBRANCH  13  17
ENDBRANCH  12  13
ENDBRANCH  11  12
ENDBRANCH   2  11
BRANCH   8  20
HETATM   20  O   UNK N   1       1.117  -0.179   0.008  0.00  0.00    -0.356 OA
HETATM   21  C   UNK N   1      -0.208  -0.520  -0.137  0.00  0.00     0.210 C 
ENDBRANCH   8  20
TORSDOF 6
