MODEL 1
REMARK VINA RESULT:      -6.0      0.000      0.000
REMARK  6 active torsions:
REMARK  status: ('A' for Active; 'I' for Inactive)
REMARK    1  A    between atoms: O_1  and  C_18 
REMARK    2  A    between atoms: N_2  and  C_4 
REMARK    3  A    between atoms: N_2  and  C_5 
REMARK    4  A    between atoms: N_2  and  C_6 
REMARK    5  A    between atoms: C_4  and  C_7 
REMARK    6  A    between atoms: C_7  and  C_8 
ROOT
HETATM    1  N   UNK N   1      25.306  24.553  -5.831  0.00  0.00    -0.365 N 
HETATM    2  C   UNK N   1      26.660  24.386  -4.050  0.00  0.00    -0.029 A 
HETATM    3  C   UNK N   1      26.264  25.692  -4.165  0.00  0.00     0.001 A 
HETATM    4  C   UNK N   1      25.445  25.762  -5.253  0.00  0.00     0.043 A 
HETATM    5  C   UNK N   1      26.052  23.693  -5.092  0.00  0.00     0.096 A 
HETATM    6  C   UNK N   1      26.556  26.812  -3.388  0.00  0.00     0.051 A 
HETATM    7  C   UNK N   1      24.857  26.954  -5.656  0.00  0.00     0.033 A 
HETATM    8  C   UNK N   1      25.975  28.040  -3.752  0.00  0.00     0.069 A 
HETATM    9  C   UNK N   1      25.126  28.106  -4.892  0.00  0.00     0.039 A 
HETATM   10  H   UNK N   1      24.771  24.336  -6.628  0.00  0.00     0.165 HD
ENDROOT
BRANCH   2  11
HETATM   11  C   UNK N   1      27.565  23.809  -3.021  0.00  0.00     0.071 C 
BRANCH  11  12
HETATM   12  C   UNK N   1      28.992  23.797  -3.564  0.00  0.00     0.278 C 
BRANCH  12  13
HETATM   13  N   UNK N   1      29.354  22.536  -4.243  0.00  0.00     0.096 N 
BRANCH  13  14
HETATM   14  C   UNK N   1      29.886  22.812  -5.600  0.00  0.00     0.215 C 
HETATM   15  C   UNK N   1      29.985  24.304  -5.908  0.00  0.00     0.042 C 
HETATM   16  C   UNK N   1      28.988  22.220  -6.674  0.00  0.00     0.042 C 
ENDBRANCH  13  14
BRANCH  13  17
HETATM   17  C   UNK N   1      30.326  21.745  -3.446  0.00  0.00     0.215 C 
HETATM   18  C   UNK N   1      30.994  20.631  -4.250  0.00  0.00     0.042 C 
HETATM   19  C   UNK N   1      31.450  22.623  -2.919  0.00  0.00     0.042 C 
ENDBRANCH  13  17
ENDBRANCH  12  13
ENDBRANCH  11  12
ENDBRANCH   2  11
BRANCH   8  20
HETATM   20  O   UNK N   1      26.230  29.134  -2.997  0.00  0.00    -0.356 OA
HETATM   21  C   UNK N   1      26.507  30.370  -3.532  0.00  0.00     0.210 C 
ENDBRANCH   8  20
TORSDOF 6
ENDMDL
MODEL 2
REMARK VINA RESULT:      -5.9      1.047      2.074
REMARK  6 active torsions:
REMARK  status: ('A' for Active; 'I' for Inactive)
REMARK    1  A    between atoms: O_1  and  C_18 
REMARK    2  A    between atoms: N_2  and  C_4 
REMARK    3  A    between atoms: N_2  and  C_5 
REMARK    4  A    between atoms: N_2  and  C_6 
REMARK    5  A    between atoms: C_4  and  C_7 
REMARK    6  A    between atoms: C_7  and  C_8 
ROOT
HETATM    1  N   UNK N   1      25.302  24.654  -5.840  0.00  0.00    -0.365 N 
HETATM    2  C   UNK N   1      26.775  24.452  -4.160  0.00  0.00    -0.029 A 
HETATM    3  C   UNK N   1      26.370  25.759  -4.219  0.00  0.00     0.001 A 
HETATM    4  C   UNK N   1      25.478  25.850  -5.247  0.00  0.00     0.043 A 
HETATM    5  C   UNK N   1      26.098  23.780  -5.172  0.00  0.00     0.096 A 
HETATM    6  C   UNK N   1      26.713  26.862  -3.439  0.00  0.00     0.051 A 
HETATM    7  C   UNK N   1      24.863  27.049  -5.582  0.00  0.00     0.033 A 
HETATM    8  C   UNK N   1      26.106  28.097  -3.736  0.00  0.00     0.069 A 
HETATM    9  C   UNK N   1      25.182  28.185  -4.813  0.00  0.00     0.039 A 
HETATM   10  H   UNK N   1      24.714  24.453  -6.604  0.00  0.00     0.165 HD
ENDROOT
BRANCH   2  11
HETATM   11  C   UNK N   1      27.748  23.855  -3.207  0.00  0.00     0.071 C 
BRANCH  11  12
HETATM   12  C   UNK N   1      29.000  23.434  -3.975  0.00  0.00     0.278 C 
BRANCH  12  13
HETATM   13  N   UNK N   1      30.254  23.933  -3.377  0.00  0.00     0.096 N 
BRANCH  13  14
HETATM   14  C   UNK N   1      31.211  22.817  -3.172  0.00  0.00     0.215 C 
HETATM   15  C   UNK N   1      32.399  22.868  -4.130  0.00  0.00     0.042 C 
HETATM   16  C   UNK N   1      30.544  21.471  -3.401  0.00  0.00     0.042 C 
ENDBRANCH  13  14
BRANCH  13  17
HETATM   17  C   UNK N   1      30.865  25.006  -4.202  0.00  0.00     0.215 C 
HETATM   18  C   UNK N   1      30.133  25.235  -5.523  0.00  0.00     0.042 C 
HETATM   19  C   UNK N   1      30.851  26.339  -3.471  0.00  0.00     0.042 C 
ENDBRANCH  13  17
ENDBRANCH  12  13
ENDBRANCH  11  12
ENDBRANCH   2  11
BRANCH   8  20
HETATM   20  O   UNK N   1      26.411  29.174  -2.976  0.00  0.00    -0.356 OA
HETATM   21  C   UNK N   1      26.552  30.443  -3.490  0.00  0.00     0.210 C 
ENDBRANCH   8  20
TORSDOF 6
ENDMDL
MODEL 3
REMARK VINA RESULT:      -5.9     10.828     12.940
REMARK  6 active torsions:
REMARK  status: ('A' for Active; 'I' for Inactive)
REMARK    1  A    between atoms: O_1  and  C_18 
REMARK    2  A    between atoms: N_2  and  C_4 
REMARK    3  A    between atoms: N_2  and  C_5 
REMARK    4  A    between atoms: N_2  and  C_6 
REMARK    5  A    between atoms: C_4  and  C_7 
REMARK    6  A    between atoms: C_7  and  C_8 
ROOT
HETATM    1  N   UNK N   1      27.964  19.039   8.420  0.00  0.00    -0.365 N 
HETATM    2  C   UNK N   1      28.647  17.639   6.806  0.00  0.00    -0.029 A 
HETATM    3  C   UNK N   1      28.011  18.697   6.213  0.00  0.00     0.001 A 
HETATM    4  C   UNK N   1      27.608  19.528   7.216  0.00  0.00     0.043 A 
HETATM    5  C   UNK N   1      28.611  17.871   8.177  0.00  0.00     0.096 A 
HETATM    6  C   UNK N   1      27.771  18.989   4.871  0.00  0.00     0.051 A 
HETATM    7  C   UNK N   1      26.928  20.712   6.962  0.00  0.00     0.033 A 
HETATM    8  C   UNK N   1      27.095  20.184   4.565  0.00  0.00     0.069 A 
HETATM    9  C   UNK N   1      26.673  21.043   5.618  0.00  0.00     0.039 A 
HETATM   10  H   UNK N   1      27.790  19.446   9.299  0.00  0.00     0.165 HD
ENDROOT
BRANCH   2  11
HETATM   11  C   UNK N   1      29.259  16.465   6.129  0.00  0.00     0.071 C 
BRANCH  11  12
HETATM   12  C   UNK N   1      30.630  16.194   6.746  0.00  0.00     0.278 C 
BRANCH  12  13
HETATM   13  N   UNK N   1      31.599  17.287   6.530  0.00  0.00     0.096 N 
BRANCH  13  14
HETATM   14  C   UNK N   1      32.300  17.616   7.796  0.00  0.00     0.215 C 
HETATM   15  C   UNK N   1      33.749  18.047   7.579  0.00  0.00     0.042 C 
HETATM   16  C   UNK N   1      32.354  16.414   8.724  0.00  0.00     0.042 C 
ENDBRANCH  13  14
BRANCH  13  17
HETATM   17  C   UNK N   1      32.573  16.952   5.460  0.00  0.00     0.215 C 
HETATM   18  C   UNK N   1      32.634  15.457   5.153  0.00  0.00     0.042 C 
HETATM   19  C   UNK N   1      32.215  17.641   4.153  0.00  0.00     0.042 C 
ENDBRANCH  13  17
ENDBRANCH  12  13
ENDBRANCH  11  12
ENDBRANCH   2  11
BRANCH   8  20
HETATM   20  O   UNK N   1      26.872  20.495   3.267  0.00  0.00    -0.356 OA
HETATM   21  C   UNK N   1      25.618  20.511   2.701  0.00  0.00     0.210 C 
ENDBRANCH   8  20
TORSDOF 6
ENDMDL
MODEL 4
REMARK VINA RESULT:      -5.9      1.198      2.157
REMARK  6 active torsions:
REMARK  status: ('A' for Active; 'I' for Inactive)
REMARK    1  A    between atoms: O_1  and  C_18 
REMARK    2  A    between atoms: N_2  and  C_4 
REMARK    3  A    between atoms: N_2  and  C_5 
REMARK    4  A    between atoms: N_2  and  C_6 
REMARK    5  A    between atoms: C_4  and  C_7 
REMARK    6  A    between atoms: C_7  and  C_8 
ROOT
HETATM    1  N   UNK N   1      25.342  24.528  -5.779  0.00  0.00    -0.365 N 
HETATM    2  C   UNK N   1      26.699  24.419  -3.997  0.00  0.00    -0.029 A 
HETATM    3  C   UNK N   1      26.283  25.717  -4.139  0.00  0.00     0.001 A 
HETATM    4  C   UNK N   1      25.463  25.751  -5.228  0.00  0.00     0.043 A 
HETATM    5  C   UNK N   1      26.100  23.695  -5.022  0.00  0.00     0.096 A 
HETATM    6  C   UNK N   1      26.560  26.857  -3.387  0.00  0.00     0.051 A 
HETATM    7  C   UNK N   1      24.858  26.926  -5.656  0.00  0.00     0.033 A 
HETATM    8  C   UNK N   1      25.961  28.069  -3.777  0.00  0.00     0.069 A 
HETATM    9  C   UNK N   1      25.111  28.097  -4.917  0.00  0.00     0.039 A 
HETATM   10  H   UNK N   1      24.809  24.286  -6.571  0.00  0.00     0.165 HD
ENDROOT
BRANCH   2  11
HETATM   11  C   UNK N   1      27.612  23.878  -2.955  0.00  0.00     0.071 C 
BRANCH  11  12
HETATM   12  C   UNK N   1      28.931  23.477  -3.612  0.00  0.00     0.278 C 
BRANCH  12  13
HETATM   13  N   UNK N   1      29.558  24.567  -4.387  0.00  0.00     0.096 N 
BRANCH  13  14
HETATM   14  C   UNK N   1      30.782  25.053  -3.702  0.00  0.00     0.215 C 
HETATM   15  C   UNK N   1      30.773  26.562  -3.470  0.00  0.00     0.042 C 
HETATM   16  C   UNK N   1      32.026  24.762  -4.523  0.00  0.00     0.042 C 
ENDBRANCH  13  14
BRANCH  13  17
HETATM   17  C   UNK N   1      29.866  24.142  -5.777  0.00  0.00     0.215 C 
HETATM   18  C   UNK N   1      29.465  22.697  -6.064  0.00  0.00     0.042 C 
HETATM   19  C   UNK N   1      29.126  25.000  -6.791  0.00  0.00     0.042 C 
ENDBRANCH  13  17
ENDBRANCH  12  13
ENDBRANCH  11  12
ENDBRANCH   2  11
BRANCH   8  20
HETATM   20  O   UNK N   1      26.200  29.182  -3.046  0.00  0.00    -0.356 OA
HETATM   21  C   UNK N   1      26.567  30.385  -3.604  0.00  0.00     0.210 C 
ENDBRANCH   8  20
TORSDOF 6
ENDMDL
MODEL 5
REMARK VINA RESULT:      -5.8      2.718      4.400
REMARK  6 active torsions:
REMARK  status: ('A' for Active; 'I' for Inactive)
REMARK    1  A    between atoms: O_1  and  C_18 
REMARK    2  A    between atoms: N_2  and  C_4 
REMARK    3  A    between atoms: N_2  and  C_5 
REMARK    4  A    between atoms: N_2  and  C_6 
REMARK    5  A    between atoms: C_4  and  C_7 
REMARK    6  A    between atoms: C_7  and  C_8 
ROOT
HETATM    1  N   UNK N   1      25.881  28.848  -3.598  0.00  0.00    -0.365 N 
HETATM    2  C   UNK N   1      25.783  27.435  -5.338  0.00  0.00    -0.029 A 
HETATM    3  C   UNK N   1      26.748  28.371  -5.600  0.00  0.00     0.001 A 
HETATM    4  C   UNK N   1      26.784  29.213  -4.528  0.00  0.00     0.043 A 
HETATM    5  C   UNK N   1      25.259  27.746  -4.088  0.00  0.00     0.096 A 
HETATM    6  C   UNK N   1      27.597  28.532  -6.694  0.00  0.00     0.051 A 
HETATM    7  C   UNK N   1      27.665  30.285  -4.465  0.00  0.00     0.033 A 
HETATM    8  C   UNK N   1      28.514  29.599  -6.669  0.00  0.00     0.069 A 
HETATM    9  C   UNK N   1      28.541  30.476  -5.549  0.00  0.00     0.039 A 
HETATM   10  H   UNK N   1      25.708  29.290  -2.735  0.00  0.00     0.165 HD
ENDROOT
BRANCH   2  11
HETATM   11  C   UNK N   1      25.366  26.306  -6.210  0.00  0.00     0.071 C 
BRANCH  11  12
HETATM   12  C   UNK N   1      25.827  24.994  -5.578  0.00  0.00     0.278 C 
BRANCH  12  13
HETATM   13  N   UNK N   1      27.256  24.700  -5.807  0.00  0.00     0.096 N 
BRANCH  13  14
HETATM   14  C   UNK N   1      27.951  24.467  -4.516  0.00  0.00     0.215 C 
HETATM   15  C   UNK N   1      26.987  24.306  -3.342  0.00  0.00     0.042 C 
HETATM   16  C   UNK N   1      28.856  25.633  -4.159  0.00  0.00     0.042 C 
ENDBRANCH  13  14
BRANCH  13  17
HETATM   17  C   UNK N   1      27.437  23.542  -6.720  0.00  0.00     0.215 C 
HETATM   18  C   UNK N   1      28.541  22.589  -6.266  0.00  0.00     0.042 C 
HETATM   19  C   UNK N   1      26.169  22.711  -6.813  0.00  0.00     0.042 C 
ENDBRANCH  13  17
ENDBRANCH  12  13
ENDBRANCH  11  12
ENDBRANCH   2  11
BRANCH   8  20
HETATM   20  O   UNK N   1      29.361  29.758  -7.712  0.00  0.00    -0.356 OA
HETATM   21  C   UNK N   1      29.444  28.867  -8.757  0.00  0.00     0.210 C 
ENDBRANCH   8  20
TORSDOF 6
ENDMDL
MODEL 6
REMARK VINA RESULT:      -5.6     11.000     12.992
REMARK  6 active torsions:
REMARK  status: ('A' for Active; 'I' for Inactive)
REMARK    1  A    between atoms: O_1  and  C_18 
REMARK    2  A    between atoms: N_2  and  C_4 
REMARK    3  A    between atoms: N_2  and  C_5 
REMARK    4  A    between atoms: N_2  and  C_6 
REMARK    5  A    between atoms: C_4  and  C_7 
REMARK    6  A    between atoms: C_7  and  C_8 
ROOT
HETATM    1  N   UNK N   1      27.839  19.231   8.440  0.00  0.00    -0.365 N 
HETATM    2  C   UNK N   1      28.653  17.828   6.891  0.00  0.00    -0.029 A 
HETATM    3  C   UNK N   1      27.971  18.826   6.247  0.00  0.00     0.001 A 
HETATM    4  C   UNK N   1      27.489  19.660   7.212  0.00  0.00     0.043 A 
HETATM    5  C   UNK N   1      28.563  18.099   8.252  0.00  0.00     0.096 A 
HETATM    6  C   UNK N   1      27.752  19.062   4.891  0.00  0.00     0.051 A 
HETATM    7  C   UNK N   1      26.746  20.792   6.902  0.00  0.00     0.033 A 
HETATM    8  C   UNK N   1      27.013  20.203   4.529  0.00  0.00     0.069 A 
HETATM    9  C   UNK N   1      26.509  21.065   5.541  0.00  0.00     0.039 A 
HETATM   10  H   UNK N   1      27.615  19.653   9.301  0.00  0.00     0.165 HD
ENDROOT
BRANCH   2  11
HETATM   11  C   UNK N   1      29.355  16.674   6.268  0.00  0.00     0.071 C 
BRANCH  11  12
HETATM   12  C   UNK N   1      30.796  17.076   5.962  0.00  0.00     0.278 C 
BRANCH  12  13
HETATM   13  N   UNK N   1      31.800  16.192   6.589  0.00  0.00     0.096 N 
BRANCH  13  14
HETATM   14  C   UNK N   1      33.126  16.380   5.950  0.00  0.00     0.215 C 
HETATM   15  C   UNK N   1      33.126  17.479   4.890  0.00  0.00     0.042 C 
HETATM   16  C   UNK N   1      33.581  15.115   5.243  0.00  0.00     0.042 C 
ENDBRANCH  13  14
BRANCH  13  17
HETATM   17  C   UNK N   1      31.885  16.414   8.055  0.00  0.00     0.215 C 
HETATM   18  C   UNK N   1      32.855  15.461   8.749  0.00  0.00     0.042 C 
HETATM   19  C   UNK N   1      32.367  17.819   8.373  0.00  0.00     0.042 C 
ENDBRANCH  13  17
ENDBRANCH  12  13
ENDBRANCH  11  12
ENDBRANCH   2  11
BRANCH   8  20
HETATM   20  O   UNK N   1      26.809  20.460   3.216  0.00  0.00    -0.356 OA
HETATM   21  C   UNK N   1      25.558  20.527   2.647  0.00  0.00     0.210 C 
ENDBRANCH   8  20
TORSDOF 6
ENDMDL
MODEL 7
REMARK VINA RESULT:      -5.6     17.629     20.626
REMARK  6 active torsions:
REMARK  status: ('A' for Active; 'I' for Inactive)
REMARK    1  A    between atoms: O_1  and  C_18 
REMARK    2  A    between atoms: N_2  and  C_4 
REMARK    3  A    between atoms: N_2  and  C_5 
REMARK    4  A    between atoms: N_2  and  C_6 
REMARK    5  A    between atoms: C_4  and  C_7 
REMARK    6  A    between atoms: C_7  and  C_8 
ROOT
HETATM    1  N   UNK N   1      35.185  17.125  10.468  0.00  0.00    -0.365 N 
HETATM    2  C   UNK N   1      34.827  14.980  11.021  0.00  0.00    -0.029 A 
HETATM    3  C   UNK N   1      34.106  15.257   9.889  0.00  0.00     0.001 A 
HETATM    4  C   UNK N   1      34.344  16.563   9.579  0.00  0.00     0.043 A 
HETATM    5  C   UNK N   1      35.493  16.152  11.363  0.00  0.00     0.096 A 
HETATM    6  C   UNK N   1      33.275  14.452   9.111  0.00  0.00     0.051 A 
HETATM    7  C   UNK N   1      33.765  17.173   8.473  0.00  0.00     0.033 A 
HETATM    8  C   UNK N   1      32.675  15.025   7.974  0.00  0.00     0.069 A 
HETATM    9  C   UNK N   1      32.923  16.390   7.661  0.00  0.00     0.039 A 
HETATM   10  H   UNK N   1      35.512  18.053  10.468  0.00  0.00     0.165 HD
ENDROOT
BRANCH   2  11
HETATM   11  C   UNK N   1      34.891  13.687  11.751  0.00  0.00     0.071 C 
BRANCH  11  12
HETATM   12  C   UNK N   1      35.511  13.924  13.127  0.00  0.00     0.278 C 
BRANCH  12  13
HETATM   13  N   UNK N   1      35.060  12.959  14.151  0.00  0.00     0.096 N 
BRANCH  13  14
HETATM   14  C   UNK N   1      34.950  11.599  13.568  0.00  0.00     0.215 C 
HETATM   15  C   UNK N   1      33.824  10.775  14.189  0.00  0.00     0.042 C 
HETATM   16  C   UNK N   1      36.224  10.801  13.786  0.00  0.00     0.042 C 
ENDBRANCH  13  14
BRANCH  13  17
HETATM   17  C   UNK N   1      35.960  12.955  15.333  0.00  0.00     0.215 C 
HETATM   18  C   UNK N   1      36.979  14.092  15.313  0.00  0.00     0.042 C 
HETATM   19  C   UNK N   1      35.173  13.109  16.624  0.00  0.00     0.042 C 
ENDBRANCH  13  17
ENDBRANCH  12  13
ENDBRANCH  11  12
ENDBRANCH   2  11
BRANCH   8  20
HETATM   20  O   UNK N   1      31.882  14.254   7.195  0.00  0.00    -0.356 OA
HETATM   21  C   UNK N   1      31.175  14.744   6.121  0.00  0.00     0.210 C 
ENDBRANCH   8  20
TORSDOF 6
ENDMDL
MODEL 8
REMARK VINA RESULT:      -5.5     25.934     28.775
REMARK  6 active torsions:
REMARK  status: ('A' for Active; 'I' for Inactive)
REMARK    1  A    between atoms: O_1  and  C_18 
REMARK    2  A    between atoms: N_2  and  C_4 
REMARK    3  A    between atoms: N_2  and  C_5 
REMARK    4  A    between atoms: N_2  and  C_6 
REMARK    5  A    between atoms: C_4  and  C_7 
REMARK    6  A    between atoms: C_7  and  C_8 
ROOT
HETATM    1  N   UNK N   1      35.736  12.490  20.180  0.00  0.00    -0.365 N 
HETATM    2  C   UNK N   1      35.604  10.377  19.437  0.00  0.00    -0.029 A 
HETATM    3  C   UNK N   1      35.311  11.216  18.395  0.00  0.00     0.001 A 
HETATM    4  C   UNK N   1      35.399  12.489  18.875  0.00  0.00     0.043 A 
HETATM    5  C   UNK N   1      35.869  11.187  20.536  0.00  0.00     0.096 A 
HETATM    6  C   UNK N   1      34.986  10.950  17.066  0.00  0.00     0.051 A 
HETATM    7  C   UNK N   1      35.164  13.597  18.071  0.00  0.00     0.033 A 
HETATM    8  C   UNK N   1      34.750  12.042  16.210  0.00  0.00     0.069 A 
HETATM    9  C   UNK N   1      34.838  13.367  16.721  0.00  0.00     0.039 A 
HETATM   10  H   UNK N   1      35.862  13.277  20.758  0.00  0.00     0.165 HD
ENDROOT
BRANCH   2  11
HETATM   11  C   UNK N   1      35.633   8.891  19.413  0.00  0.00     0.071 C 
BRANCH  11  12
HETATM   12  C   UNK N   1      34.711   8.358  20.508  0.00  0.00     0.278 C 
BRANCH  12  13
HETATM   13  N   UNK N   1      33.351   8.931  20.463  0.00  0.00     0.096 N 
BRANCH  13  14
HETATM   14  C   UNK N   1      32.447   8.060  19.671  0.00  0.00     0.215 C 
HETATM   15  C   UNK N   1      30.988   8.162  20.109  0.00  0.00     0.042 C 
HETATM   16  C   UNK N   1      32.828   6.596  19.814  0.00  0.00     0.042 C 
ENDBRANCH  13  14
BRANCH  13  17
HETATM   17  C   UNK N   1      32.806   9.154  21.827  0.00  0.00     0.215 C 
HETATM   18  C   UNK N   1      33.642   8.493  22.921  0.00  0.00     0.042 C 
HETATM   19  C   UNK N   1      32.755  10.635  22.164  0.00  0.00     0.042 C 
ENDBRANCH  13  17
ENDBRANCH  12  13
ENDBRANCH  11  12
ENDBRANCH   2  11
BRANCH   8  20
HETATM   20  O   UNK N   1      34.455  11.803  14.911  0.00  0.00    -0.356 OA
HETATM   21  C   UNK N   1      33.666  10.754  14.499  0.00  0.00     0.210 C 
ENDBRANCH   8  20
TORSDOF 6
ENDMDL
MODEL 9
REMARK VINA RESULT:      -5.3     10.188     12.237
REMARK  6 active torsions:
REMARK  status: ('A' for Active; 'I' for Inactive)
REMARK    1  A    between atoms: O_1  and  C_18 
REMARK    2  A    between atoms: N_2  and  C_4 
REMARK    3  A    between atoms: N_2  and  C_5 
REMARK    4  A    between atoms: N_2  and  C_6 
REMARK    5  A    between atoms: C_4  and  C_7 
REMARK    6  A    between atoms: C_7  and  C_8 
ROOT
HETATM    1  N   UNK N   1      27.909  19.134   8.427  0.00  0.00    -0.365 N 
HETATM    2  C   UNK N   1      28.528  17.633   6.880  0.00  0.00    -0.029 A 
HETATM    3  C   UNK N   1      27.925  18.682   6.239  0.00  0.00     0.001 A 
HETATM    4  C   UNK N   1      27.560  19.575   7.203  0.00  0.00     0.043 A 
HETATM    5  C   UNK N   1      28.512  17.933   8.237  0.00  0.00     0.096 A 
HETATM    6  C   UNK N   1      27.684  18.916   4.887  0.00  0.00     0.051 A 
HETATM    7  C   UNK N   1      26.920  20.769   6.895  0.00  0.00     0.033 A 
HETATM    8  C   UNK N   1      27.047  20.118   4.526  0.00  0.00     0.069 A 
HETATM    9  C   UNK N   1      26.664  21.042   5.538  0.00  0.00     0.039 A 
HETATM   10  H   UNK N   1      27.757  19.590   9.286  0.00  0.00     0.165 HD
ENDROOT
BRANCH   2  11
HETATM   11  C   UNK N   1      29.093  16.406   6.257  0.00  0.00     0.071 C 
BRANCH  11  12
HETATM   12  C   UNK N   1      30.465  16.732   5.671  0.00  0.00     0.278 C 
BRANCH  12  13
HETATM   13  N   UNK N   1      30.916  15.763   4.652  0.00  0.00     0.096 N 
BRANCH  13  14
HETATM   14  C   UNK N   1      29.774  15.327   3.810  0.00  0.00     0.215 C 
HETATM   15  C   UNK N   1      30.001  13.963   3.161  0.00  0.00     0.042 C 
HETATM   16  C   UNK N   1      29.528  16.299   2.669  0.00  0.00     0.042 C 
ENDBRANCH  13  14
BRANCH  13  17
HETATM   17  C   UNK N   1      32.008  16.320   3.812  0.00  0.00     0.215 C 
HETATM   18  C   UNK N   1      32.442  17.718   4.247  0.00  0.00     0.042 C 
HETATM   19  C   UNK N   1      33.251  15.448   3.876  0.00  0.00     0.042 C 
ENDBRANCH  13  17
ENDBRANCH  12  13
ENDBRANCH  11  12
ENDBRANCH   2  11
BRANCH   8  20
HETATM   20  O   UNK N   1      26.824  20.372   3.216  0.00  0.00    -0.356 OA
HETATM   21  C   UNK N   1      25.564  20.455   2.669  0.00  0.00     0.210 C 
ENDBRANCH   8  20
TORSDOF 6
ENDMDL
