MODEL 1
REMARK VINA RESULT:      -5.6      0.000      0.000
REMARK  4 active torsions:
REMARK  status: ('A' for Active; 'I' for Inactive)
REMARK    1  A    between atoms: O_3  and  C_12 
REMARK    2  A    between atoms: N_4  and  C_6 
REMARK    3  A    between atoms: C_5  and  C_6 
REMARK    4  A    between atoms: C_5  and  C_7 
ROOT
HETATM    1  O   UNK N   1      33.553  18.040   8.926  0.00  0.00    -0.323 OA
HETATM    2  O   UNK N   1      34.532  17.816   6.950  0.00  0.00    -0.320 OA
HETATM    3  C   UNK N   1      30.471  17.316   7.042  0.00  0.00    -0.051 A 
HETATM    4  C   UNK N   1      31.251  17.616   8.181  0.00  0.00     0.047 A 
HETATM    5  C   UNK N   1      32.628  17.761   8.009  0.00  0.00     0.108 A 
HETATM    6  C   UNK N   1      31.108  17.177   5.788  0.00  0.00     0.047 A 
HETATM    7  C   UNK N   1      33.221  17.626   6.815  0.00  0.00     0.138 A 
HETATM    8  C   UNK N   1      32.502  17.331   5.660  0.00  0.00     0.104 A 
HETATM    9  C   UNK N   1      34.802  18.088   8.296  0.00  0.00     0.352 A 
ENDROOT
BRANCH   3  10
HETATM   10  C   UNK N   1      28.981  17.154   7.198  0.00  0.00     0.062 C 
BRANCH  10  11
HETATM   11  C   UNK N   1      28.152  18.362   7.674  0.00  0.00     0.074 C 
HETATM   12  C   UNK N   1      27.768  19.601   6.882  0.00  0.00     0.032 C 
BRANCH  11  13
HETATM   13  N   UNK N   1      27.677  18.317   9.043  0.00  0.00    -0.426 N 
HETATM   14  H   UNK N   1      28.333  18.436   9.815  0.00  0.00     0.150 HD
HETATM   15  H   UNK N   1      26.686  18.167   9.235  0.00  0.00     0.150 HD
ENDBRANCH  11  13
ENDBRANCH  10  11
ENDBRANCH   3  10
BRANCH   8  16
HETATM   16  O   UNK N   1      33.131  17.201   4.470  0.00  0.00    -0.353 OA
HETATM   17  C   UNK N   1      32.450  17.065   3.280  0.00  0.00     0.210 C 
ENDBRANCH   8  16
TORSDOF 4
ENDMDL
MODEL 2
REMARK VINA RESULT:      -5.1     13.787     15.749
REMARK  4 active torsions:
REMARK  status: ('A' for Active; 'I' for Inactive)
REMARK    1  A    between atoms: O_3  and  C_12 
REMARK    2  A    between atoms: N_4  and  C_6 
REMARK    3  A    between atoms: C_5  and  C_6 
REMARK    4  A    between atoms: C_5  and  C_7 
ROOT
HETATM    1  O   UNK N   1      25.429  27.707  -5.187  0.00  0.00    -0.323 OA
HETATM    2  O   UNK N   1      26.070  26.778  -3.280  0.00  0.00    -0.320 OA
HETATM    3  C   UNK N   1      25.854  24.304  -6.533  0.00  0.00    -0.051 A 
HETATM    4  C   UNK N   1      25.547  25.682  -6.573  0.00  0.00     0.047 A 
HETATM    5  C   UNK N   1      25.663  26.412  -5.388  0.00  0.00     0.108 A 
HETATM    6  C   UNK N   1      26.261  23.725  -5.310  0.00  0.00     0.047 A 
HETATM    7  C   UNK N   1      26.050  25.851  -4.235  0.00  0.00     0.138 A 
HETATM    8  C   UNK N   1      26.364  24.498  -4.138  0.00  0.00     0.104 A 
HETATM    9  C   UNK N   1      25.677  27.998  -3.841  0.00  0.00     0.352 A 
ENDROOT
BRANCH   3  10
HETATM   10  C   UNK N   1      25.738  23.492  -7.797  0.00  0.00     0.062 C 
BRANCH  10  11
HETATM   11  C   UNK N   1      25.311  22.016  -7.690  0.00  0.00     0.074 C 
HETATM   12  C   UNK N   1      26.091  20.785  -8.123  0.00  0.00     0.032 C 
BRANCH  11  13
HETATM   13  N   UNK N   1      24.008  21.764  -7.107  0.00  0.00    -0.426 N 
HETATM   14  H   UNK N   1      23.200  22.310  -7.408  0.00  0.00     0.150 HD
HETATM   15  H   UNK N   1      23.898  21.040  -6.397  0.00  0.00     0.150 HD
ENDBRANCH  11  13
ENDBRANCH  10  11
ENDBRANCH   3  10
BRANCH   8  16
HETATM   16  O   UNK N   1      26.752  23.963  -2.957  0.00  0.00    -0.353 OA
HETATM   17  C   UNK N   1      28.060  23.626  -2.689  0.00  0.00     0.210 C 
ENDBRANCH   8  16
TORSDOF 4
ENDMDL
MODEL 3
REMARK VINA RESULT:      -5.1      8.565     10.479
REMARK  4 active torsions:
REMARK  status: ('A' for Active; 'I' for Inactive)
REMARK    1  A    between atoms: O_3  and  C_12 
REMARK    2  A    between atoms: N_4  and  C_6 
REMARK    3  A    between atoms: C_5  and  C_6 
REMARK    4  A    between atoms: C_5  and  C_7 
ROOT
HETATM    1  O   UNK N   1      24.406  11.977  12.125  0.00  0.00    -0.323 OA
HETATM    2  O   UNK N   1      22.200  12.167  12.016  0.00  0.00    -0.320 OA
HETATM    3  C   UNK N   1      24.287  13.165   8.640  0.00  0.00    -0.051 A 
HETATM    4  C   UNK N   1      24.894  12.718   9.834  0.00  0.00     0.047 A 
HETATM    5  C   UNK N   1      24.064  12.411  10.913  0.00  0.00     0.108 A 
HETATM    6  C   UNK N   1      22.880  13.281   8.584  0.00  0.00     0.047 A 
HETATM    7  C   UNK N   1      22.731  12.525  10.848  0.00  0.00     0.138 A 
HETATM    8  C   UNK N   1      22.080  12.960   9.697  0.00  0.00     0.104 A 
HETATM    9  C   UNK N   1      23.239  11.802  12.879  0.00  0.00     0.352 A 
ENDROOT
BRANCH   3  10
HETATM   10  C   UNK N   1      25.160  13.504   7.459  0.00  0.00     0.062 C 
BRANCH  10  11
HETATM   11  C   UNK N   1      25.142  14.945   6.917  0.00  0.00     0.074 C 
HETATM   12  C   UNK N   1      24.092  15.598   6.033  0.00  0.00     0.032 C 
BRANCH  11  13
HETATM   13  N   UNK N   1      26.261  15.788   7.293  0.00  0.00    -0.426 N 
HETATM   14  H   UNK N   1      27.120  15.367   7.649  0.00  0.00     0.150 HD
HETATM   15  H   UNK N   1      26.190  16.801   7.200  0.00  0.00     0.150 HD
ENDBRANCH  11  13
ENDBRANCH  10  11
ENDBRANCH   3  10
BRANCH   8  16
HETATM   16  O   UNK N   1      20.731  13.065   9.664  0.00  0.00    -0.353 OA
HETATM   17  C   UNK N   1      20.080  14.278   9.642  0.00  0.00     0.210 C 
ENDBRANCH   8  16
TORSDOF 4
ENDMDL
MODEL 4
REMARK VINA RESULT:      -5.1     13.835     15.752
REMARK  4 active torsions:
REMARK  status: ('A' for Active; 'I' for Inactive)
REMARK    1  A    between atoms: O_3  and  C_12 
REMARK    2  A    between atoms: N_4  and  C_6 
REMARK    3  A    between atoms: C_5  and  C_6 
REMARK    4  A    between atoms: C_5  and  C_7 
ROOT
HETATM    1  O   UNK N   1      25.263  24.434  -7.085  0.00  0.00    -0.323 OA
HETATM    2  O   UNK N   1      26.694  23.136  -5.999  0.00  0.00    -0.320 OA
HETATM    3  C   UNK N   1      25.924  26.796  -4.336  0.00  0.00    -0.051 A 
HETATM    4  C   UNK N   1      25.335  26.339  -5.535  0.00  0.00     0.047 A 
HETATM    5  C   UNK N   1      25.686  25.068  -5.992  0.00  0.00     0.108 A 
HETATM    6  C   UNK N   1      26.835  25.958  -3.654  0.00  0.00     0.047 A 
HETATM    7  C   UNK N   1      26.551  24.283  -5.336  0.00  0.00     0.138 A 
HETATM    8  C   UNK N   1      27.161  24.682  -4.151  0.00  0.00     0.104 A 
HETATM    9  C   UNK N   1      25.883  23.181  -7.138  0.00  0.00     0.352 A 
ENDROOT
BRANCH   3  10
HETATM   10  C   UNK N   1      25.564  28.165  -3.818  0.00  0.00     0.062 C 
BRANCH  10  11
HETATM   11  C   UNK N   1      26.415  29.369  -4.261  0.00  0.00     0.074 C 
HETATM   12  C   UNK N   1      27.486  29.411  -5.338  0.00  0.00     0.032 C 
BRANCH  11  13
HETATM   13  N   UNK N   1      26.169  30.620  -3.568  0.00  0.00    -0.426 N 
HETATM   14  H   UNK N   1      25.228  31.013  -3.544  0.00  0.00     0.150 HD
HETATM   15  H   UNK N   1      26.937  31.106  -3.106  0.00  0.00     0.150 HD
ENDBRANCH  11  13
ENDBRANCH  10  11
ENDBRANCH   3  10
BRANCH   8  16
HETATM   16  O   UNK N   1      28.030  23.864  -3.513  0.00  0.00    -0.353 OA
HETATM   17  C   UNK N   1      29.389  24.090  -3.500  0.00  0.00     0.210 C 
ENDBRANCH   8  16
TORSDOF 4
ENDMDL
MODEL 5
REMARK VINA RESULT:      -5.0      2.728      4.702
REMARK  4 active torsions:
REMARK  status: ('A' for Active; 'I' for Inactive)
REMARK    1  A    between atoms: O_3  and  C_12 
REMARK    2  A    between atoms: N_4  and  C_6 
REMARK    3  A    between atoms: C_5  and  C_6 
REMARK    4  A    between atoms: C_5  and  C_7 
ROOT
HETATM    1  O   UNK N   1      29.294  17.401   8.246  0.00  0.00    -0.323 OA
HETATM    2  O   UNK N   1      29.213  16.992   6.069  0.00  0.00    -0.320 OA
HETATM    3  C   UNK N   1      32.924  17.645   7.666  0.00  0.00    -0.051 A 
HETATM    4  C   UNK N   1      31.730  17.669   8.420  0.00  0.00     0.047 A 
HETATM    5  C   UNK N   1      30.530  17.429   7.749  0.00  0.00     0.108 A 
HETATM    6  C   UNK N   1      32.858  17.384   6.279  0.00  0.00     0.047 A 
HETATM    7  C   UNK N   1      30.480  17.182   6.434  0.00  0.00     0.138 A 
HETATM    8  C   UNK N   1      31.625  17.147   5.643  0.00  0.00     0.104 A 
HETATM    9  C   UNK N   1      28.404  17.123   7.203  0.00  0.00     0.352 A 
ENDROOT
BRANCH   3  10
HETATM   10  C   UNK N   1      34.235  17.901   8.365  0.00  0.00     0.062 C 
BRANCH  10  11
HETATM   11  C   UNK N   1      34.806  16.808   9.288  0.00  0.00     0.074 C 
HETATM   12  C   UNK N   1      35.127  15.364   8.938  0.00  0.00     0.032 C 
BRANCH  11  13
HETATM   13  N   UNK N   1      35.072  17.198  10.659  0.00  0.00    -0.426 N 
HETATM   14  H   UNK N   1      34.368  17.714  11.188  0.00  0.00     0.150 HD
HETATM   15  H   UNK N   1      35.962  16.958  11.094  0.00  0.00     0.150 HD
ENDBRANCH  11  13
ENDBRANCH  10  11
ENDBRANCH   3  10
BRANCH   8  16
HETATM   16  O   UNK N   1      31.539  16.895   4.316  0.00  0.00    -0.353 OA
HETATM   17  C   UNK N   1      32.573  17.153   3.443  0.00  0.00     0.210 C 
ENDBRANCH   8  16
TORSDOF 4
ENDMDL
MODEL 6
REMARK VINA RESULT:      -4.9      9.432     11.424
REMARK  4 active torsions:
REMARK  status: ('A' for Active; 'I' for Inactive)
REMARK    1  A    between atoms: O_3  and  C_12 
REMARK    2  A    between atoms: N_4  and  C_6 
REMARK    3  A    between atoms: C_5  and  C_6 
REMARK    4  A    between atoms: C_5  and  C_7 
ROOT
HETATM    1  O   UNK N   1      34.661  13.560  12.427  0.00  0.00    -0.323 OA
HETATM    2  O   UNK N   1      36.226  14.994  13.065  0.00  0.00    -0.320 OA
HETATM    3  C   UNK N   1      35.355  11.963  15.673  0.00  0.00    -0.051 A 
HETATM    4  C   UNK N   1      34.720  12.129  14.423  0.00  0.00     0.047 A 
HETATM    5  C   UNK N   1      35.113  13.208  13.629  0.00  0.00     0.108 A 
HETATM    6  C   UNK N   1      36.351  12.885  16.067  0.00  0.00     0.047 A 
HETATM    7  C   UNK N   1      36.059  14.075  14.014  0.00  0.00     0.138 A 
HETATM    8  C   UNK N   1      36.717  13.960  15.235  0.00  0.00     0.104 A 
HETATM    9  C   UNK N   1      35.346  14.709  12.015  0.00  0.00     0.352 A 
ENDROOT
BRANCH   3  10
HETATM   10  C   UNK N   1      34.951  10.807  16.551  0.00  0.00     0.062 C 
BRANCH  10  11
HETATM   11  C   UNK N   1      35.622  10.655  17.929  0.00  0.00     0.074 C 
HETATM   12  C   UNK N   1      35.352  11.455  19.193  0.00  0.00     0.032 C 
BRANCH  11  13
HETATM   13  N   UNK N   1      36.637   9.625  18.040  0.00  0.00    -0.426 N 
HETATM   14  H   UNK N   1      36.365   8.659  18.221  0.00  0.00     0.150 HD
HETATM   15  H   UNK N   1      37.622   9.867  17.937  0.00  0.00     0.150 HD
ENDBRANCH  11  13
ENDBRANCH  10  11
ENDBRANCH   3  10
BRANCH   8  16
HETATM   16  O   UNK N   1      37.667  14.853  15.593  0.00  0.00    -0.353 OA
HETATM   17  C   UNK N   1      37.371  16.039  16.228  0.00  0.00     0.210 C 
ENDBRANCH   8  16
TORSDOF 4
ENDMDL
MODEL 7
REMARK VINA RESULT:      -4.9      2.611      4.042
REMARK  4 active torsions:
REMARK  status: ('A' for Active; 'I' for Inactive)
REMARK    1  A    between atoms: O_3  and  C_12 
REMARK    2  A    between atoms: N_4  and  C_6 
REMARK    3  A    between atoms: C_5  and  C_6 
REMARK    4  A    between atoms: C_5  and  C_7 
ROOT
HETATM    1  O   UNK N   1      34.653  18.012   6.923  0.00  0.00    -0.323 OA
HETATM    2  O   UNK N   1      33.170  17.822   8.559  0.00  0.00    -0.320 OA
HETATM    3  C   UNK N   1      31.821  17.049   4.773  0.00  0.00    -0.051 A 
HETATM    4  C   UNK N   1      33.151  17.420   5.072  0.00  0.00     0.047 A 
HETATM    5  C   UNK N   1      33.478  17.655   6.409  0.00  0.00     0.108 A 
HETATM    6  C   UNK N   1      30.886  16.932   5.826  0.00  0.00     0.047 A 
HETATM    7  C   UNK N   1      32.582  17.541   7.397  0.00  0.00     0.138 A 
HETATM    8  C   UNK N   1      31.259  17.178   7.160  0.00  0.00     0.104 A 
HETATM    9  C   UNK N   1      34.511  18.134   8.310  0.00  0.00     0.352 A 
ENDROOT
BRANCH   3  10
HETATM   10  C   UNK N   1      31.440  16.789   3.338  0.00  0.00     0.062 C 
BRANCH  10  11
HETATM   11  C   UNK N   1      30.363  15.729   3.041  0.00  0.00     0.074 C 
HETATM   12  C   UNK N   1      28.881  15.950   2.787  0.00  0.00     0.032 C 
BRANCH  11  13
HETATM   13  N   UNK N   1      30.812  14.351   2.996  0.00  0.00    -0.426 N 
HETATM   14  H   UNK N   1      30.944  13.829   3.862  0.00  0.00     0.150 HD
HETATM   15  H   UNK N   1      30.995  13.903   2.098  0.00  0.00     0.150 HD
ENDBRANCH  11  13
ENDBRANCH  10  11
ENDBRANCH   3  10
BRANCH   8  16
HETATM   16  O   UNK N   1      30.379  17.072   8.183  0.00  0.00    -0.353 OA
HETATM   17  C   UNK N   1      29.647  18.142   8.647  0.00  0.00     0.210 C 
ENDBRANCH   8  16
TORSDOF 4
ENDMDL
MODEL 8
REMARK VINA RESULT:      -4.8      8.277     10.293
REMARK  4 active torsions:
REMARK  status: ('A' for Active; 'I' for Inactive)
REMARK    1  A    between atoms: O_3  and  C_12 
REMARK    2  A    between atoms: N_4  and  C_6 
REMARK    3  A    between atoms: C_5  and  C_6 
REMARK    4  A    between atoms: C_5  and  C_7 
ROOT
HETATM    1  O   UNK N   1      25.342  19.518   3.666  0.00  0.00    -0.323 OA
HETATM    2  O   UNK N   1      24.355  20.942   2.284  0.00  0.00    -0.320 OA
HETATM    3  C   UNK N   1      21.890  18.533   4.490  0.00  0.00    -0.051 A 
HETATM    4  C   UNK N   1      23.299  18.497   4.570  0.00  0.00     0.047 A 
HETATM    5  C   UNK N   1      24.022  19.375   3.760  0.00  0.00     0.108 A 
HETATM    6  C   UNK N   1      21.273  19.445   3.604  0.00  0.00     0.047 A 
HETATM    7  C   UNK N   1      23.426  20.235   2.925  0.00  0.00     0.138 A 
HETATM    8  C   UNK N   1      22.041  20.314   2.806  0.00  0.00     0.104 A 
HETATM    9  C   UNK N   1      25.613  20.519   2.726  0.00  0.00     0.352 A 
ENDROOT
BRANCH   3  10
HETATM   10  C   UNK N   1      21.084  17.596   5.353  0.00  0.00     0.062 C 
BRANCH  10  11
HETATM   11  C   UNK N   1      20.314  16.446   4.676  0.00  0.00     0.074 C 
HETATM   12  C   UNK N   1      18.933  15.916   5.024  0.00  0.00     0.032 C 
BRANCH  11  13
HETATM   13  N   UNK N   1      20.983  15.786   3.572  0.00  0.00    -0.426 N 
HETATM   14  H   UNK N   1      20.804  16.087   2.614  0.00  0.00     0.150 HD
HETATM   15  H   UNK N   1      21.632  15.021   3.753  0.00  0.00     0.150 HD
ENDBRANCH  11  13
ENDBRANCH  10  11
ENDBRANCH   3  10
BRANCH   8  16
HETATM   16  O   UNK N   1      21.471  21.195   1.952  0.00  0.00    -0.353 OA
HETATM   17  C   UNK N   1      20.758  20.798   0.841  0.00  0.00     0.210 C 
ENDBRANCH   8  16
TORSDOF 4
ENDMDL
MODEL 9
REMARK VINA RESULT:      -4.8     15.476     17.199
REMARK  4 active torsions:
REMARK  status: ('A' for Active; 'I' for Inactive)
REMARK    1  A    between atoms: O_3  and  C_12 
REMARK    2  A    between atoms: N_4  and  C_6 
REMARK    3  A    between atoms: C_5  and  C_6 
REMARK    4  A    between atoms: C_5  and  C_7 
ROOT
HETATM    1  O   UNK N   1      28.722  29.203  -7.367  0.00  0.00    -0.323 OA
HETATM    2  O   UNK N   1      28.659  30.631  -5.673  0.00  0.00    -0.320 OA
HETATM    3  C   UNK N   1      25.994  27.529  -5.543  0.00  0.00    -0.051 A 
HETATM    4  C   UNK N   1      26.923  27.722  -6.589  0.00  0.00     0.047 A 
HETATM    5  C   UNK N   1      27.776  28.823  -6.509  0.00  0.00     0.108 A 
HETATM    6  C   UNK N   1      25.965  28.447  -4.469  0.00  0.00     0.047 A 
HETATM    7  C   UNK N   1      27.739  29.687  -5.486  0.00  0.00     0.138 A 
HETATM    8  C   UNK N   1      26.845  29.545  -4.429  0.00  0.00     0.104 A 
HETATM    9  C   UNK N   1      29.324  30.367  -6.875  0.00  0.00     0.352 A 
ENDROOT
BRANCH   3  10
HETATM   10  C   UNK N   1      25.059  26.347  -5.603  0.00  0.00     0.062 C 
BRANCH  10  11
HETATM   11  C   UNK N   1      25.622  24.944  -5.310  0.00  0.00     0.074 C 
HETATM   12  C   UNK N   1      26.384  24.482  -4.079  0.00  0.00     0.032 C 
BRANCH  11  13
HETATM   13  N   UNK N   1      25.402  23.937  -6.330  0.00  0.00    -0.426 N 
HETATM   14  H   UNK N   1      25.542  22.950  -6.111  0.00  0.00     0.150 HD
HETATM   15  H   UNK N   1      25.108  24.215  -7.266  0.00  0.00     0.150 HD
ENDBRANCH  11  13
ENDBRANCH  10  11
ENDBRANCH   3  10
BRANCH   8  16
HETATM   16  O   UNK N   1      26.833  30.436  -3.410  0.00  0.00    -0.353 OA
HETATM   17  C   UNK N   1      27.652  30.315  -2.309  0.00  0.00     0.210 C 
ENDBRANCH   8  16
TORSDOF 4
ENDMDL
