REMARK  4 active torsions:
REMARK  status: ('A' for Active; 'I' for Inactive)
REMARK    1  A    between atoms: N_3  and  C_4 
REMARK    2  A    between atoms: C_4  and  C_5 
REMARK    3  A    between atoms: C_6  and  C_10 
REMARK    4  A    between atoms: C_6  and  C_11 
ROOT
HETATM    1  C   UNK N   1       2.833   0.531   0.234  0.00  0.00     0.022 C 
HETATM    2  C   UNK N   1       3.890  -0.323   0.105  0.00  0.00    -0.004 C 
ENDROOT
BRANCH   2   3
HETATM    3  C   UNK N   1       5.334   0.089   0.013  0.00  0.00     0.016 A 
HETATM    4  S   UNK N   1       6.653  -0.909   0.211  0.00  0.00    -0.101 SA
HETATM    5  C   UNK N   1       7.893   0.161  -0.025  0.00  0.00     0.050 A 
HETATM    6  C   UNK N   1       7.284   1.391  -0.286  0.00  0.00     0.008 A 
HETATM    7  C   UNK N   1       5.863   1.348  -0.262  0.00  0.00     0.020 A 
ENDBRANCH   2   3
BRANCH   2   8
HETATM    8  C   UNK N   1       3.531  -1.775   0.088  0.00  0.00     0.016 A 
HETATM    9  S   UNK N   1       1.998  -2.407   0.188  0.00  0.00    -0.101 SA
HETATM   10  C   UNK N   1       2.332  -4.028   0.082  0.00  0.00     0.050 A 
HETATM   11  C   UNK N   1       3.723  -4.124  -0.044  0.00  0.00     0.008 A 
HETATM   12  C   UNK N   1       4.395  -2.870  -0.045  0.00  0.00     0.020 A 
ENDBRANCH   2   8
BRANCH   1  13
HETATM   13  C   UNK N   1       2.544   2.027   0.348  0.00  0.00     0.241 C 
HETATM   14  C   UNK N   1       3.693   2.976   0.056  0.00  0.00     0.047 C 
BRANCH  13  15
HETATM   15  N   UNK N   1       1.343   2.405  -0.420  0.00  0.00     0.087 N 
HETATM   16  C   UNK N   1       0.981   3.784  -0.114  0.00  0.00     0.310 C 
HETATM   17  C   UNK N   1       0.207   1.611   0.027  0.00  0.00     0.310 C 
ENDBRANCH  13  15
ENDBRANCH   1  13
TORSDOF 4
