MODEL 1
REMARK VINA RESULT:      -5.2      0.000      0.000
REMARK  4 active torsions:
REMARK  status: ('A' for Active; 'I' for Inactive)
REMARK    1  A    between atoms: N_3  and  C_4 
REMARK    2  A    between atoms: C_4  and  C_5 
REMARK    3  A    between atoms: C_6  and  C_10 
REMARK    4  A    between atoms: C_6  and  C_11 
ROOT
HETATM    1  C   UNK N   1      30.568  17.328   7.158  0.00  0.00     0.022 C 
HETATM    2  C   UNK N   1      31.876  17.019   6.919  0.00  0.00    -0.004 C 
ENDROOT
BRANCH   2   3
HETATM    3  C   UNK N   1      32.925  16.804   7.975  0.00  0.00     0.016 A 
HETATM    4  S   UNK N   1      33.115  15.434   8.904  0.00  0.00    -0.101 SA
HETATM    5  C   UNK N   1      34.423  15.858   9.823  0.00  0.00     0.050 A 
HETATM    6  C   UNK N   1      34.774  17.145   9.408  0.00  0.00     0.008 A 
HETATM    7  C   UNK N   1      33.939  17.668   8.383  0.00  0.00     0.020 A 
ENDBRANCH   2   3
BRANCH   2   8
HETATM    8  C   UNK N   1      32.235  16.866   5.475  0.00  0.00     0.016 A 
HETATM    9  S   UNK N   1      33.355  15.810   4.851  0.00  0.00    -0.101 SA
HETATM   10  C   UNK N   1      33.220  16.148   3.233  0.00  0.00     0.050 A 
HETATM   11  C   UNK N   1      32.243  17.146   3.131  0.00  0.00     0.008 A 
HETATM   12  C   UNK N   1      31.689  17.546   4.379  0.00  0.00     0.020 A 
ENDBRANCH   2   8
BRANCH   1  13
HETATM   13  C   UNK N   1      29.617  17.567   8.330  0.00  0.00     0.241 C 
HETATM   14  C   UNK N   1      30.014  18.634   9.334  0.00  0.00     0.047 C 
BRANCH  13  15
HETATM   15  N   UNK N   1      28.231  17.771   7.867  0.00  0.00     0.087 N 
HETATM   16  C   UNK N   1      27.965  16.906   6.724  0.00  0.00     0.310 C 
HETATM   17  C   UNK N   1      28.081  19.126   7.356  0.00  0.00     0.310 C 
ENDBRANCH  13  15
ENDBRANCH   1  13
TORSDOF 4
ENDMDL
MODEL 2
REMARK VINA RESULT:      -5.2      2.619      4.663
REMARK  4 active torsions:
REMARK  status: ('A' for Active; 'I' for Inactive)
REMARK    1  A    between atoms: N_3  and  C_4 
REMARK    2  A    between atoms: C_4  and  C_5 
REMARK    3  A    between atoms: C_6  and  C_10 
REMARK    4  A    between atoms: C_6  and  C_11 
ROOT
HETATM    1  C   UNK N   1      29.402  17.683   6.830  0.00  0.00     0.022 C 
HETATM    2  C   UNK N   1      29.473  17.727   5.468  0.00  0.00    -0.004 C 
ENDROOT
BRANCH   2   3
HETATM    3  C   UNK N   1      30.579  17.138   4.635  0.00  0.00     0.016 A 
HETATM    4  S   UNK N   1      30.593  15.616   3.958  0.00  0.00    -0.101 SA
HETATM    5  C   UNK N   1      32.059  15.628   3.192  0.00  0.00     0.050 A 
HETATM    6  C   UNK N   1      32.607  16.887   3.448  0.00  0.00     0.008 A 
HETATM    7  C   UNK N   1      31.783  17.722   4.251  0.00  0.00     0.020 A 
ENDBRANCH   2   3
BRANCH   2   8
HETATM    8  C   UNK N   1      28.318  18.400   4.796  0.00  0.00     0.016 A 
HETATM    9  S   UNK N   1      27.003  17.646   4.117  0.00  0.00    -0.101 SA
HETATM   10  C   UNK N   1      26.134  18.961   3.600  0.00  0.00     0.050 A 
HETATM   11  C   UNK N   1      26.886  20.083   3.967  0.00  0.00     0.008 A 
HETATM   12  C   UNK N   1      28.102  19.776   4.637  0.00  0.00     0.020 A 
ENDBRANCH   2   8
BRANCH   1  13
HETATM   13  C   UNK N   1      30.185  17.142   8.026  0.00  0.00     0.241 C 
HETATM   14  C   UNK N   1      31.633  17.578   8.157  0.00  0.00     0.047 C 
BRANCH  13  15
HETATM   15  N   UNK N   1      29.456  17.357   9.290  0.00  0.00     0.087 N 
HETATM   16  C   UNK N   1      28.020  17.356   9.033  0.00  0.00     0.310 C 
HETATM   17  C   UNK N   1      29.745  18.690   9.800  0.00  0.00     0.310 C 
ENDBRANCH  13  15
ENDBRANCH   1  13
TORSDOF 4
ENDMDL
MODEL 3
REMARK VINA RESULT:      -5.0      2.126      4.561
REMARK  4 active torsions:
REMARK  status: ('A' for Active; 'I' for Inactive)
REMARK    1  A    between atoms: N_3  and  C_4 
REMARK    2  A    between atoms: C_4  and  C_5 
REMARK    3  A    between atoms: C_6  and  C_10 
REMARK    4  A    between atoms: C_6  and  C_11 
ROOT
HETATM    1  C   UNK N   1      32.459  17.175   6.296  0.00  0.00     0.022 C 
HETATM    2  C   UNK N   1      32.190  17.061   7.630  0.00  0.00    -0.004 C 
ENDROOT
BRANCH   2   3
HETATM    3  C   UNK N   1      33.155  16.563   8.671  0.00  0.00     0.016 A 
HETATM    4  S   UNK N   1      33.045  15.122   9.501  0.00  0.00    -0.101 SA
HETATM    5  C   UNK N   1      34.396  15.205  10.452  0.00  0.00     0.050 A 
HETATM    6  C   UNK N   1      35.009  16.419  10.130  0.00  0.00     0.008 A 
HETATM    7  C   UNK N   1      34.316  17.171   9.142  0.00  0.00     0.020 A 
ENDBRANCH   2   3
BRANCH   2   8
HETATM    8  C   UNK N   1      30.822  17.508   8.039  0.00  0.00     0.016 A 
HETATM    9  S   UNK N   1      29.400  17.150   7.260  0.00  0.00    -0.101 SA
HETATM   10  C   UNK N   1      28.312  17.920   8.247  0.00  0.00     0.050 A 
HETATM   11  C   UNK N   1      29.071  18.506   9.267  0.00  0.00     0.008 A 
HETATM   12  C   UNK N   1      30.470  18.275   9.157  0.00  0.00     0.020 A 
ENDBRANCH   2   8
BRANCH   1  13
HETATM   13  C   UNK N   1      33.601  16.943   5.309  0.00  0.00     0.241 C 
HETATM   14  C   UNK N   1      34.350  15.627   5.417  0.00  0.00     0.047 C 
BRANCH  13  15
HETATM   15  N   UNK N   1      33.173  17.191   3.919  0.00  0.00     0.087 N 
HETATM   16  C   UNK N   1      31.773  17.599   3.905  0.00  0.00     0.310 C 
HETATM   17  C   UNK N   1      33.207  15.944   3.168  0.00  0.00     0.310 C 
ENDBRANCH  13  15
ENDBRANCH   1  13
TORSDOF 4
ENDMDL
MODEL 4
REMARK VINA RESULT:      -5.0      0.964      4.212
REMARK  4 active torsions:
REMARK  status: ('A' for Active; 'I' for Inactive)
REMARK    1  A    between atoms: N_3  and  C_4 
REMARK    2  A    between atoms: C_4  and  C_5 
REMARK    3  A    between atoms: C_6  and  C_10 
REMARK    4  A    between atoms: C_6  and  C_11 
ROOT
HETATM    1  C   UNK N   1      30.795  17.338   7.784  0.00  0.00     0.022 C 
HETATM    2  C   UNK N   1      31.923  16.901   7.152  0.00  0.00    -0.004 C 
ENDROOT
BRANCH   2   3
HETATM    3  C   UNK N   1      32.082  16.751   5.663  0.00  0.00     0.016 A 
HETATM    4  S   UNK N   1      31.329  15.614   4.706  0.00  0.00    -0.101 SA
HETATM    5  C   UNK N   1      31.927  16.014   3.216  0.00  0.00     0.050 A 
HETATM    6  C   UNK N   1      32.769  17.108   3.430  0.00  0.00     0.008 A 
HETATM    7  C   UNK N   1      32.855  17.513   4.790  0.00  0.00     0.020 A 
ENDBRANCH   2   3
BRANCH   2   8
HETATM    8  C   UNK N   1      33.073  16.586   8.055  0.00  0.00     0.016 A 
HETATM    9  S   UNK N   1      33.650  15.070   8.415  0.00  0.00    -0.101 SA
HETATM   10  C   UNK N   1      34.912  15.458   9.419  0.00  0.00     0.050 A 
HETATM   11  C   UNK N   1      34.918  16.856   9.502  0.00  0.00     0.008 A 
HETATM   12  C   UNK N   1      33.897  17.488   8.740  0.00  0.00     0.020 A 
ENDBRANCH   2   8
BRANCH   1  13
HETATM   13  C   UNK N   1      29.385  17.828   7.458  0.00  0.00     0.241 C 
HETATM   14  C   UNK N   1      28.472  16.862   6.724  0.00  0.00     0.047 C 
BRANCH  13  15
HETATM   15  N   UNK N   1      28.715  18.379   8.651  0.00  0.00     0.087 N 
HETATM   16  C   UNK N   1      29.714  18.725   9.656  0.00  0.00     0.310 C 
HETATM   17  C   UNK N   1      27.899  17.346   9.274  0.00  0.00     0.310 C 
ENDBRANCH  13  15
ENDBRANCH   1  13
TORSDOF 4
ENDMDL
MODEL 5
REMARK VINA RESULT:      -4.9     13.048     15.962
REMARK  4 active torsions:
REMARK  status: ('A' for Active; 'I' for Inactive)
REMARK    1  A    between atoms: N_3  and  C_4 
REMARK    2  A    between atoms: C_4  and  C_5 
REMARK    3  A    between atoms: C_6  and  C_10 
REMARK    4  A    between atoms: C_6  and  C_11 
ROOT
HETATM    1  C   UNK N   1      28.134  24.006  -4.794  0.00  0.00     0.022 C 
HETATM    2  C   UNK N   1      27.032  24.245  -5.562  0.00  0.00    -0.004 C 
ENDROOT
BRANCH   2   3
HETATM    3  C   UNK N   1      26.502  23.329  -6.632  0.00  0.00     0.016 A 
HETATM    4  S   UNK N   1      27.102  23.178  -8.179  0.00  0.00    -0.101 SA
HETATM    5  C   UNK N   1      26.088  22.026  -8.796  0.00  0.00     0.050 A 
HETATM    6  C   UNK N   1      25.210  21.702  -7.758  0.00  0.00     0.008 A 
HETATM    7  C   UNK N   1      25.442  22.429  -6.558  0.00  0.00     0.020 A 
ENDBRANCH   2   3
BRANCH   2   8
HETATM    8  C   UNK N   1      26.312  25.520  -5.256  0.00  0.00     0.016 A 
HETATM    9  S   UNK N   1      26.573  26.502  -3.941  0.00  0.00    -0.101 SA
HETATM   10  C   UNK N   1      25.482  27.713  -4.247  0.00  0.00     0.050 A 
HETATM   11  C   UNK N   1      24.854  27.367  -5.449  0.00  0.00     0.008 A 
HETATM   12  C   UNK N   1      25.316  26.147  -6.017  0.00  0.00     0.020 A 
ENDBRANCH   2   8
BRANCH   1  13
HETATM   13  C   UNK N   1      29.212  22.942  -4.591  0.00  0.00     0.241 C 
HETATM   14  C   UNK N   1      30.025  22.543  -5.810  0.00  0.00     0.047 C 
BRANCH  13  15
HETATM   15  N   UNK N   1      30.094  23.275  -3.458  0.00  0.00     0.087 N 
HETATM   16  C   UNK N   1      29.402  23.003  -2.203  0.00  0.00     0.310 C 
HETATM   17  C   UNK N   1      30.349  24.709  -3.442  0.00  0.00     0.310 C 
ENDBRANCH  13  15
ENDBRANCH   1  13
TORSDOF 4
ENDMDL
MODEL 6
REMARK VINA RESULT:      -4.9     12.719     15.361
REMARK  4 active torsions:
REMARK  status: ('A' for Active; 'I' for Inactive)
REMARK    1  A    between atoms: N_3  and  C_4 
REMARK    2  A    between atoms: C_4  and  C_5 
REMARK    3  A    between atoms: C_6  and  C_10 
REMARK    4  A    between atoms: C_6  and  C_11 
ROOT
HETATM    1  C   UNK N   1      27.989  25.787  -4.711  0.00  0.00     0.022 C 
HETATM    2  C   UNK N   1      28.143  24.444  -4.899  0.00  0.00    -0.004 C 
ENDROOT
BRANCH   2   3
HETATM    3  C   UNK N   1      27.339  23.601  -5.851  0.00  0.00     0.016 A 
HETATM    4  S   UNK N   1      27.950  22.637  -7.064  0.00  0.00    -0.101 SA
HETATM    5  C   UNK N   1      26.556  22.007  -7.696  0.00  0.00     0.050 A 
HETATM    6  C   UNK N   1      25.519  22.553  -6.936  0.00  0.00     0.008 A 
HETATM    7  C   UNK N   1      25.956  23.439  -5.914  0.00  0.00     0.020 A 
ENDBRANCH   2   3
BRANCH   2   8
HETATM    8  C   UNK N   1      29.232  23.813  -4.090  0.00  0.00     0.016 A 
HETATM    9  S   UNK N   1      30.814  23.619  -4.558  0.00  0.00    -0.101 SA
HETATM   10  C   UNK N   1      31.443  22.899  -3.204  0.00  0.00     0.050 A 
HETATM   11  C   UNK N   1      30.380  22.787  -2.300  0.00  0.00     0.008 A 
HETATM   12  C   UNK N   1      29.146  23.300  -2.789  0.00  0.00     0.020 A 
ENDBRANCH   2   8
BRANCH   1  13
HETATM   13  C   UNK N   1      27.142  26.951  -5.224  0.00  0.00     0.241 C 
HETATM   14  C   UNK N   1      27.041  27.119  -6.730  0.00  0.00     0.047 C 
BRANCH  13  15
HETATM   15  N   UNK N   1      25.804  26.960  -4.604  0.00  0.00     0.087 N 
HETATM   16  C   UNK N   1      24.787  27.112  -5.637  0.00  0.00     0.310 C 
HETATM   17  C   UNK N   1      25.664  28.141  -3.763  0.00  0.00     0.310 C 
ENDBRANCH  13  15
ENDBRANCH   1  13
TORSDOF 4
ENDMDL
MODEL 7
REMARK VINA RESULT:      -4.9      2.366      5.523
REMARK  4 active torsions:
REMARK  status: ('A' for Active; 'I' for Inactive)
REMARK    1  A    between atoms: N_3  and  C_4 
REMARK    2  A    between atoms: C_4  and  C_5 
REMARK    3  A    between atoms: C_6  and  C_10 
REMARK    4  A    between atoms: C_6  and  C_11 
ROOT
HETATM    1  C   UNK N   1      32.980  16.959   8.312  0.00  0.00     0.022 C 
HETATM    2  C   UNK N   1      32.038  17.093   7.334  0.00  0.00    -0.004 C 
ENDROOT
BRANCH   2   3
HETATM    3  C   UNK N   1      32.249  16.782   5.877  0.00  0.00     0.016 A 
HETATM    4  S   UNK N   1      31.919  15.332   5.126  0.00  0.00    -0.101 SA
HETATM    5  C   UNK N   1      32.363  15.678   3.570  0.00  0.00     0.050 A 
HETATM    6  C   UNK N   1      32.797  17.005   3.588  0.00  0.00     0.008 A 
HETATM    7  C   UNK N   1      32.735  17.615   4.871  0.00  0.00     0.020 A 
ENDBRANCH   2   3
BRANCH   2   8
HETATM    8  C   UNK N   1      30.699  17.561   7.806  0.00  0.00     0.016 A 
HETATM    9  S   UNK N   1      29.245  17.299   7.047  0.00  0.00    -0.101 SA
HETATM   10  C   UNK N   1      28.211  18.047   8.106  0.00  0.00     0.050 A 
HETATM   11  C   UNK N   1      29.016  18.546   9.137  0.00  0.00     0.008 A 
HETATM   12  C   UNK N   1      30.403  18.274   8.975  0.00  0.00     0.020 A 
ENDBRANCH   2   8
BRANCH   1  13
HETATM   13  C   UNK N   1      34.433  16.516   8.487  0.00  0.00     0.241 C 
HETATM   14  C   UNK N   1      35.067  16.751   9.846  0.00  0.00     0.047 C 
BRANCH  13  15
HETATM   15  N   UNK N   1      34.628  15.121   8.050  0.00  0.00     0.087 N 
HETATM   16  C   UNK N   1      35.483  14.426   9.005  0.00  0.00     0.310 C 
HETATM   17  C   UNK N   1      35.370  15.100   6.797  0.00  0.00     0.310 C 
ENDBRANCH  13  15
ENDBRANCH   1  13
TORSDOF 4
ENDMDL
MODEL 8
REMARK VINA RESULT:      -4.9      2.952      6.148
REMARK  4 active torsions:
REMARK  status: ('A' for Active; 'I' for Inactive)
REMARK    1  A    between atoms: N_3  and  C_4 
REMARK    2  A    between atoms: C_4  and  C_5 
REMARK    3  A    between atoms: C_6  and  C_10 
REMARK    4  A    between atoms: C_6  and  C_11 
ROOT
HETATM    1  C   UNK N   1      31.737  16.996   6.129  0.00  0.00     0.022 C 
HETATM    2  C   UNK N   1      30.375  16.944   6.186  0.00  0.00    -0.004 C 
ENDROOT
BRANCH   2   3
HETATM    3  C   UNK N   1      29.480  16.401   5.106  0.00  0.00     0.016 A 
HETATM    4  S   UNK N   1      28.983  14.819   4.946  0.00  0.00    -0.101 SA
HETATM    5  C   UNK N   1      28.039  14.922   3.592  0.00  0.00     0.050 A 
HETATM    6  C   UNK N   1      28.078  16.265   3.207  0.00  0.00     0.008 A 
HETATM    7  C   UNK N   1      28.881  17.083   4.049  0.00  0.00     0.020 A 
ENDBRANCH   2   3
BRANCH   2   8
HETATM    8  C   UNK N   1      29.775  17.454   7.459  0.00  0.00     0.016 A 
HETATM    9  S   UNK N   1      28.172  17.380   7.885  0.00  0.00    -0.101 SA
HETATM   10  C   UNK N   1      28.226  18.081   9.387  0.00  0.00     0.050 A 
HETATM   11  C   UNK N   1      29.570  18.407   9.608  0.00  0.00     0.008 A 
HETATM   12  C   UNK N   1      30.437  18.055   8.537  0.00  0.00     0.020 A 
ENDBRANCH   2   8
BRANCH   1  13
HETATM   13  C   UNK N   1      32.885  16.622   5.192  0.00  0.00     0.241 C 
HETATM   14  C   UNK N   1      32.851  17.210   3.792  0.00  0.00     0.047 C 
BRANCH  13  15
HETATM   15  N   UNK N   1      34.196  16.852   5.826  0.00  0.00     0.087 N 
HETATM   16  C   UNK N   1      34.800  15.572   6.178  0.00  0.00     0.310 C 
HETATM   17  C   UNK N   1      34.012  17.541   7.096  0.00  0.00     0.310 C 
ENDBRANCH  13  15
ENDBRANCH   1  13
TORSDOF 4
ENDMDL
MODEL 9
REMARK VINA RESULT:      -4.7     15.412     17.793
REMARK  4 active torsions:
REMARK  status: ('A' for Active; 'I' for Inactive)
REMARK    1  A    between atoms: N_3  and  C_4 
REMARK    2  A    between atoms: C_4  and  C_5 
REMARK    3  A    between atoms: C_6  and  C_10 
REMARK    4  A    between atoms: C_6  and  C_11 
ROOT
HETATM    1  C   UNK N   1      26.032  23.775  -6.349  0.00  0.00     0.022 C 
HETATM    2  C   UNK N   1      26.145  25.092  -6.686  0.00  0.00    -0.004 C 
ENDROOT
BRANCH   2   3
HETATM    3  C   UNK N   1      26.399  25.616  -8.073  0.00  0.00     0.016 A 
HETATM    4  S   UNK N   1      27.732  26.486  -8.564  0.00  0.00    -0.101 SA
HETATM    5  C   UNK N   1      27.380  26.723 -10.163  0.00  0.00     0.050 A 
HETATM    6  C   UNK N   1      26.152  26.091 -10.376  0.00  0.00     0.008 A 
HETATM    7  C   UNK N   1      25.609  25.480  -9.212  0.00  0.00     0.020 A 
ENDBRANCH   2   3
BRANCH   2   8
HETATM    8  C   UNK N   1      25.965  26.052  -5.553  0.00  0.00     0.016 A 
HETATM    9  S   UNK N   1      26.553  25.869  -4.010  0.00  0.00    -0.101 SA
HETATM   10  C   UNK N   1      26.020  27.277  -3.315  0.00  0.00     0.050 A 
HETATM   11  C   UNK N   1      25.334  27.965  -4.323  0.00  0.00     0.008 A 
HETATM   12  C   UNK N   1      25.304  27.288  -5.573  0.00  0.00     0.020 A 
ENDBRANCH   2   8
BRANCH   1  13
HETATM   13  C   UNK N   1      26.069  22.393  -7.000  0.00  0.00     0.241 C 
HETATM   14  C   UNK N   1      24.859  21.984  -7.822  0.00  0.00     0.047 C 
BRANCH  13  15
HETATM   15  N   UNK N   1      27.315  22.188  -7.762  0.00  0.00     0.087 N 
HETATM   16  C   UNK N   1      27.305  20.862  -8.368  0.00  0.00     0.310 C 
HETATM   17  C   UNK N   1      28.449  22.174  -6.849  0.00  0.00     0.310 C 
ENDBRANCH  13  15
ENDBRANCH   1  13
TORSDOF 4
ENDMDL
