MODEL 1
REMARK VINA RESULT:      -5.4      0.000      0.000
REMARK  4 active torsions:
REMARK  status: ('A' for Active; 'I' for Inactive)
REMARK    1  A    between atoms: O_1  and  C_12 
REMARK    2  A    between atoms: N_2  and  C_7 
REMARK    3  A    between atoms: C_4  and  C_5 
REMARK    4  A    between atoms: C_4  and  C_7 
ROOT
HETATM    1  N   UNK N   1      25.425  24.501  -5.996  0.00  0.00    -0.365 N 
HETATM    2  C   UNK N   1      26.707  24.364  -4.157  0.00  0.00    -0.029 A 
HETATM    3  C   UNK N   1      26.253  25.652  -4.269  0.00  0.00     0.001 A 
HETATM    4  C   UNK N   1      25.475  25.703  -5.390  0.00  0.00     0.043 A 
HETATM    5  C   UNK N   1      26.182  23.664  -5.239  0.00  0.00     0.096 A 
HETATM    6  C   UNK N   1      26.452  26.768  -3.459  0.00  0.00     0.050 A 
HETATM    7  C   UNK N   1      24.831  26.871  -5.785  0.00  0.00     0.033 A 
HETATM    8  C   UNK N   1      25.822  27.969  -3.831  0.00  0.00     0.066 A 
HETATM    9  C   UNK N   1      25.011  28.019  -4.990  0.00  0.00     0.039 A 
HETATM   10  H   UNK N   1      24.937  24.275  -6.821  0.00  0.00     0.165 HD
ENDROOT
BRANCH   2  11
HETATM   11  C   UNK N   1      27.538  23.816  -3.043  0.00  0.00     0.071 C 
BRANCH  11  12
HETATM   12  C   UNK N   1      29.030  23.979  -3.278  0.00  0.00     0.276 C 
BRANCH  12  13
HETATM   13  N   UNK N   1      29.644  22.661  -3.361  0.00  0.00     0.080 N 
HETATM   14  C   UNK N   1      29.909  22.383  -4.760  0.00  0.00     0.309 C 
HETATM   15  C   UNK N   1      30.930  22.724  -2.686  0.00  0.00     0.309 C 
ENDBRANCH  12  13
ENDBRANCH  11  12
ENDBRANCH   2  11
BRANCH   8  16
HETATM   16  O   UNK N   1      25.990  29.071  -3.083  0.00  0.00    -0.361 OA
HETATM   17  H   UNK N   1      26.399  29.010  -2.243  0.00  0.00     0.217 HD
ENDBRANCH   8  16
TORSDOF 4
ENDMDL
MODEL 2
REMARK VINA RESULT:      -5.2     17.333     19.111
REMARK  4 active torsions:
REMARK  status: ('A' for Active; 'I' for Inactive)
REMARK    1  A    between atoms: O_1  and  C_12 
REMARK    2  A    between atoms: N_2  and  C_7 
REMARK    3  A    between atoms: C_4  and  C_5 
REMARK    4  A    between atoms: C_4  and  C_7 
ROOT
HETATM    1  N   UNK N   1      24.338  13.624   8.082  0.00  0.00    -0.365 N 
HETATM    2  C   UNK N   1      22.120  13.817   8.375  0.00  0.00    -0.029 A 
HETATM    3  C   UNK N   1      22.641  13.164   9.461  0.00  0.00     0.001 A 
HETATM    4  C   UNK N   1      23.987  13.066   9.256  0.00  0.00     0.043 A 
HETATM    5  C   UNK N   1      23.189  14.095   7.529  0.00  0.00     0.096 A 
HETATM    6  C   UNK N   1      22.033  12.671  10.613  0.00  0.00     0.050 A 
HETATM    7  C   UNK N   1      24.831  12.474  10.191  0.00  0.00     0.033 A 
HETATM    8  C   UNK N   1      22.854  12.059  11.577  0.00  0.00     0.066 A 
HETATM    9  C   UNK N   1      24.250  11.964  11.367  0.00  0.00     0.039 A 
HETATM   10  H   UNK N   1      25.244  13.680   7.701  0.00  0.00     0.165 HD
ENDROOT
BRANCH   2  11
HETATM   11  C   UNK N   1      20.692  14.214   8.187  0.00  0.00     0.071 C 
BRANCH  11  12
HETATM   12  C   UNK N   1      20.307  15.448   8.987  0.00  0.00     0.276 C 
BRANCH  12  13
HETATM   13  N   UNK N   1      19.621  16.386   8.110  0.00  0.00     0.080 N 
HETATM   14  C   UNK N   1      19.132  17.481   8.927  0.00  0.00     0.309 C 
HETATM   15  C   UNK N   1      20.603  16.941   7.194  0.00  0.00     0.309 C 
ENDBRANCH  12  13
ENDBRANCH  11  12
ENDBRANCH   2  11
BRANCH   8  16
HETATM   16  O   UNK N   1      22.311  11.565  12.701  0.00  0.00    -0.361 OA
HETATM   17  H   UNK N   1      22.569  11.904  13.535  0.00  0.00     0.217 HD
ENDBRANCH   8  16
TORSDOF 4
ENDMDL
MODEL 3
REMARK VINA RESULT:      -5.1     11.248     13.182
REMARK  4 active torsions:
REMARK  status: ('A' for Active; 'I' for Inactive)
REMARK    1  A    between atoms: O_1  and  C_12 
REMARK    2  A    between atoms: N_2  and  C_7 
REMARK    3  A    between atoms: C_4  and  C_5 
REMARK    4  A    between atoms: C_4  and  C_7 
ROOT
HETATM    1  N   UNK N   1      27.888  18.957   8.651  0.00  0.00    -0.365 N 
HETATM    2  C   UNK N   1      28.955  17.555   7.258  0.00  0.00    -0.029 A 
HETATM    3  C   UNK N   1      28.377  18.547   6.510  0.00  0.00     0.001 A 
HETATM    4  C   UNK N   1      27.742  19.383   7.382  0.00  0.00     0.043 A 
HETATM    5  C   UNK N   1      28.640  17.827   8.586  0.00  0.00     0.096 A 
HETATM    6  C   UNK N   1      28.382  18.780   5.136  0.00  0.00     0.050 A 
HETATM    7  C   UNK N   1      27.069  20.521   6.950  0.00  0.00     0.033 A 
HETATM    8  C   UNK N   1      27.705  19.919   4.663  0.00  0.00     0.066 A 
HETATM    9  C   UNK N   1      27.053  20.788   5.568  0.00  0.00     0.039 A 
HETATM   10  H   UNK N   1      27.524  19.379   9.463  0.00  0.00     0.165 HD
ENDROOT
BRANCH   2  11
HETATM   11  C   UNK N   1      29.816  16.449   6.741  0.00  0.00     0.071 C 
BRANCH  11  12
HETATM   12  C   UNK N   1      31.158  16.358   7.449  0.00  0.00     0.276 C 
BRANCH  12  13
HETATM   13  N   UNK N   1      31.950  17.533   7.115  0.00  0.00     0.080 N 
HETATM   14  C   UNK N   1      32.815  17.821   8.244  0.00  0.00     0.309 C 
HETATM   15  C   UNK N   1      32.810  17.189   5.995  0.00  0.00     0.309 C 
ENDBRANCH  12  13
ENDBRANCH  11  12
ENDBRANCH   2  11
BRANCH   8  16
HETATM   16  O   UNK N   1      27.680  20.181   3.346  0.00  0.00    -0.361 OA
HETATM   17  H   UNK N   1      27.265  20.959   3.031  0.00  0.00     0.217 HD
ENDBRANCH   8  16
TORSDOF 4
ENDMDL
MODEL 4
REMARK VINA RESULT:      -5.1     22.698     26.005
REMARK  4 active torsions:
REMARK  status: ('A' for Active; 'I' for Inactive)
REMARK    1  A    between atoms: O_1  and  C_12 
REMARK    2  A    between atoms: N_2  and  C_7 
REMARK    3  A    between atoms: C_4  and  C_5 
REMARK    4  A    between atoms: C_4  and  C_7 
ROOT
HETATM    1  N   UNK N   1      36.313  10.325  16.388  0.00  0.00    -0.365 N 
HETATM    2  C   UNK N   1      35.776  12.434  15.831  0.00  0.00    -0.029 A 
HETATM    3  C   UNK N   1      35.581  12.282  17.179  0.00  0.00     0.001 A 
HETATM    4  C   UNK N   1      35.919  10.996  17.487  0.00  0.00     0.043 A 
HETATM    5  C   UNK N   1      36.230  11.207  15.357  0.00  0.00     0.096 A 
HETATM    6  C   UNK N   1      35.152  13.184  18.151  0.00  0.00     0.050 A 
HETATM    7  C   UNK N   1      35.862  10.513  18.791  0.00  0.00     0.033 A 
HETATM    8  C   UNK N   1      35.075  12.728  19.479  0.00  0.00     0.066 A 
HETATM    9  C   UNK N   1      35.432  11.397  19.798  0.00  0.00     0.039 A 
HETATM   10  H   UNK N   1      36.602   9.385  16.340  0.00  0.00     0.165 HD
ENDROOT
BRANCH   2  11
HETATM   11  C   UNK N   1      35.603  13.696  15.053  0.00  0.00     0.071 C 
BRANCH  11  12
HETATM   12  C   UNK N   1      36.268  13.649  13.687  0.00  0.00     0.276 C 
BRANCH  12  13
HETATM   13  N   UNK N   1      35.292  14.021  12.672  0.00  0.00     0.080 N 
HETATM   14  C   UNK N   1      35.840  15.131  11.915  0.00  0.00     0.309 C 
HETATM   15  C   UNK N   1      35.154  12.903  11.754  0.00  0.00     0.309 C 
ENDBRANCH  12  13
ENDBRANCH  11  12
ENDBRANCH   2  11
BRANCH   8  16
HETATM   16  O   UNK N   1      34.663  13.562  20.448  0.00  0.00    -0.361 OA
HETATM   17  H   UNK N   1      35.087  13.556  21.283  0.00  0.00     0.217 HD
ENDBRANCH   8  16
TORSDOF 4
ENDMDL
MODEL 5
REMARK VINA RESULT:      -5.0     12.419     14.309
REMARK  4 active torsions:
REMARK  status: ('A' for Active; 'I' for Inactive)
REMARK    1  A    between atoms: O_1  and  C_12 
REMARK    2  A    between atoms: N_2  and  C_7 
REMARK    3  A    between atoms: C_4  and  C_5 
REMARK    4  A    between atoms: C_4  and  C_7 
ROOT
HETATM    1  N   UNK N   1      31.965  17.518   9.040  0.00  0.00    -0.365 N 
HETATM    2  C   UNK N   1      31.752  16.874   6.898  0.00  0.00    -0.029 A 
HETATM    3  C   UNK N   1      30.550  17.383   7.315  0.00  0.00     0.001 A 
HETATM    4  C   UNK N   1      30.712  17.769   8.615  0.00  0.00     0.043 A 
HETATM    5  C   UNK N   1      32.619  16.966   7.983  0.00  0.00     0.096 A 
HETATM    6  C   UNK N   1      29.342  17.550   6.642  0.00  0.00     0.050 A 
HETATM    7  C   UNK N   1      29.681  18.357   9.340  0.00  0.00     0.033 A 
HETATM    8  C   UNK N   1      28.275  18.136   7.346  0.00  0.00     0.066 A 
HETATM    9  C   UNK N   1      28.445  18.541   8.691  0.00  0.00     0.039 A 
HETATM   10  H   UNK N   1      32.333  17.698   9.935  0.00  0.00     0.165 HD
ENDROOT
BRANCH   2  11
HETATM   11  C   UNK N   1      32.075  16.391   5.522  0.00  0.00     0.071 C 
BRANCH  11  12
HETATM   12  C   UNK N   1      32.539  17.501   4.594  0.00  0.00     0.276 C 
BRANCH  12  13
HETATM   13  N   UNK N   1      32.364  17.069   3.215  0.00  0.00     0.080 N 
HETATM   14  C   UNK N   1      33.301  15.990   2.966  0.00  0.00     0.309 C 
HETATM   15  C   UNK N   1      31.028  16.513   3.086  0.00  0.00     0.309 C 
ENDBRANCH  12  13
ENDBRANCH  11  12
ENDBRANCH   2  11
BRANCH   8  16
HETATM   16  O   UNK N   1      27.091  18.312   6.739  0.00  0.00    -0.361 OA
HETATM   17  H   UNK N   1      27.024  18.230   5.808  0.00  0.00     0.217 HD
ENDBRANCH   8  16
TORSDOF 4
ENDMDL
MODEL 6
REMARK VINA RESULT:      -5.0     23.593     26.853
REMARK  4 active torsions:
REMARK  status: ('A' for Active; 'I' for Inactive)
REMARK    1  A    between atoms: O_1  and  C_12 
REMARK    2  A    between atoms: N_2  and  C_7 
REMARK    3  A    between atoms: C_4  and  C_5 
REMARK    4  A    between atoms: C_4  and  C_7 
ROOT
HETATM    1  N   UNK N   1      35.290  13.451  19.332  0.00  0.00    -0.365 N 
HETATM    2  C   UNK N   1      35.271  13.039  17.124  0.00  0.00    -0.029 A 
HETATM    3  C   UNK N   1      35.218  11.840  17.786  0.00  0.00     0.001 A 
HETATM    4  C   UNK N   1      35.227  12.122  19.121  0.00  0.00     0.043 A 
HETATM    5  C   UNK N   1      35.315  14.028  18.102  0.00  0.00     0.096 A 
HETATM    6  C   UNK N   1      35.144  10.533  17.309  0.00  0.00     0.050 A 
HETATM    7  C   UNK N   1      35.155  11.121  20.085  0.00  0.00     0.033 A 
HETATM    8  C   UNK N   1      35.077   9.494  18.255  0.00  0.00     0.066 A 
HETATM    9  C   UNK N   1      35.080   9.788  19.639  0.00  0.00     0.039 A 
HETATM   10  H   UNK N   1      35.314  13.911  20.203  0.00  0.00     0.165 HD
ENDROOT
BRANCH   2  11
HETATM   11  C   UNK N   1      35.213  13.232  15.644  0.00  0.00     0.071 C 
BRANCH  11  12
HETATM   12  C   UNK N   1      36.581  13.432  15.016  0.00  0.00     0.276 C 
BRANCH  12  13
HETATM   13  N   UNK N   1      36.464  13.293  13.571  0.00  0.00     0.080 N 
HETATM   14  C   UNK N   1      35.336  12.421  13.300  0.00  0.00     0.309 C 
HETATM   15  C   UNK N   1      36.138  14.598  13.021  0.00  0.00     0.309 C 
ENDBRANCH  12  13
ENDBRANCH  11  12
ENDBRANCH   2  11
BRANCH   8  16
HETATM   16  O   UNK N   1      35.009   8.218  17.842  0.00  0.00    -0.361 OA
HETATM   17  H   UNK N   1      35.320   7.984  16.989  0.00  0.00     0.217 HD
ENDBRANCH   8  16
TORSDOF 4
ENDMDL
MODEL 7
REMARK VINA RESULT:      -4.9     14.219     15.402
REMARK  4 active torsions:
REMARK  status: ('A' for Active; 'I' for Inactive)
REMARK    1  A    between atoms: O_1  and  C_12 
REMARK    2  A    between atoms: N_2  and  C_7 
REMARK    3  A    between atoms: C_4  and  C_5 
REMARK    4  A    between atoms: C_4  and  C_7 
ROOT
HETATM    1  N   UNK N   1      30.348  16.402   5.633  0.00  0.00    -0.365 N 
HETATM    2  C   UNK N   1      32.223  17.201   6.576  0.00  0.00    -0.029 A 
HETATM    3  C   UNK N   1      31.171  17.476   7.411  0.00  0.00     0.001 A 
HETATM    4  C   UNK N   1      30.050  16.975   6.815  0.00  0.00     0.043 A 
HETATM    5  C   UNK N   1      31.692  16.534   5.477  0.00  0.00     0.096 A 
HETATM    6  C   UNK N   1      31.127  18.108   8.652  0.00  0.00     0.050 A 
HETATM    7  C   UNK N   1      28.798  17.061   7.415  0.00  0.00     0.033 A 
HETATM    8  C   UNK N   1      29.876  18.220   9.285  0.00  0.00     0.066 A 
HETATM    9  C   UNK N   1      28.715  17.695   8.669  0.00  0.00     0.039 A 
HETATM   10  H   UNK N   1      29.719  15.973   5.008  0.00  0.00     0.165 HD
ENDROOT
BRANCH   2  11
HETATM   11  C   UNK N   1      33.662  17.499   6.845  0.00  0.00     0.071 C 
BRANCH  11  12
HETATM   12  C   UNK N   1      34.485  16.253   7.126  0.00  0.00     0.276 C 
BRANCH  12  13
HETATM   13  N   UNK N   1      34.291  15.860   8.514  0.00  0.00     0.080 N 
HETATM   14  C   UNK N   1      35.222  14.786   8.806  0.00  0.00     0.309 C 
HETATM   15  C   UNK N   1      34.662  16.987   9.353  0.00  0.00     0.309 C 
ENDBRANCH  12  13
ENDBRANCH  11  12
ENDBRANCH   2  11
BRANCH   8  16
HETATM   16  O   UNK N   1      29.784  18.826  10.480  0.00  0.00    -0.361 OA
HETATM   17  H   UNK N   1      29.466  18.352  11.223  0.00  0.00     0.217 HD
ENDBRANCH   8  16
TORSDOF 4
ENDMDL
MODEL 8
REMARK VINA RESULT:      -4.9      2.661      6.015
REMARK  4 active torsions:
REMARK  status: ('A' for Active; 'I' for Inactive)
REMARK    1  A    between atoms: O_1  and  C_12 
REMARK    2  A    between atoms: N_2  and  C_7 
REMARK    3  A    between atoms: C_4  and  C_5 
REMARK    4  A    between atoms: C_4  and  C_7 
ROOT
HETATM    1  N   UNK N   1      29.974  20.849  -6.503  0.00  0.00    -0.365 N 
HETATM    2  C   UNK N   1      28.708  22.648  -6.044  0.00  0.00    -0.029 A 
HETATM    3  C   UNK N   1      29.481  22.374  -4.946  0.00  0.00     0.001 A 
HETATM    4  C   UNK N   1      30.239  21.282  -5.256  0.00  0.00     0.043 A 
HETATM    5  C   UNK N   1      29.029  21.690  -7.002  0.00  0.00     0.096 A 
HETATM    6  C   UNK N   1      29.581  23.015  -3.713  0.00  0.00     0.050 A 
HETATM    7  C   UNK N   1      31.163  20.751  -4.361  0.00  0.00     0.033 A 
HETATM    8  C   UNK N   1      30.501  22.501  -2.781  0.00  0.00     0.066 A 
HETATM    9  C   UNK N   1      31.291  21.374  -3.105  0.00  0.00     0.039 A 
HETATM   10  H   UNK N   1      30.382  20.079  -6.962  0.00  0.00     0.165 HD
ENDROOT
BRANCH   2  11
HETATM   11  C   UNK N   1      27.769  23.799  -6.196  0.00  0.00     0.071 C 
BRANCH  11  12
HETATM   12  C   UNK N   1      26.308  23.395  -6.077  0.00  0.00     0.276 C 
BRANCH  12  13
HETATM   13  N   UNK N   1      25.589  24.430  -5.347  0.00  0.00     0.080 N 
HETATM   14  C   UNK N   1      26.287  24.656  -4.095  0.00  0.00     0.309 C 
HETATM   15  C   UNK N   1      25.678  25.661  -6.114  0.00  0.00     0.309 C 
ENDBRANCH  12  13
ENDBRANCH  11  12
ENDBRANCH   2  11
BRANCH   8  16
HETATM   16  O   UNK N   1      30.628  23.085  -1.578  0.00  0.00    -0.361 OA
HETATM   17  H   UNK N   1      31.271  23.754  -1.447  0.00  0.00     0.217 HD
ENDBRANCH   8  16
TORSDOF 4
ENDMDL
MODEL 9
REMARK VINA RESULT:      -4.9      2.495      5.511
REMARK  4 active torsions:
REMARK  status: ('A' for Active; 'I' for Inactive)
REMARK    1  A    between atoms: O_1  and  C_12 
REMARK    2  A    between atoms: N_2  and  C_7 
REMARK    3  A    between atoms: C_4  and  C_5 
REMARK    4  A    between atoms: C_4  and  C_7 
ROOT
HETATM    1  N   UNK N   1      28.379  22.996  -6.395  0.00  0.00    -0.365 N 
HETATM    2  C   UNK N   1      27.436  24.394  -4.912  0.00  0.00    -0.029 A 
HETATM    3  C   UNK N   1      28.443  23.713  -4.280  0.00  0.00     0.001 A 
HETATM    4  C   UNK N   1      28.998  22.877  -5.205  0.00  0.00     0.043 A 
HETATM    5  C   UNK N   1      27.411  23.935  -6.225  0.00  0.00     0.096 A 
HETATM    6  C   UNK N   1      28.917  23.784  -2.972  0.00  0.00     0.050 A 
HETATM    7  C   UNK N   1      30.076  22.052  -4.898  0.00  0.00     0.033 A 
HETATM    8  C   UNK N   1      30.002  22.959  -2.623  0.00  0.00     0.066 A 
HETATM    9  C   UNK N   1      30.581  22.097  -3.584  0.00  0.00     0.039 A 
HETATM   10  H   UNK N   1      28.585  22.502  -7.222  0.00  0.00     0.165 HD
ENDROOT
BRANCH   2  11
HETATM   11  C   UNK N   1      26.590  25.471  -4.315  0.00  0.00     0.071 C 
BRANCH  11  12
HETATM   12  C   UNK N   1      25.535  26.000  -5.272  0.00  0.00     0.276 C 
BRANCH  12  13
HETATM   13  N   UNK N   1      25.531  27.455  -5.214  0.00  0.00     0.080 N 
HETATM   14  C   UNK N   1      25.629  27.844  -3.819  0.00  0.00     0.309 C 
HETATM   15  C   UNK N   1      26.732  27.933  -5.877  0.00  0.00     0.309 C 
ENDBRANCH  12  13
ENDBRANCH  11  12
ENDBRANCH   2  11
BRANCH   8  16
HETATM   16  O   UNK N   1      30.490  22.990  -1.372  0.00  0.00    -0.361 OA
HETATM   17  H   UNK N   1      31.240  22.477  -1.148  0.00  0.00     0.217 HD
ENDBRANCH   8  16
TORSDOF 4
ENDMDL
