REMARK  3 active torsions:
REMARK  status: ('A' for Active; 'I' for Inactive)
REMARK    1  A    between atoms: N_2  and  C_5 
REMARK    2  A    between atoms: C_3  and  C_4 
REMARK    3  A    between atoms: C_3  and  C_5 
ROOT
HETATM    1  N   UNK N   1       4.045  -2.312  -0.097  0.00  0.00    -0.365 N 
HETATM    2  C   UNK N   1       4.144  -0.073   0.090  0.00  0.00    -0.028 A 
HETATM    3  C   UNK N   1       2.824  -0.445   0.049  0.00  0.00    -0.002 A 
HETATM    4  C   UNK N   1       2.799  -1.806  -0.063  0.00  0.00     0.042 A 
HETATM    5  C   UNK N   1       4.885  -1.251   0.001  0.00  0.00     0.096 A 
HETATM    6  C   UNK N   1       1.653   0.308   0.112  0.00  0.00     0.014 A 
HETATM    7  C   UNK N   1       1.606  -2.521  -0.118  0.00  0.00     0.030 A 
HETATM    8  C   UNK N   1       0.427  -0.382   0.056  0.00  0.00     0.001 A 
HETATM    9  C   UNK N   1       0.404  -1.791  -0.057  0.00  0.00     0.002 A 
HETATM   10  H   UNK N   1       4.297  -3.261  -0.176  0.00  0.00     0.165 HD
ENDROOT
BRANCH   2  11
HETATM   11  C   UNK N   1       4.662   1.329   0.262  0.00  0.00     0.065 C 
BRANCH  11  12
HETATM   12  C   UNK N   1       6.036   1.583  -0.355  0.00  0.00     0.074 C 
HETATM   13  C   UNK N   1       7.117   0.781   0.349  0.00  0.00     0.032 C 
BRANCH  12  14
HETATM   14  N   UNK N   1       6.354   2.994  -0.229  0.00  0.00    -0.426 N 
HETATM   15  H   UNK N   1       7.324   3.297  -0.141  0.00  0.00     0.150 HD
HETATM   16  H   UNK N   1       5.604   3.686  -0.229  0.00  0.00     0.150 HD
ENDBRANCH  12  14
ENDBRANCH  11  12
ENDBRANCH   2  11
TORSDOF 3
