MODEL 1
REMARK VINA RESULT:      -5.3      0.000      0.000
REMARK  3 active torsions:
REMARK  status: ('A' for Active; 'I' for Inactive)
REMARK    1  A    between atoms: N_2  and  C_5 
REMARK    2  A    between atoms: C_3  and  C_4 
REMARK    3  A    between atoms: C_3  and  C_5 
ROOT
HETATM    1  N   UNK N   1      25.436  24.564  -5.893  0.00  0.00    -0.365 N 
HETATM    2  C   UNK N   1      26.695  24.403  -4.036  0.00  0.00    -0.028 A 
HETATM    3  C   UNK N   1      26.247  25.695  -4.143  0.00  0.00    -0.002 A 
HETATM    4  C   UNK N   1      25.488  25.759  -5.276  0.00  0.00     0.042 A 
HETATM    5  C   UNK N   1      26.176  23.717  -5.133  0.00  0.00     0.096 A 
HETATM    6  C   UNK N   1      26.443  26.808  -3.327  0.00  0.00     0.014 A 
HETATM    7  C   UNK N   1      24.862  26.934  -5.682  0.00  0.00     0.030 A 
HETATM    8  C   UNK N   1      25.828  28.016  -3.709  0.00  0.00     0.001 A 
HETATM    9  C   UNK N   1      25.040  28.078  -4.880  0.00  0.00     0.002 A 
HETATM   10  H   UNK N   1      24.958  24.347  -6.726  0.00  0.00     0.165 HD
ENDROOT
BRANCH   2  11
HETATM   11  C   UNK N   1      27.528  23.846  -2.913  0.00  0.00     0.065 C 
BRANCH  11  12
HETATM   12  C   UNK N   1      28.985  23.566  -3.276  0.00  0.00     0.074 C 
HETATM   13  C   UNK N   1      29.733  22.932  -2.116  0.00  0.00     0.032 C 
BRANCH  12  14
HETATM   14  N   UNK N   1      29.635  24.819  -3.614  0.00  0.00    -0.426 N 
HETATM   15  H   UNK N   1      30.558  24.819  -4.048  0.00  0.00     0.150 HD
HETATM   16  H   UNK N   1      29.167  25.704  -3.417  0.00  0.00     0.150 HD
ENDBRANCH  12  14
ENDBRANCH  11  12
ENDBRANCH   2  11
TORSDOF 3
ENDMDL
MODEL 2
REMARK VINA RESULT:      -5.3     23.356     26.948
REMARK  3 active torsions:
REMARK  status: ('A' for Active; 'I' for Inactive)
REMARK    1  A    between atoms: N_2  and  C_5 
REMARK    2  A    between atoms: C_3  and  C_4 
REMARK    3  A    between atoms: C_3  and  C_5 
ROOT
HETATM    1  N   UNK N   1      35.282  13.532  19.224  0.00  0.00    -0.365 N 
HETATM    2  C   UNK N   1      35.275  13.088  17.020  0.00  0.00    -0.028 A 
HETATM    3  C   UNK N   1      35.237  11.897  17.701  0.00  0.00    -0.002 A 
HETATM    4  C   UNK N   1      35.241  12.201  19.032  0.00  0.00     0.042 A 
HETATM    5  C   UNK N   1      35.298  14.091  17.988  0.00  0.00     0.096 A 
HETATM    6  C   UNK N   1      35.190  10.579  17.249  0.00  0.00     0.014 A 
HETATM    7  C   UNK N   1      35.196  11.217  20.015  0.00  0.00     0.030 A 
HETATM    8  C   UNK N   1      35.146   9.557  18.216  0.00  0.00     0.001 A 
HETATM    9  C   UNK N   1      35.148   9.875  19.593  0.00  0.00     0.002 A 
HETATM   10  H   UNK N   1      35.295  14.006  20.088  0.00  0.00     0.165 HD
ENDROOT
BRANCH   2  11
HETATM   11  C   UNK N   1      35.232  13.253  15.525  0.00  0.00     0.065 C 
BRANCH  11  12
HETATM   12  C   UNK N   1      36.516  13.802  14.906  0.00  0.00     0.074 C 
HETATM   13  C   UNK N   1      36.253  14.427  13.546  0.00  0.00     0.032 C 
BRANCH  12  14
HETATM   14  N   UNK N   1      37.460  12.712  14.737  0.00  0.00    -0.426 N 
HETATM   15  H   UNK N   1      37.161  11.746  14.873  0.00  0.00     0.150 HD
HETATM   16  H   UNK N   1      38.427  12.913  14.481  0.00  0.00     0.150 HD
ENDBRANCH  12  14
ENDBRANCH  11  12
ENDBRANCH   2  11
TORSDOF 3
ENDMDL
MODEL 3
REMARK VINA RESULT:      -5.3     23.994     26.500
REMARK  3 active torsions:
REMARK  status: ('A' for Active; 'I' for Inactive)
REMARK    1  A    between atoms: N_2  and  C_5 
REMARK    2  A    between atoms: C_3  and  C_4 
REMARK    3  A    between atoms: C_3  and  C_5 
ROOT
HETATM    1  N   UNK N   1      36.026  10.124  16.695  0.00  0.00    -0.365 N 
HETATM    2  C   UNK N   1      35.599  12.191  15.917  0.00  0.00    -0.028 A 
HETATM    3  C   UNK N   1      35.453  12.204  17.281  0.00  0.00    -0.002 A 
HETATM    4  C   UNK N   1      35.719  10.939  17.721  0.00  0.00     0.042 A 
HETATM    5  C   UNK N   1      35.958  10.888  15.575  0.00  0.00     0.096 A 
HETATM    6  C   UNK N   1      35.117  13.231  18.161  0.00  0.00     0.014 A 
HETATM    7  C   UNK N   1      35.675  10.601  19.070  0.00  0.00     0.030 A 
HETATM    8  C   UNK N   1      35.060  12.925  19.534  0.00  0.00     0.001 A 
HETATM    9  C   UNK N   1      35.339  11.615  19.987  0.00  0.00     0.002 A 
HETATM   10  H   UNK N   1      36.254   9.167  16.746  0.00  0.00     0.165 HD
ENDROOT
BRANCH   2  11
HETATM   11  C   UNK N   1      35.456  13.376  15.002  0.00  0.00     0.065 C 
BRANCH  11  12
HETATM   12  C   UNK N   1      36.772  14.045  14.612  0.00  0.00     0.074 C 
HETATM   13  C   UNK N   1      37.224  15.039  15.668  0.00  0.00     0.032 C 
BRANCH  12  14
HETATM   14  N   UNK N   1      36.585  14.757  13.360  0.00  0.00    -0.426 N 
HETATM   15  H   UNK N   1      36.457  14.241  12.489  0.00  0.00     0.150 HD
HETATM   16  H   UNK N   1      36.581  15.777  13.352  0.00  0.00     0.150 HD
ENDBRANCH  12  14
ENDBRANCH  11  12
ENDBRANCH   2  11
TORSDOF 3
ENDMDL
MODEL 4
REMARK VINA RESULT:      -5.2      2.659      4.220
REMARK  3 active torsions:
REMARK  status: ('A' for Active; 'I' for Inactive)
REMARK    1  A    between atoms: N_2  and  C_5 
REMARK    2  A    between atoms: C_3  and  C_4 
REMARK    3  A    between atoms: C_3  and  C_5 
ROOT
HETATM    1  N   UNK N   1      25.925  29.013  -3.563  0.00  0.00    -0.365 N 
HETATM    2  C   UNK N   1      25.877  27.449  -5.177  0.00  0.00    -0.028 A 
HETATM    3  C   UNK N   1      26.806  28.396  -5.523  0.00  0.00    -0.002 A 
HETATM    4  C   UNK N   1      26.812  29.328  -4.524  0.00  0.00     0.042 A 
HETATM    5  C   UNK N   1      25.344  27.851  -3.953  0.00  0.00     0.096 A 
HETATM    6  C   UNK N   1      27.648  28.500  -6.629  0.00  0.00     0.014 A 
HETATM    7  C   UNK N   1      27.658  30.433  -4.550  0.00  0.00     0.030 A 
HETATM    8  C   UNK N   1      28.516  29.607  -6.689  0.00  0.00     0.001 A 
HETATM    9  C   UNK N   1      28.522  30.569  -5.653  0.00  0.00     0.002 A 
HETATM   10  H   UNK N   1      25.737  29.523  -2.741  0.00  0.00     0.165 HD
ENDROOT
BRANCH   2  11
HETATM   11  C   UNK N   1      25.560  26.198  -5.952  0.00  0.00     0.065 C 
BRANCH  11  12
HETATM   12  C   UNK N   1      25.685  24.902  -5.153  0.00  0.00     0.074 C 
HETATM   13  C   UNK N   1      27.110  24.678  -4.679  0.00  0.00     0.032 C 
BRANCH  12  14
HETATM   14  N   UNK N   1      25.301  23.788  -6.002  0.00  0.00    -0.426 N 
HETATM   15  H   UNK N   1      24.463  23.847  -6.580  0.00  0.00     0.150 HD
HETATM   16  H   UNK N   1      25.873  22.943  -6.020  0.00  0.00     0.150 HD
ENDBRANCH  12  14
ENDBRANCH  11  12
ENDBRANCH   2  11
TORSDOF 3
ENDMDL
MODEL 5
REMARK VINA RESULT:      -5.1     10.981     13.172
REMARK  3 active torsions:
REMARK  status: ('A' for Active; 'I' for Inactive)
REMARK    1  A    between atoms: N_2  and  C_5 
REMARK    2  A    between atoms: C_3  and  C_4 
REMARK    3  A    between atoms: C_3  and  C_5 
ROOT
HETATM    1  N   UNK N   1      27.357  19.556   8.291  0.00  0.00    -0.365 N 
HETATM    2  C   UNK N   1      28.836  18.133   7.371  0.00  0.00    -0.028 A 
HETATM    3  C   UNK N   1      28.268  18.876   6.366  0.00  0.00    -0.002 A 
HETATM    4  C   UNK N   1      27.379  19.728   6.957  0.00  0.00     0.042 A 
HETATM    5  C   UNK N   1      28.257  18.576   8.559  0.00  0.00     0.096 A 
HETATM    6  C   UNK N   1      28.475  18.870   4.988  0.00  0.00     0.014 A 
HETATM    7  C   UNK N   1      26.630  20.641   6.221  0.00  0.00     0.030 A 
HETATM    8  C   UNK N   1      27.732  19.779   4.211  0.00  0.00     0.001 A 
HETATM    9  C   UNK N   1      26.814  20.662   4.825  0.00  0.00     0.002 A 
HETATM   10  H   UNK N   1      26.802  20.044   8.942  0.00  0.00     0.165 HD
ENDROOT
BRANCH   2  11
HETATM   11  C   UNK N   1      29.914  17.098   7.203  0.00  0.00     0.065 C 
BRANCH  11  12
HETATM   12  C   UNK N   1      31.231  17.426   7.905  0.00  0.00     0.074 C 
HETATM   13  C   UNK N   1      32.417  17.234   6.976  0.00  0.00     0.032 C 
BRANCH  12  14
HETATM   14  N   UNK N   1      31.389  16.540   9.044  0.00  0.00    -0.426 N 
HETATM   15  H   UNK N   1      32.205  15.933   9.114  0.00  0.00     0.150 HD
HETATM   16  H   UNK N   1      30.681  16.526   9.779  0.00  0.00     0.150 HD
ENDBRANCH  12  14
ENDBRANCH  11  12
ENDBRANCH   2  11
TORSDOF 3
ENDMDL
MODEL 6
REMARK VINA RESULT:      -5.0     24.364     26.401
REMARK  3 active torsions:
REMARK  status: ('A' for Active; 'I' for Inactive)
REMARK    1  A    between atoms: N_2  and  C_5 
REMARK    2  A    between atoms: C_3  and  C_4 
REMARK    3  A    between atoms: C_3  and  C_5 
ROOT
HETATM    1  N   UNK N   1      37.199  13.079  14.128  0.00  0.00    -0.365 N 
HETATM    2  C   UNK N   1      35.832  12.952  15.909  0.00  0.00    -0.028 A 
HETATM    3  C   UNK N   1      36.465  11.744  15.764  0.00  0.00    -0.002 A 
HETATM    4  C   UNK N   1      37.287  11.855  14.678  0.00  0.00     0.042 A 
HETATM    5  C   UNK N   1      36.306  13.768  14.883  0.00  0.00     0.096 A 
HETATM    6  C   UNK N   1      36.387  10.568  16.508  0.00  0.00     0.014 A 
HETATM    7  C   UNK N   1      38.095  10.804  14.253  0.00  0.00     0.030 A 
HETATM    8  C   UNK N   1      37.189   9.483  16.105  0.00  0.00     0.001 A 
HETATM    9  C   UNK N   1      38.040   9.602  14.983  0.00  0.00     0.002 A 
HETATM   10  H   UNK N   1      37.686  13.410  13.338  0.00  0.00     0.165 HD
ENDROOT
BRANCH   2  11
HETATM   11  C   UNK N   1      34.868  13.319  17.005  0.00  0.00     0.065 C 
BRANCH  11  12
HETATM   12  C   UNK N   1      35.524  13.693  18.333  0.00  0.00     0.074 C 
HETATM   13  C   UNK N   1      35.126  12.730  19.439  0.00  0.00     0.032 C 
BRANCH  12  14
HETATM   14  N   UNK N   1      35.095  15.028  18.709  0.00  0.00    -0.426 N 
HETATM   15  H   UNK N   1      34.264  15.440  18.285  0.00  0.00     0.150 HD
HETATM   16  H   UNK N   1      35.627  15.556  19.401  0.00  0.00     0.150 HD
ENDBRANCH  12  14
ENDBRANCH  11  12
ENDBRANCH   2  11
TORSDOF 3
ENDMDL
MODEL 7
REMARK VINA RESULT:      -5.0     23.991     25.441
REMARK  3 active torsions:
REMARK  status: ('A' for Active; 'I' for Inactive)
REMARK    1  A    between atoms: N_2  and  C_5 
REMARK    2  A    between atoms: C_3  and  C_4 
REMARK    3  A    between atoms: C_3  and  C_5 
ROOT
HETATM    1  N   UNK N   1      36.990  13.077  14.227  0.00  0.00    -0.365 N 
HETATM    2  C   UNK N   1      35.501  13.077  15.912  0.00  0.00    -0.028 A 
HETATM    3  C   UNK N   1      35.075  12.187  14.959  0.00  0.00    -0.002 A 
HETATM    4  C   UNK N   1      35.999  12.209  13.954  0.00  0.00     0.042 A 
HETATM    5  C   UNK N   1      36.696  13.616  15.437  0.00  0.00     0.096 A 
HETATM    6  C   UNK N   1      33.956  11.357  14.909  0.00  0.00     0.014 A 
HETATM    7  C   UNK N   1      35.881  11.406  12.823  0.00  0.00     0.030 A 
HETATM    8  C   UNK N   1      33.802  10.533  13.778  0.00  0.00     0.001 A 
HETATM    9  C   UNK N   1      34.762  10.556  12.740  0.00  0.00     0.002 A 
HETATM   10  H   UNK N   1      37.773  13.279  13.664  0.00  0.00     0.165 HD
ENDROOT
BRANCH   2  11
HETATM   11  C   UNK N   1      34.827  13.351  17.229  0.00  0.00     0.065 C 
BRANCH  11  12
HETATM   12  C   UNK N   1      35.512  12.721  18.441  0.00  0.00     0.074 C 
HETATM   13  C   UNK N   1      35.212  11.235  18.536  0.00  0.00     0.032 C 
BRANCH  12  14
HETATM   14  N   UNK N   1      35.023  13.368  19.645  0.00  0.00    -0.426 N 
HETATM   15  H   UNK N   1      34.491  12.837  20.334  0.00  0.00     0.150 HD
HETATM   16  H   UNK N   1      35.214  14.358  19.804  0.00  0.00     0.150 HD
ENDBRANCH  12  14
ENDBRANCH  11  12
ENDBRANCH   2  11
TORSDOF 3
ENDMDL
MODEL 8
REMARK VINA RESULT:      -4.9     11.573     14.736
REMARK  3 active torsions:
REMARK  status: ('A' for Active; 'I' for Inactive)
REMARK    1  A    between atoms: N_2  and  C_5 
REMARK    2  A    between atoms: C_3  and  C_4 
REMARK    3  A    between atoms: C_3  and  C_5 
ROOT
HETATM    1  N   UNK N   1      31.008  17.706   9.081  0.00  0.00    -0.365 N 
HETATM    2  C   UNK N   1      30.159  17.267   7.046  0.00  0.00    -0.028 A 
HETATM    3  C   UNK N   1      31.524  17.348   6.936  0.00  0.00    -0.002 A 
HETATM    4  C   UNK N   1      32.007  17.613   8.186  0.00  0.00     0.042 A 
HETATM    5  C   UNK N   1      29.861  17.490   8.390  0.00  0.00     0.096 A 
HETATM    6  C   UNK N   1      32.370  17.198   5.838  0.00  0.00     0.014 A 
HETATM    7  C   UNK N   1      33.370  17.747   8.438  0.00  0.00     0.030 A 
HETATM    8  C   UNK N   1      33.755  17.330   6.056  0.00  0.00     0.001 A 
HETATM    9  C   UNK N   1      34.252  17.602   7.351  0.00  0.00     0.002 A 
HETATM   10  H   UNK N   1      31.092  17.893  10.045  0.00  0.00     0.165 HD
ENDROOT
BRANCH   2  11
HETATM   11  C   UNK N   1      29.201  16.938   5.933  0.00  0.00     0.065 C 
BRANCH  11  12
HETATM   12  C   UNK N   1      29.036  18.037   4.885  0.00  0.00     0.074 C 
HETATM   13  C   UNK N   1      27.707  18.755   5.039  0.00  0.00     0.032 C 
BRANCH  12  14
HETATM   14  N   UNK N   1      29.085  17.437   3.564  0.00  0.00    -0.426 N 
HETATM   15  H   UNK N   1      28.231  17.100   3.120  0.00  0.00     0.150 HD
HETATM   16  H   UNK N   1      29.978  17.354   3.077  0.00  0.00     0.150 HD
ENDBRANCH  12  14
ENDBRANCH  11  12
ENDBRANCH   2  11
TORSDOF 3
ENDMDL
MODEL 9
REMARK VINA RESULT:      -4.8     23.851     25.024
REMARK  3 active torsions:
REMARK  status: ('A' for Active; 'I' for Inactive)
REMARK    1  A    between atoms: N_2  and  C_5 
REMARK    2  A    between atoms: C_3  and  C_4 
REMARK    3  A    between atoms: C_3  and  C_5 
ROOT
HETATM    1  N   UNK N   1      37.143  14.194  14.304  0.00  0.00    -0.365 N 
HETATM    2  C   UNK N   1      35.562  12.670  14.787  0.00  0.00    -0.028 A 
HETATM    3  C   UNK N   1      35.747  13.464  15.890  0.00  0.00    -0.002 A 
HETATM    4  C   UNK N   1      36.709  14.377  15.565  0.00  0.00     0.042 A 
HETATM    5  C   UNK N   1      36.439  13.145  13.812  0.00  0.00     0.096 A 
HETATM    6  C   UNK N   1      35.136  13.456  17.143  0.00  0.00     0.014 A 
HETATM    7  C   UNK N   1      37.135  15.353  16.461  0.00  0.00     0.030 A 
HETATM    8  C   UNK N   1      35.544  14.428  18.076  0.00  0.00     0.001 A 
HETATM    9  C   UNK N   1      36.538  15.374  17.736  0.00  0.00     0.002 A 
HETATM   10  H   UNK N   1      37.833  14.717  13.834  0.00  0.00     0.165 HD
ENDROOT
BRANCH   2  11
HETATM   11  C   UNK N   1      34.559  11.555  14.658  0.00  0.00     0.065 C 
BRANCH  11  12
HETATM   12  C   UNK N   1      34.960  10.444  13.689  0.00  0.00     0.074 C 
HETATM   13  C   UNK N   1      33.864  10.173  12.673  0.00  0.00     0.032 C 
BRANCH  12  14
HETATM   14  N   UNK N   1      35.199   9.227  14.444  0.00  0.00    -0.426 N 
HETATM   15  H   UNK N   1      34.416   8.660  14.768  0.00  0.00     0.150 HD
HETATM   16  H   UNK N   1      36.155   8.937  14.650  0.00  0.00     0.150 HD
ENDBRANCH  12  14
ENDBRANCH  11  12
ENDBRANCH   2  11
TORSDOF 3
ENDMDL
