MODEL 1
REMARK VINA RESULT:      -5.9      0.000      0.000
REMARK  2 active torsions:
REMARK  status: ('A' for Active; 'I' for Inactive)
REMARK    1  A    between atoms: N_4  and  C_9 
REMARK    2  A    between atoms: C_5  and  C_7 
ROOT
HETATM    1  O   UNK N   1      35.965  13.827  14.745  0.00  0.00    -0.310 OA
HETATM    2  N   UNK N   1      35.051  12.818  13.002  0.00  0.00    -0.349 N 
ATOM      3  HN  UNK N   1      34.794  12.630  12.033  1.00  0.00     0.163 HD
HETATM    4  C   UNK N   1      35.317  12.751  15.302  0.00  0.00     0.187 A 
HETATM    5  C   UNK N   1      34.676  12.031  14.137  0.00  0.00     0.115 A 
HETATM    6  C   UNK N   1      33.823  10.785  14.024  0.00  0.00     0.035 C 
HETATM    7  C   UNK N   1      35.766  13.799  13.412  0.00  0.00     0.213 A 
ENDROOT
BRANCH   4   8
HETATM    8  C   UNK N   1      35.343  12.494  16.771  0.00  0.00    -0.027 A 
HETATM    9  C   UNK N   1      35.592  11.209  17.266  0.00  0.00     0.010 A 
HETATM   10  C   UNK N   1      35.613  10.986  18.646  0.00  0.00     0.001 A 
HETATM   11  C   UNK N   1      35.386  12.044  19.531  0.00  0.00     0.000 A 
HETATM   12  C   UNK N   1      35.138  13.328  19.037  0.00  0.00     0.001 A 
HETATM   13  C   UNK N   1      35.117  13.551  17.659  0.00  0.00     0.010 A 
ENDBRANCH   4   8
BRANCH   7  14
HETATM   14  N   UNK N   1      36.299  14.769  12.537  0.00  0.00    -0.365 N 
HETATM   15  H   UNK N   1      35.857  14.953  11.678  0.00  0.00     0.159 HD
HETATM   16  H   UNK N   1      37.115  15.261  12.787  0.00  0.00     0.159 HD
ENDBRANCH   7  14
TORSDOF 2
ENDMDL
MODEL 2
REMARK VINA RESULT:      -5.7      1.428      2.314
REMARK  2 active torsions:
REMARK  status: ('A' for Active; 'I' for Inactive)
REMARK    1  A    between atoms: N_4  and  C_9 
REMARK    2  A    between atoms: C_5  and  C_7 
ROOT
HETATM    1  O   UNK N   1      35.571  13.072  14.286  0.00  0.00    -0.310 OA
HETATM    2  N   UNK N   1      36.678  14.915  13.766  0.00  0.00    -0.349 N 
ATOM      3  HN  UNK N   1      37.075  15.664  13.198  1.00  0.00     0.163 HD
HETATM    4  C   UNK N   1      36.036  13.519  15.500  0.00  0.00     0.187 A 
HETATM    5  C   UNK N   1      36.803  14.784  15.186  0.00  0.00     0.115 A 
HETATM    6  C   UNK N   1      37.565  15.777  16.037  0.00  0.00     0.035 C 
HETATM    7  C   UNK N   1      35.982  13.931  13.332  0.00  0.00     0.213 A 
ENDROOT
BRANCH   4   8
HETATM    8  C   UNK N   1      35.751  12.786  16.766  0.00  0.00    -0.027 A 
HETATM    9  C   UNK N   1      35.878  11.393  16.829  0.00  0.00     0.010 A 
HETATM   10  C   UNK N   1      35.607  10.721  18.025  0.00  0.00     0.001 A 
HETATM   11  C   UNK N   1      35.210  11.438  19.157  0.00  0.00     0.000 A 
HETATM   12  C   UNK N   1      35.083  12.829  19.096  0.00  0.00     0.001 A 
HETATM   13  C   UNK N   1      35.354  13.500  17.902  0.00  0.00     0.010 A 
ENDBRANCH   4   8
BRANCH   7  14
HETATM   14  N   UNK N   1      35.673  13.763  11.965  0.00  0.00    -0.365 N 
HETATM   15  H   UNK N   1      36.195  14.240  11.281  0.00  0.00     0.159 HD
HETATM   16  H   UNK N   1      34.936  13.168  11.697  0.00  0.00     0.159 HD
ENDBRANCH   7  14
TORSDOF 2
ENDMDL
MODEL 3
REMARK VINA RESULT:      -5.6      1.364      1.600
REMARK  2 active torsions:
REMARK  status: ('A' for Active; 'I' for Inactive)
REMARK    1  A    between atoms: N_4  and  C_9 
REMARK    2  A    between atoms: C_5  and  C_7 
ROOT
HETATM    1  O   UNK N   1      34.823  13.251  14.147  0.00  0.00    -0.310 OA
HETATM    2  N   UNK N   1      36.324  12.523  12.695  0.00  0.00    -0.349 N 
ATOM      3  HN  UNK N   1      36.791  12.360  11.803  1.00  0.00     0.163 HD
HETATM    4  C   UNK N   1      35.726  12.574  14.933  0.00  0.00     0.187 A 
HETATM    5  C   UNK N   1      36.773  12.058  13.972  0.00  0.00     0.115 A 
HETATM    6  C   UNK N   1      38.037  11.243  14.150  0.00  0.00     0.035 C 
HETATM    7  C   UNK N   1      35.237  13.177  12.866  0.00  0.00     0.213 A 
ENDROOT
BRANCH   4   8
HETATM    8  C   UNK N   1      35.554  12.468  16.410  0.00  0.00    -0.027 A 
HETATM    9  C   UNK N   1      35.632  11.226  17.050  0.00  0.00     0.010 A 
HETATM   10  C   UNK N   1      35.469  11.145  18.437  0.00  0.00     0.001 A 
HETATM   11  C   UNK N   1      35.229  12.302  19.183  0.00  0.00     0.000 A 
HETATM   12  C   UNK N   1      35.151  13.543  18.544  0.00  0.00     0.001 A 
HETATM   13  C   UNK N   1      35.313  13.624  17.160  0.00  0.00     0.010 A 
ENDBRANCH   4   8
BRANCH   7  14
HETATM   14  N   UNK N   1      34.531  13.772  11.798  0.00  0.00    -0.365 N 
HETATM   15  H   UNK N   1      33.654  14.187  11.959  0.00  0.00     0.159 HD
HETATM   16  H   UNK N   1      34.917  13.771  10.893  0.00  0.00     0.159 HD
ENDBRANCH   7  14
TORSDOF 2
ENDMDL
MODEL 4
REMARK VINA RESULT:      -5.6     17.501     19.206
REMARK  2 active torsions:
REMARK  status: ('A' for Active; 'I' for Inactive)
REMARK    1  A    between atoms: N_4  and  C_9 
REMARK    2  A    between atoms: C_5  and  C_7 
ROOT
HETATM    1  O   UNK N   1      22.349  20.652   1.854  0.00  0.00    -0.310 OA
HETATM    2  N   UNK N   1      20.432  19.914   2.673  0.00  0.00    -0.349 N 
ATOM      3  HN  UNK N   1      19.429  19.744   2.754  1.00  0.00     0.163 HD
HETATM    4  C   UNK N   1      22.725  19.984   2.996  0.00  0.00     0.187 A 
HETATM    5  C   UNK N   1      21.435  19.462   3.588  0.00  0.00     0.115 A 
HETATM    6  C   UNK N   1      21.111  18.651   4.825  0.00  0.00     0.035 C 
HETATM    7  C   UNK N   1      21.009  20.567   1.734  0.00  0.00     0.213 A 
ENDROOT
BRANCH   4   8
HETATM    8  C   UNK N   1      24.152  19.891   3.416  0.00  0.00    -0.027 A 
HETATM    9  C   UNK N   1      24.532  19.058   4.474  0.00  0.00     0.010 A 
HETATM   10  C   UNK N   1      25.875  18.983   4.856  0.00  0.00     0.001 A 
HETATM   11  C   UNK N   1      26.838  19.739   4.181  0.00  0.00     0.000 A 
HETATM   12  C   UNK N   1      26.460  20.571   3.124  0.00  0.00     0.001 A 
HETATM   13  C   UNK N   1      25.119  20.646   2.743  0.00  0.00     0.010 A 
ENDBRANCH   4   8
BRANCH   7  14
HETATM   14  N   UNK N   1      20.298  21.150   0.665  0.00  0.00    -0.365 N 
HETATM   15  H   UNK N   1      19.370  20.877   0.484  0.00  0.00     0.159 HD
HETATM   16  H   UNK N   1      20.730  21.830   0.099  0.00  0.00     0.159 HD
ENDBRANCH   7  14
TORSDOF 2
ENDMDL
MODEL 5
REMARK VINA RESULT:      -5.3     15.041     16.542
REMARK  2 active torsions:
REMARK  status: ('A' for Active; 'I' for Inactive)
REMARK    1  A    between atoms: N_4  and  C_9 
REMARK    2  A    between atoms: C_5  and  C_7 
ROOT
HETATM    1  O   UNK N   1      19.086  15.658   9.416  0.00  0.00    -0.310 OA
HETATM    2  N   UNK N   1      19.567  16.928   7.671  0.00  0.00    -0.349 N 
ATOM      3  HN  UNK N   1      19.469  17.653   6.960  1.00  0.00     0.163 HD
HETATM    4  C   UNK N   1      20.307  15.181   9.001  0.00  0.00     0.187 A 
HETATM    5  C   UNK N   1      20.672  16.028   7.803  0.00  0.00     0.115 A 
HETATM    6  C   UNK N   1      21.864  16.051   6.869  0.00  0.00     0.035 C 
HETATM    7  C   UNK N   1      18.724  16.667   8.599  0.00  0.00     0.213 A 
ENDROOT
BRANCH   4   8
HETATM    8  C   UNK N   1      20.988  14.055   9.702  0.00  0.00    -0.027 A 
HETATM    9  C   UNK N   1      20.276  13.218  10.568  0.00  0.00     0.010 A 
HETATM   10  C   UNK N   1      20.930  12.167  11.218  0.00  0.00     0.001 A 
HETATM   11  C   UNK N   1      22.295  11.952  11.002  0.00  0.00     0.000 A 
HETATM   12  C   UNK N   1      23.007  12.787  10.137  0.00  0.00     0.001 A 
HETATM   13  C   UNK N   1      22.353  13.837   9.489  0.00  0.00     0.010 A 
ENDBRANCH   4   8
BRANCH   7  14
HETATM   14  N   UNK N   1      17.515  17.378   8.750  0.00  0.00    -0.365 N 
HETATM   15  H   UNK N   1      16.705  16.912   9.056  0.00  0.00     0.159 HD
HETATM   16  H   UNK N   1      17.482  18.341   8.549  0.00  0.00     0.159 HD
ENDBRANCH   7  14
TORSDOF 2
ENDMDL
MODEL 6
REMARK VINA RESULT:      -5.2      2.709      4.069
REMARK  2 active torsions:
REMARK  status: ('A' for Active; 'I' for Inactive)
REMARK    1  A    between atoms: N_4  and  C_9 
REMARK    2  A    between atoms: C_5  and  C_7 
ROOT
HETATM    1  O   UNK N   1      34.824  14.858  12.095  0.00  0.00    -0.310 OA
HETATM    2  N   UNK N   1      36.641  15.114  10.859  0.00  0.00    -0.349 N 
ATOM      3  HN  UNK N   1      37.318  15.551  10.234  1.00  0.00     0.163 HD
HETATM    4  C   UNK N   1      35.494  13.668  12.260  0.00  0.00     0.187 A 
HETATM    5  C   UNK N   1      36.748  13.804  11.427  0.00  0.00     0.115 A 
HETATM    6  C   UNK N   1      37.920  12.885  11.153  0.00  0.00     0.035 C 
HETATM    7  C   UNK N   1      35.549  15.642  11.272  0.00  0.00     0.213 A 
ENDROOT
BRANCH   4   8
HETATM    8  C   UNK N   1      34.952  12.577  13.119  0.00  0.00    -0.027 A 
HETATM    9  C   UNK N   1      34.504  11.378  12.553  0.00  0.00     0.010 A 
HETATM   10  C   UNK N   1      33.999  10.365  13.373  0.00  0.00     0.001 A 
HETATM   11  C   UNK N   1      33.941  10.548  14.758  0.00  0.00     0.000 A 
HETATM   12  C   UNK N   1      34.388  11.745  15.325  0.00  0.00     0.001 A 
HETATM   13  C   UNK N   1      34.892  12.756  14.506  0.00  0.00     0.010 A 
ENDBRANCH   4   8
BRANCH   7  14
HETATM   14  N   UNK N   1      35.142  16.939  10.895  0.00  0.00    -0.365 N 
HETATM   15  H   UNK N   1      34.906  17.600  11.584  0.00  0.00     0.159 HD
HETATM   16  H   UNK N   1      35.094  17.182   9.942  0.00  0.00     0.159 HD
ENDBRANCH   7  14
TORSDOF 2
ENDMDL
MODEL 7
REMARK VINA RESULT:      -5.2     25.580     26.580
REMARK  2 active torsions:
REMARK  status: ('A' for Active; 'I' for Inactive)
REMARK    1  A    between atoms: N_4  and  C_9 
REMARK    2  A    between atoms: C_5  and  C_7 
ROOT
HETATM    1  O   UNK N   1      25.099  23.432  -6.763  0.00  0.00    -0.310 OA
HETATM    2  N   UNK N   1      26.808  22.108  -7.229  0.00  0.00    -0.349 N 
ATOM      3  HN  UNK N   1      27.331  21.325  -7.621  1.00  0.00     0.163 HD
HETATM    4  C   UNK N   1      26.154  24.032  -6.118  0.00  0.00     0.187 A 
HETATM    5  C   UNK N   1      27.348  23.152  -6.414  0.00  0.00     0.115 A 
HETATM    6  C   UNK N   1      28.810  23.216  -6.025  0.00  0.00     0.035 C 
HETATM    7  C   UNK N   1      25.555  22.325  -7.383  0.00  0.00     0.213 A 
ENDROOT
BRANCH   4   8
HETATM    8  C   UNK N   1      25.982  25.288  -5.332  0.00  0.00    -0.027 A 
HETATM    9  C   UNK N   1      26.518  25.404  -4.045  0.00  0.00     0.010 A 
HETATM   10  C   UNK N   1      26.347  26.588  -3.322  0.00  0.00     0.001 A 
HETATM   11  C   UNK N   1      25.641  27.656  -3.884  0.00  0.00     0.000 A 
HETATM   12  C   UNK N   1      25.105  27.542  -5.170  0.00  0.00     0.001 A 
HETATM   13  C   UNK N   1      25.276  26.359  -5.891  0.00  0.00     0.010 A 
ENDBRANCH   4   8
BRANCH   7  14
HETATM   14  N   UNK N   1      24.722  21.474  -8.140  0.00  0.00    -0.365 N 
HETATM   15  H   UNK N   1      24.816  20.498  -8.062  0.00  0.00     0.159 HD
HETATM   16  H   UNK N   1      24.048  21.858  -8.746  0.00  0.00     0.159 HD
ENDBRANCH   7  14
TORSDOF 2
ENDMDL
MODEL 8
REMARK VINA RESULT:      -5.2     14.312     16.223
REMARK  2 active torsions:
REMARK  status: ('A' for Active; 'I' for Inactive)
REMARK    1  A    between atoms: N_4  and  C_9 
REMARK    2  A    between atoms: C_5  and  C_7 
ROOT
HETATM    1  O   UNK N   1      20.233  13.199  10.431  0.00  0.00    -0.310 OA
HETATM    2  N   UNK N   1      21.862  11.948  11.252  0.00  0.00    -0.349 N 
ATOM      3  HN  UNK N   1      22.331  11.240  11.816  1.00  0.00     0.163 HD
HETATM    4  C   UNK N   1      21.348  13.648   9.764  0.00  0.00     0.187 A 
HETATM    5  C   UNK N   1      22.489  12.813  10.300  0.00  0.00     0.115 A 
HETATM    6  C   UNK N   1      23.975  12.774  10.012  0.00  0.00     0.035 C 
HETATM    7  C   UNK N   1      20.609  12.217  11.274  0.00  0.00     0.213 A 
ENDROOT
BRANCH   4   8
HETATM    8  C   UNK N   1      21.270  14.741   8.752  0.00  0.00    -0.027 A 
HETATM    9  C   UNK N   1      22.104  14.734   7.629  0.00  0.00     0.010 A 
HETATM   10  C   UNK N   1      22.018  15.766   6.690  0.00  0.00     0.001 A 
HETATM   11  C   UNK N   1      21.100  16.805   6.872  0.00  0.00     0.000 A 
HETATM   12  C   UNK N   1      20.266  16.812   7.994  0.00  0.00     0.001 A 
HETATM   13  C   UNK N   1      20.353  15.782   8.932  0.00  0.00     0.010 A 
ENDBRANCH   4   8
BRANCH   7  14
HETATM   14  N   UNK N   1      19.700  11.538  12.112  0.00  0.00    -0.365 N 
HETATM   15  H   UNK N   1      19.500  11.891  13.008  0.00  0.00     0.159 HD
HETATM   16  H   UNK N   1      19.266  10.711  11.800  0.00  0.00     0.159 HD
ENDBRANCH   7  14
TORSDOF 2
ENDMDL
MODEL 9
REMARK VINA RESULT:      -5.1     10.789     12.024
REMARK  2 active torsions:
REMARK  status: ('A' for Active; 'I' for Inactive)
REMARK    1  A    between atoms: N_4  and  C_9 
REMARK    2  A    between atoms: C_5  and  C_7 
ROOT
HETATM    1  O   UNK N   1      28.635  16.588   6.581  0.00  0.00    -0.310 OA
HETATM    2  N   UNK N   1      27.637  17.321   8.414  0.00  0.00    -0.349 N 
ATOM      3  HN  UNK N   1      26.898  17.496   9.094  1.00  0.00     0.163 HD
HETATM    4  C   UNK N   1      29.645  17.223   7.263  0.00  0.00     0.187 A 
HETATM    5  C   UNK N   1      29.000  17.741   8.529  0.00  0.00     0.115 A 
HETATM    6  C   UNK N   1      29.519  18.523   9.717  0.00  0.00     0.035 C 
HETATM    7  C   UNK N   1      27.504  16.686   7.309  0.00  0.00     0.213 A 
ENDROOT
BRANCH   4   8
HETATM    8  C   UNK N   1      31.033  17.294   6.722  0.00  0.00    -0.027 A 
HETATM    9  C   UNK N   1      32.131  17.397   7.584  0.00  0.00     0.010 A 
HETATM   10  C   UNK N   1      33.425  17.462   7.060  0.00  0.00     0.001 A 
HETATM   11  C   UNK N   1      33.624  17.424   5.676  0.00  0.00     0.000 A 
HETATM   12  C   UNK N   1      32.528  17.322   4.815  0.00  0.00     0.001 A 
HETATM   13  C   UNK N   1      31.235  17.257   5.338  0.00  0.00     0.010 A 
ENDBRANCH   4   8
BRANCH   7  14
HETATM   14  N   UNK N   1      26.274  16.136   6.890  0.00  0.00    -0.365 N 
HETATM   15  H   UNK N   1      26.216  15.182   6.658  0.00  0.00     0.159 HD
HETATM   16  H   UNK N   1      25.475  16.707   6.831  0.00  0.00     0.159 HD
ENDBRANCH   7  14
TORSDOF 2
ENDMDL
