MODEL 1
REMARK VINA RESULT:      -7.2      0.000      0.000
REMARK  6 active torsions:
REMARK  status: ('A' for Active; 'I' for Inactive)
REMARK    1  A    between atoms: C_8  and  O_2 
REMARK    2  A    between atoms: C_18  and  O_3 
REMARK    3  A    between atoms: O_4  and  C_26 
REMARK    4  A    between atoms: C_11  and  C_18 
REMARK    5  A    between atoms: C_18  and  C_22 
REMARK    6  A    between atoms: C_22  and  C_29 
ROOT
HETATM    1  O   UNK N   1      31.281  16.837   8.780  0.00  0.00    -0.338 OA
HETATM    2  N   UNK N   1      32.524  16.082   3.884  0.00  0.00     0.090 N 
HETATM    3  C   UNK N   1      30.429  16.022   5.319  0.00  0.00     0.006 C 
HETATM    4  C   UNK N   1      31.289  16.520   6.480  0.00  0.00     0.031 C 
HETATM    5  C   UNK N   1      29.023  17.491   7.082  0.00  0.00     0.094 C 
HETATM    6  C   UNK N   1      30.502  17.165   7.647  0.00  0.00     0.178 C 
HETATM    7  C   UNK N   1      29.793  17.246   4.638  0.00  0.00     0.023 C 
HETATM    8  C   UNK N   1      29.157  18.223   5.677  0.00  0.00     0.057 C 
HETATM    9  C   UNK N   1      31.427  15.218   4.397  0.00  0.00     0.236 C 
HETATM   10  C   UNK N   1      29.220  15.212   5.854  0.00  0.00     0.016 C 
HETATM   11  C   UNK N   1      28.263  16.134   6.683  0.00  0.00     0.042 C 
HETATM   12  C   UNK N   1      32.368  17.487   5.953  0.00  0.00     0.048 C 
HETATM   13  C   UNK N   1      31.949  15.436   7.189  0.00  0.00    -0.003 A 
HETATM   14  C   UNK N   1      32.091  14.006   5.150  0.00  0.00     0.075 C 
HETATM   15  C   UNK N   1      33.277  16.794   4.928  0.00  0.00     0.273 C 
HETATM   16  C   UNK N   1      32.404  14.266   6.616  0.00  0.00    -0.046 A 
HETATM   17  C   UNK N   1      31.993  15.700   8.509  0.00  0.00     0.110 A 
HETATM   18  C   UNK N   1      32.088  17.026   2.861  0.00  0.00     0.310 C 
HETATM   19  C   UNK N   1      33.018  13.327   7.461  0.00  0.00     0.011 A 
HETATM   20  C   UNK N   1      32.603  14.805   9.386  0.00  0.00     0.099 A 
HETATM   21  C   UNK N   1      33.143  13.609   8.848  0.00  0.00     0.040 A 
ENDROOT
BRANCH   8  22
HETATM   22  C   UNK N   1      27.836  18.846   5.070  0.00  0.00     0.061 C 
HETATM   23  C   UNK N   1      27.881  20.362   4.954  0.00  0.00     0.046 C 
BRANCH  22  24
HETATM   24  O   UNK N   1      26.738  18.547   5.885  0.00  0.00    -0.390 OA
HETATM   25  H   UNK N   1      26.332  17.666   5.855  0.00  0.00     0.210 HD
ENDBRANCH  22  24
BRANCH  22  26
HETATM   26  C   UNK N   1      27.550  18.302   3.664  0.00  0.00     0.037 C 
BRANCH  26  27
HETATM   27  C   UNK N   1      26.257  17.481   3.595  0.00  0.00    -0.002 C 
HETATM   28  C   UNK N   1      26.538  16.066   3.110  0.00  0.00     0.005 C 
ENDBRANCH  26  27
ENDBRANCH  22  26
ENDBRANCH   8  22
BRANCH   5  29
HETATM   29  O   UNK N   1      28.299  18.338   7.963  0.00  0.00    -0.382 OA
HETATM   30  C   UNK N   1      27.987  17.658   9.153  0.00  0.00     0.202 C 
ENDBRANCH   5  29
BRANCH  20  31
HETATM   31  O   UNK N   1      32.639  15.038  10.708  0.00  0.00    -0.358 OA
HETATM   32  H   UNK N   1      32.391  14.394  11.342  0.00  0.00     0.217 HD
ENDBRANCH  20  31
TORSDOF 6
ENDMDL
MODEL 2
REMARK VINA RESULT:      -6.7     11.347     15.065
REMARK  6 active torsions:
REMARK  status: ('A' for Active; 'I' for Inactive)
REMARK    1  A    between atoms: C_8  and  O_2 
REMARK    2  A    between atoms: C_18  and  O_3 
REMARK    3  A    between atoms: O_4  and  C_26 
REMARK    4  A    between atoms: C_11  and  C_18 
REMARK    5  A    between atoms: C_18  and  C_22 
REMARK    6  A    between atoms: C_22  and  C_29 
ROOT
HETATM    1  O   UNK N   1      27.150  25.255  -3.176  0.00  0.00    -0.338 OA
HETATM    2  N   UNK N   1      26.586  23.226  -7.829  0.00  0.00     0.090 N 
HETATM    3  C   UNK N   1      28.463  24.196  -6.419  0.00  0.00     0.006 C 
HETATM    4  C   UNK N   1      27.456  24.316  -5.276  0.00  0.00     0.031 C 
HETATM    5  C   UNK N   1      29.625  23.987  -4.000  0.00  0.00     0.094 C 
HETATM    6  C   UNK N   1      28.080  24.443  -3.865  0.00  0.00     0.178 C 
HETATM    7  C   UNK N   1      29.196  22.851  -6.270  0.00  0.00     0.023 C 
HETATM    8  C   UNK N   1      29.690  22.619  -4.807  0.00  0.00     0.057 C 
HETATM    9  C   UNK N   1      27.596  24.315  -7.733  0.00  0.00     0.236 C 
HETATM   10  C   UNK N   1      29.581  25.258  -6.264  0.00  0.00     0.016 C 
HETATM   11  C   UNK N   1      30.422  24.988  -4.970  0.00  0.00     0.042 C 
HETATM   12  C   UNK N   1      26.466  23.134  -5.328  0.00  0.00     0.048 C 
HETATM   13  C   UNK N   1      26.696  25.554  -5.330  0.00  0.00    -0.003 A 
HETATM   14  C   UNK N   1      26.826  25.684  -7.819  0.00  0.00     0.075 C 
HETATM   15  C   UNK N   1      25.702  23.111  -6.659  0.00  0.00     0.273 C 
HETATM   16  C   UNK N   1      26.316  26.209  -6.485  0.00  0.00    -0.046 A 
HETATM   17  C   UNK N   1      26.474  26.020  -4.087  0.00  0.00     0.110 A 
HETATM   18  C   UNK N   1      27.165  21.923  -8.138  0.00  0.00     0.310 C 
HETATM   19  C   UNK N   1      25.585  27.400  -6.343  0.00  0.00     0.011 A 
HETATM   20  C   UNK N   1      25.743  27.191  -3.894  0.00  0.00     0.099 A 
HETATM   21  C   UNK N   1      25.273  27.879  -5.042  0.00  0.00     0.040 A 
ENDROOT
BRANCH   8  22
HETATM   22  C   UNK N   1      31.086  21.877  -4.837  0.00  0.00     0.061 C 
HETATM   23  C   UNK N   1      31.124  20.624  -3.975  0.00  0.00     0.046 C 
BRANCH  22  24
HETATM   24  O   UNK N   1      32.095  22.717  -4.353  0.00  0.00    -0.390 OA
HETATM   25  H   UNK N   1      32.425  22.614  -3.447  0.00  0.00     0.210 HD
ENDBRANCH  22  24
BRANCH  22  26
HETATM   26  C   UNK N   1      31.466  21.446  -6.260  0.00  0.00     0.037 C 
BRANCH  26  27
HETATM   27  C   UNK N   1      31.383  19.929  -6.466  0.00  0.00    -0.002 C 
HETATM   28  C   UNK N   1      30.262  19.573  -7.432  0.00  0.00     0.005 C 
ENDBRANCH  26  27
ENDBRANCH  22  26
ENDBRANCH   8  22
BRANCH   5  29
HETATM   29  O   UNK N   1      30.227  23.790  -2.729  0.00  0.00    -0.382 OA
HETATM   30  C   UNK N   1      29.375  23.048  -1.892  0.00  0.00     0.202 C 
ENDBRANCH   5  29
BRANCH  20  31
HETATM   31  O   UNK N   1      25.527  27.684  -2.664  0.00  0.00    -0.358 OA
HETATM   32  H   UNK N   1      25.237  28.562  -2.516  0.00  0.00     0.217 HD
ENDBRANCH  20  31
TORSDOF 6
ENDMDL
MODEL 3
REMARK VINA RESULT:      -6.6      6.600     10.301
REMARK  6 active torsions:
REMARK  status: ('A' for Active; 'I' for Inactive)
REMARK    1  A    between atoms: C_8  and  O_2 
REMARK    2  A    between atoms: C_18  and  O_3 
REMARK    3  A    between atoms: O_4  and  C_26 
REMARK    4  A    between atoms: C_11  and  C_18 
REMARK    5  A    between atoms: C_18  and  C_22 
REMARK    6  A    between atoms: C_22  and  C_29 
ROOT
HETATM    1  O   UNK N   1      20.128  15.773   3.254  0.00  0.00    -0.338 OA
HETATM    2  N   UNK N   1      25.028  16.480   4.508  0.00  0.00     0.090 N 
HETATM    3  C   UNK N   1      22.813  16.149   5.706  0.00  0.00     0.006 C 
HETATM    4  C   UNK N   1      22.176  15.937   4.333  0.00  0.00     0.031 C 
HETATM    5  C   UNK N   1      20.680  14.512   5.806  0.00  0.00     0.094 C 
HETATM    6  C   UNK N   1      20.813  15.203   4.351  0.00  0.00     0.178 C 
HETATM    7  C   UNK N   1      23.198  14.770   6.271  0.00  0.00     0.023 C 
HETATM    8  C   UNK N   1      22.030  13.742   6.137  0.00  0.00     0.057 C 
HETATM    9  C   UNK N   1      24.044  17.100   5.435  0.00  0.00     0.236 C 
HETATM   10  C   UNK N   1      21.763  16.692   6.708  0.00  0.00     0.016 C 
HETATM   11  C   UNK N   1      20.638  15.630   6.957  0.00  0.00     0.042 C 
HETATM   12  C   UNK N   1      23.171  15.212   3.403  0.00  0.00     0.048 C 
HETATM   13  C   UNK N   1      21.784  17.186   3.701  0.00  0.00    -0.003 A 
HETATM   14  C   UNK N   1      23.608  18.477   4.811  0.00  0.00     0.075 C 
HETATM   15  C   UNK N   1      24.459  16.027   3.229  0.00  0.00     0.273 C 
HETATM   16  C   UNK N   1      22.446  18.390   3.833  0.00  0.00    -0.046 A 
HETATM   17  C   UNK N   1      20.633  17.023   3.021  0.00  0.00     0.110 A 
HETATM   18  C   UNK N   1      25.795  15.397   5.115  0.00  0.00     0.310 C 
HETATM   19  C   UNK N   1      21.917  19.497   3.148  0.00  0.00     0.011 A 
HETATM   20  C   UNK N   1      20.077  18.089   2.315  0.00  0.00     0.099 A 
HETATM   21  C   UNK N   1      20.743  19.340   2.363  0.00  0.00     0.040 A 
ENDROOT
BRANCH   8  22
HETATM   22  C   UNK N   1      22.018  12.795   7.404  0.00  0.00     0.061 C 
HETATM   23  C   UNK N   1      22.444  11.368   7.095  0.00  0.00     0.046 C 
BRANCH  22  24
HETATM   24  O   UNK N   1      20.727  12.713   7.938  0.00  0.00    -0.390 OA
HETATM   25  H   UNK N   1      20.563  12.200   8.744  0.00  0.00     0.210 HD
ENDBRANCH  22  24
BRANCH  22  26
HETATM   26  C   UNK N   1      22.957  13.310   8.502  0.00  0.00     0.037 C 
BRANCH  26  27
HETATM   27  C   UNK N   1      22.249  13.506   9.848  0.00  0.00    -0.002 C 
HETATM   28  C   UNK N   1      22.670  12.434  10.844  0.00  0.00     0.005 C 
ENDBRANCH  26  27
ENDBRANCH  22  26
ENDBRANCH   8  22
BRANCH   5  29
HETATM   29  O   UNK N   1      19.608  13.579   5.848  0.00  0.00    -0.382 OA
HETATM   30  C   UNK N   1      19.587  12.802   4.677  0.00  0.00     0.202 C 
ENDBRANCH   5  29
BRANCH  20  31
HETATM   31  O   UNK N   1      18.920  17.954   1.647  0.00  0.00    -0.358 OA
HETATM   32  H   UNK N   1      18.249  18.608   1.663  0.00  0.00     0.217 HD
ENDBRANCH  20  31
TORSDOF 6
ENDMDL
MODEL 4
REMARK VINA RESULT:      -6.5     13.031     15.635
REMARK  6 active torsions:
REMARK  status: ('A' for Active; 'I' for Inactive)
REMARK    1  A    between atoms: C_8  and  O_2 
REMARK    2  A    between atoms: C_18  and  O_3 
REMARK    3  A    between atoms: O_4  and  C_26 
REMARK    4  A    between atoms: C_11  and  C_18 
REMARK    5  A    between atoms: C_18  and  C_22 
REMARK    6  A    between atoms: C_22  and  C_29 
ROOT
HETATM    1  O   UNK N   1      25.222  24.047  -5.464  0.00  0.00    -0.338 OA
HETATM    2  N   UNK N   1      30.230  23.995  -4.465  0.00  0.00     0.090 N 
HETATM    3  C   UNK N   1      28.551  25.556  -5.558  0.00  0.00     0.006 C 
HETATM    4  C   UNK N   1      27.461  24.569  -5.142  0.00  0.00     0.031 C 
HETATM    5  C   UNK N   1      26.184  26.762  -5.127  0.00  0.00     0.094 C 
HETATM    6  C   UNK N   1      26.027  25.153  -5.109  0.00  0.00     0.178 C 
HETATM    7  C   UNK N   1      28.667  26.628  -4.461  0.00  0.00     0.023 C 
HETATM    8  C   UNK N   1      27.269  27.187  -4.046  0.00  0.00     0.057 C 
HETATM    9  C   UNK N   1      29.847  24.672  -5.734  0.00  0.00     0.236 C 
HETATM   10  C   UNK N   1      28.110  26.345  -6.818  0.00  0.00     0.016 C 
HETATM   11  C   UNK N   1      26.868  27.244  -6.497  0.00  0.00     0.042 C 
HETATM   12  C   UNK N   1      27.821  23.938  -3.782  0.00  0.00     0.048 C 
HETATM   13  C   UNK N   1      27.277  23.501  -6.110  0.00  0.00    -0.003 A 
HETATM   14  C   UNK N   1      29.665  23.557  -6.830  0.00  0.00     0.075 C 
HETATM   15  C   UNK N   1      29.160  23.191  -3.856  0.00  0.00     0.273 C 
HETATM   16  C   UNK N   1      28.275  22.942  -6.883  0.00  0.00    -0.046 A 
HETATM   17  C   UNK N   1      25.973  23.176  -6.205  0.00  0.00     0.110 A 
HETATM   18  C   UNK N   1      30.791  24.903  -3.470  0.00  0.00     0.310 C 
HETATM   19  C   UNK N   1      27.909  21.916  -7.770  0.00  0.00     0.011 A 
HETATM   20  C   UNK N   1      25.562  22.156  -7.062  0.00  0.00     0.099 A 
HETATM   21  C   UNK N   1      26.551  21.502  -7.840  0.00  0.00     0.040 A 
ENDROOT
BRANCH   8  22
HETATM   22  C   UNK N   1      27.394  28.732  -3.731  0.00  0.00     0.061 C 
HETATM   23  C   UNK N   1      28.658  29.093  -2.967  0.00  0.00     0.046 C 
BRANCH  22  24
HETATM   24  O   UNK N   1      26.321  29.155  -2.938  0.00  0.00    -0.390 OA
HETATM   25  H   UNK N   1      25.712  28.506  -2.551  0.00  0.00     0.210 HD
ENDBRANCH  22  24
BRANCH  22  26
HETATM   26  C   UNK N   1      27.398  29.571  -5.016  0.00  0.00     0.037 C 
BRANCH  26  27
HETATM   27  C   UNK N   1      28.731  30.288  -5.255  0.00  0.00    -0.002 C 
HETATM   28  C   UNK N   1      29.219  30.066  -6.679  0.00  0.00     0.005 C 
ENDBRANCH  26  27
ENDBRANCH  22  26
ENDBRANCH   8  22
BRANCH   5  29
HETATM   29  O   UNK N   1      24.959  27.412  -4.816  0.00  0.00    -0.382 OA
HETATM   30  C   UNK N   1      24.063  27.313  -5.893  0.00  0.00     0.202 C 
ENDBRANCH   5  29
BRANCH  20  31
HETATM   31  O   UNK N   1      24.266  21.831  -7.188  0.00  0.00    -0.358 OA
HETATM   32  H   UNK N   1      23.697  21.730  -6.451  0.00  0.00     0.217 HD
ENDBRANCH  20  31
TORSDOF 6
ENDMDL
MODEL 5
REMARK VINA RESULT:      -6.4      7.310      9.627
REMARK  6 active torsions:
REMARK  status: ('A' for Active; 'I' for Inactive)
REMARK    1  A    between atoms: C_8  and  O_2 
REMARK    2  A    between atoms: C_18  and  O_3 
REMARK    3  A    between atoms: O_4  and  C_26 
REMARK    4  A    between atoms: C_11  and  C_18 
REMARK    5  A    between atoms: C_18  and  C_22 
REMARK    6  A    between atoms: C_22  and  C_29 
ROOT
HETATM    1  O   UNK N   1      20.175  14.212   7.891  0.00  0.00    -0.338 OA
HETATM    2  N   UNK N   1      24.733  14.077   5.589  0.00  0.00     0.090 N 
HETATM    3  C   UNK N   1      22.389  13.196   5.164  0.00  0.00     0.006 C 
HETATM    4  C   UNK N   1      21.944  13.963   6.409  0.00  0.00     0.031 C 
HETATM    5  C   UNK N   1      19.820  13.985   5.022  0.00  0.00     0.094 C 
HETATM    6  C   UNK N   1      20.424  14.239   6.500  0.00  0.00     0.178 C 
HETATM    7  C   UNK N   1      22.152  14.096   3.939  0.00  0.00     0.023 C 
HETATM    8  C   UNK N   1      20.728  14.737   3.957  0.00  0.00     0.057 C 
HETATM    9  C   UNK N   1      23.907  12.850   5.427  0.00  0.00     0.236 C 
HETATM   10  C   UNK N   1      21.462  11.976   4.926  0.00  0.00     0.016 C 
HETATM   11  C   UNK N   1      20.005  12.448   4.596  0.00  0.00     0.042 C 
HETATM   12  C   UNK N   1      22.742  15.278   6.523  0.00  0.00     0.048 C 
HETATM   13  C   UNK N   1      22.137  13.202   7.632  0.00  0.00    -0.003 A 
HETATM   14  C   UNK N   1      24.105  11.970   6.716  0.00  0.00     0.075 C 
HETATM   15  C   UNK N   1      24.249  15.004   6.624  0.00  0.00     0.273 C 
HETATM   16  C   UNK N   1      23.161  12.304   7.861  0.00  0.00    -0.046 A 
HETATM   17  C   UNK N   1      21.130  13.439   8.493  0.00  0.00     0.110 A 
HETATM   18  C   UNK N   1      24.948  14.801   4.342  0.00  0.00     0.310 C 
HETATM   19  C   UNK N   1      23.186  11.656   9.108  0.00  0.00     0.011 A 
HETATM   20  C   UNK N   1      21.117  12.829   9.747  0.00  0.00     0.099 A 
HETATM   21  C   UNK N   1      22.175  11.940  10.065  0.00  0.00     0.040 A 
ENDROOT
BRANCH   8  22
HETATM   22  C   UNK N   1      20.173  14.820   2.478  0.00  0.00     0.061 C 
HETATM   23  C   UNK N   1      20.063  16.243   1.952  0.00  0.00     0.046 C 
BRANCH  22  24
HETATM   24  O   UNK N   1      18.885  14.275   2.411  0.00  0.00    -0.390 OA
HETATM   25  H   UNK N   1      18.518  13.990   1.560  0.00  0.00     0.210 HD
ENDBRANCH  22  24
BRANCH  22  26
HETATM   26  C   UNK N   1      21.067  14.052   1.496  0.00  0.00     0.037 C 
BRANCH  26  27
HETATM   27  C   UNK N   1      20.335  12.898   0.801  0.00  0.00    -0.002 C 
HETATM   28  C   UNK N   1      21.061  11.579   1.030  0.00  0.00     0.005 C 
ENDBRANCH  26  27
ENDBRANCH  22  26
ENDBRANCH   8  22
BRANCH   5  29
HETATM   29  O   UNK N   1      18.491  14.475   4.906  0.00  0.00    -0.382 OA
HETATM   30  C   UNK N   1      18.398  15.772   5.440  0.00  0.00     0.202 C 
ENDBRANCH   5  29
BRANCH  20  31
HETATM   31  O   UNK N   1      20.112  13.035  10.612  0.00  0.00    -0.358 OA
HETATM   32  H   UNK N   1      19.874  13.889  10.916  0.00  0.00     0.217 HD
ENDBRANCH  20  31
TORSDOF 6
ENDMDL
MODEL 6
REMARK VINA RESULT:      -6.3      3.314      7.227
REMARK  6 active torsions:
REMARK  status: ('A' for Active; 'I' for Inactive)
REMARK    1  A    between atoms: C_8  and  O_2 
REMARK    2  A    between atoms: C_18  and  O_3 
REMARK    3  A    between atoms: O_4  and  C_26 
REMARK    4  A    between atoms: C_11  and  C_18 
REMARK    5  A    between atoms: C_18  and  C_22 
REMARK    6  A    between atoms: C_22  and  C_29 
ROOT
HETATM    1  O   UNK N   1      32.254  16.725   4.143  0.00  0.00    -0.338 OA
HETATM    2  N   UNK N   1      33.533  17.258   9.058  0.00  0.00     0.090 N 
HETATM    3  C   UNK N   1      33.360  15.380   7.357  0.00  0.00     0.006 C 
HETATM    4  C   UNK N   1      33.033  16.445   6.311  0.00  0.00     0.031 C 
HETATM    5  C   UNK N   1      34.164  14.675   4.888  0.00  0.00     0.094 C 
HETATM    6  C   UNK N   1      33.250  16.008   4.842  0.00  0.00     0.178 C 
HETATM    7  C   UNK N   1      34.877  15.125   7.320  0.00  0.00     0.023 C 
HETATM    8  C   UNK N   1      35.396  14.926   5.860  0.00  0.00     0.057 C 
HETATM    9  C   UNK N   1      32.842  15.985   8.721  0.00  0.00     0.236 C 
HETATM   10  C   UNK N   1      32.734  14.021   6.954  0.00  0.00     0.016 C 
HETATM   11  C   UNK N   1      33.384  13.486   5.633  0.00  0.00     0.042 C 
HETATM   12  C   UNK N   1      33.822  17.735   6.616  0.00  0.00     0.048 C 
HETATM   13  C   UNK N   1      31.617  16.772   6.271  0.00  0.00    -0.003 A 
HETATM   14  C   UNK N   1      31.296  16.276   8.696  0.00  0.00     0.075 C 
HETATM   15  C   UNK N   1      33.469  18.284   8.005  0.00  0.00     0.273 C 
HETATM   16  C   UNK N   1      30.767  16.773   7.359  0.00  0.00    -0.046 A 
HETATM   17  C   UNK N   1      31.227  17.005   5.004  0.00  0.00     0.110 A 
HETATM   18  C   UNK N   1      34.916  17.073   9.482  0.00  0.00     0.310 C 
HETATM   19  C   UNK N   1      29.423  17.114   7.129  0.00  0.00     0.011 A 
HETATM   20  C   UNK N   1      29.908  17.358   4.727  0.00  0.00     0.099 A 
HETATM   21  C   UNK N   1      28.998  17.435   5.812  0.00  0.00     0.040 A 
ENDROOT
BRANCH   8  22
HETATM   22  C   UNK N   1      36.542  13.837   5.856  0.00  0.00     0.061 C 
HETATM   23  C   UNK N   1      37.883  14.371   5.376  0.00  0.00     0.046 C 
BRANCH  22  24
HETATM   24  O   UNK N   1      36.208  12.784   4.995  0.00  0.00    -0.390 OA
HETATM   25  H   UNK N   1      36.859  12.095   4.790  0.00  0.00     0.210 HD
ENDBRANCH  22  24
BRANCH  22  26
HETATM   26  C   UNK N   1      36.772  13.253   7.256  0.00  0.00     0.037 C 
BRANCH  26  27
HETATM   27  C   UNK N   1      38.202  13.471   7.764  0.00  0.00    -0.002 C 
HETATM   28  C   UNK N   1      38.198  13.934   9.214  0.00  0.00     0.005 C 
ENDBRANCH  26  27
ENDBRANCH  22  26
ENDBRANCH   8  22
BRANCH   5  29
HETATM   29  O   UNK N   1      34.667  14.339   3.602  0.00  0.00    -0.382 OA
HETATM   30  C   UNK N   1      33.640  13.827   2.791  0.00  0.00     0.202 C 
ENDBRANCH   5  29
BRANCH  20  31
HETATM   31  O   UNK N   1      29.493  17.574   3.469  0.00  0.00    -0.358 OA
HETATM   32  H   UNK N   1      30.035  17.979   2.820  0.00  0.00     0.217 HD
ENDBRANCH  20  31
TORSDOF 6
ENDMDL
MODEL 7
REMARK VINA RESULT:      -6.2     11.167     13.831
REMARK  6 active torsions:
REMARK  status: ('A' for Active; 'I' for Inactive)
REMARK    1  A    between atoms: C_8  and  O_2 
REMARK    2  A    between atoms: C_18  and  O_3 
REMARK    3  A    between atoms: O_4  and  C_26 
REMARK    4  A    between atoms: C_11  and  C_18 
REMARK    5  A    between atoms: C_18  and  C_22 
REMARK    6  A    between atoms: C_22  and  C_29 
ROOT
HETATM    1  O   UNK N   1      30.531  23.355  -2.484  0.00  0.00    -0.338 OA
HETATM    2  N   UNK N   1      31.805  26.756  -6.075  0.00  0.00     0.090 N 
HETATM    3  C   UNK N   1      29.899  25.143  -5.609  0.00  0.00     0.006 C 
HETATM    4  C   UNK N   1      30.575  24.831  -4.275  0.00  0.00     0.031 C 
HETATM    5  C   UNK N   1      28.134  24.440  -3.703  0.00  0.00     0.094 C 
HETATM    6  C   UNK N   1      29.653  24.193  -3.207  0.00  0.00     0.178 C 
HETATM    7  C   UNK N   1      28.867  26.259  -5.370  0.00  0.00     0.023 C 
HETATM    8  C   UNK N   1      27.970  25.963  -4.126  0.00  0.00     0.057 C 
HETATM    9  C   UNK N   1      31.081  25.555  -6.571  0.00  0.00     0.236 C 
HETATM   10  C   UNK N   1      29.051  23.933  -6.078  0.00  0.00     0.016 C 
HETATM   11  C   UNK N   1      27.865  23.674  -5.089  0.00  0.00     0.042 C 
HETATM   12  C   UNK N   1      31.249  26.103  -3.721  0.00  0.00     0.048 C 
HETATM   13  C   UNK N   1      31.584  23.791  -4.391  0.00  0.00    -0.003 A 
HETATM   14  C   UNK N   1      32.138  24.402  -6.746  0.00  0.00     0.075 C 
HETATM   15  C   UNK N   1      32.306  26.638  -4.697  0.00  0.00     0.273 C 
HETATM   16  C   UNK N   1      32.390  23.578  -5.492  0.00  0.00    -0.046 A 
HETATM   17  C   UNK N   1      31.577  23.008  -3.296  0.00  0.00     0.110 A 
HETATM   18  C   UNK N   1      31.045  27.992  -6.219  0.00  0.00     0.310 C 
HETATM   19  C   UNK N   1      33.310  22.519  -5.426  0.00  0.00     0.011 A 
HETATM   20  C   UNK N   1      32.480  21.953  -3.178  0.00  0.00     0.099 A 
HETATM   21  C   UNK N   1      33.375  21.720  -4.253  0.00  0.00     0.040 A 
ENDROOT
BRANCH   8  22
HETATM   22  C   UNK N   1      26.499  26.469  -4.408  0.00  0.00     0.061 C 
HETATM   23  C   UNK N   1      25.957  27.389  -3.324  0.00  0.00     0.046 C 
BRANCH  22  24
HETATM   24  O   UNK N   1      25.616  25.385  -4.480  0.00  0.00    -0.390 OA
HETATM   25  H   UNK N   1      24.678  25.502  -4.264  0.00  0.00     0.210 HD
ENDBRANCH  22  24
BRANCH  22  26
HETATM   26  C   UNK N   1      26.412  27.243  -5.731  0.00  0.00     0.037 C 
BRANCH  26  27
HETATM   27  C   UNK N   1      25.473  26.583  -6.746  0.00  0.00    -0.002 C 
HETATM   28  C   UNK N   1      26.232  26.171  -8.000  0.00  0.00     0.005 C 
ENDBRANCH  26  27
ENDBRANCH  22  26
ENDBRANCH   8  22
BRANCH   5  29
HETATM   29  O   UNK N   1      27.194  24.154  -2.676  0.00  0.00    -0.382 OA
HETATM   30  C   UNK N   1      27.735  23.240  -1.756  0.00  0.00     0.202 C 
ENDBRANCH   5  29
BRANCH  20  31
HETATM   31  O   UNK N   1      32.476  21.148  -2.104  0.00  0.00    -0.358 OA
HETATM   32  H   UNK N   1      31.977  20.355  -2.068  0.00  0.00     0.217 HD
ENDBRANCH  20  31
TORSDOF 6
ENDMDL
MODEL 8
REMARK VINA RESULT:      -6.2      1.977      6.067
REMARK  6 active torsions:
REMARK  status: ('A' for Active; 'I' for Inactive)
REMARK    1  A    between atoms: C_8  and  O_2 
REMARK    2  A    between atoms: C_18  and  O_3 
REMARK    3  A    between atoms: O_4  and  C_26 
REMARK    4  A    between atoms: C_11  and  C_18 
REMARK    5  A    between atoms: C_18  and  C_22 
REMARK    6  A    between atoms: C_22  and  C_29 
ROOT
HETATM    1  O   UNK N   1      28.509  18.996   7.013  0.00  0.00    -0.338 OA
HETATM    2  N   UNK N   1      26.565  14.834   4.782  0.00  0.00     0.090 N 
HETATM    3  C   UNK N   1      28.723  16.172   4.702  0.00  0.00     0.006 C 
HETATM    4  C   UNK N   1      28.158  17.027   5.835  0.00  0.00     0.031 C 
HETATM    5  C   UNK N   1      30.651  17.183   6.284  0.00  0.00     0.094 C 
HETATM    6  C   UNK N   1      29.212  17.830   6.637  0.00  0.00     0.178 C 
HETATM    7  C   UNK N   1      29.571  15.051   5.328  0.00  0.00     0.023 C 
HETATM    8  C   UNK N   1      30.551  15.602   6.411  0.00  0.00     0.057 C 
HETATM    9  C   UNK N   1      27.453  15.657   3.917  0.00  0.00     0.236 C 
HETATM   10  C   UNK N   1      29.734  16.992   3.862  0.00  0.00     0.016 C 
HETATM   11  C   UNK N   1      30.985  17.375   4.725  0.00  0.00     0.042 C 
HETATM   12  C   UNK N   1      27.311  16.149   6.779  0.00  0.00     0.048 C 
HETATM   13  C   UNK N   1      27.326  18.116   5.351  0.00  0.00    -0.003 A 
HETATM   14  C   UNK N   1      26.589  16.838   3.338  0.00  0.00     0.075 C 
HETATM   15  C   UNK N   1      26.144  15.495   6.027  0.00  0.00     0.273 C 
HETATM   16  C   UNK N   1      26.522  18.070   4.229  0.00  0.00    -0.046 A 
HETATM   17  C   UNK N   1      27.502  19.213   6.112  0.00  0.00     0.110 A 
HETATM   18  C   UNK N   1      27.110  13.515   5.084  0.00  0.00     0.310 C 
HETATM   19  C   UNK N   1      25.787  19.224   3.912  0.00  0.00     0.011 A 
HETATM   20  C   UNK N   1      26.786  20.378   5.844  0.00  0.00     0.099 A 
HETATM   21  C   UNK N   1      25.898  20.374   4.739  0.00  0.00     0.040 A 
ENDROOT
BRANCH   8  22
HETATM   22  C   UNK N   1      31.910  14.795   6.347  0.00  0.00     0.061 C 
HETATM   23  C   UNK N   1      32.340  14.226   7.690  0.00  0.00     0.046 C 
BRANCH  22  24
HETATM   24  O   UNK N   1      32.951  15.629   5.922  0.00  0.00    -0.390 OA
HETATM   25  H   UNK N   1      33.785  15.661   6.418  0.00  0.00     0.210 HD
ENDBRANCH  22  24
BRANCH  22  26
HETATM   26  C   UNK N   1      31.819  13.612   5.373  0.00  0.00     0.037 C 
BRANCH  26  27
HETATM   27  C   UNK N   1      32.815  13.718   4.213  0.00  0.00    -0.002 C 
HETATM   28  C   UNK N   1      32.090  13.959   2.896  0.00  0.00     0.005 C 
ENDBRANCH  26  27
ENDBRANCH  22  26
ENDBRANCH   8  22
BRANCH   5  29
HETATM   29  O   UNK N   1      31.664  17.643   7.167  0.00  0.00    -0.382 OA
HETATM   30  C   UNK N   1      31.188  17.670   8.489  0.00  0.00     0.202 C 
ENDBRANCH   5  29
BRANCH  20  31
HETATM   31  O   UNK N   1      26.961  21.489   6.577  0.00  0.00    -0.358 OA
HETATM   32  H   UNK N   1      26.739  21.535   7.487  0.00  0.00     0.217 HD
ENDBRANCH  20  31
TORSDOF 6
ENDMDL
MODEL 9
REMARK VINA RESULT:      -6.1      3.020      5.169
REMARK  6 active torsions:
REMARK  status: ('A' for Active; 'I' for Inactive)
REMARK    1  A    between atoms: C_8  and  O_2 
REMARK    2  A    between atoms: C_18  and  O_3 
REMARK    3  A    between atoms: O_4  and  C_26 
REMARK    4  A    between atoms: C_11  and  C_18 
REMARK    5  A    between atoms: C_18  and  C_22 
REMARK    6  A    between atoms: C_22  and  C_29 
ROOT
HETATM    1  O   UNK N   1      35.586  15.946  10.407  0.00  0.00    -0.338 OA
HETATM    2  N   UNK N   1      35.280  11.934   7.262  0.00  0.00     0.090 N 
HETATM    3  C   UNK N   1      33.723  13.712   8.193  0.00  0.00     0.006 C 
HETATM    4  C   UNK N   1      34.948  14.348   8.850  0.00  0.00     0.031 C 
HETATM    5  C   UNK N   1      33.473  16.377   8.469  0.00  0.00     0.094 C 
HETATM    6  C   UNK N   1      34.776  15.833   9.254  0.00  0.00     0.178 C 
HETATM    7  C   UNK N   1      33.506  14.393   6.830  0.00  0.00     0.023 C 
HETATM    8  C   UNK N   1      33.574  15.949   6.942  0.00  0.00     0.057 C 
HETATM    9  C   UNK N   1      34.072  12.175   8.097  0.00  0.00     0.236 C 
HETATM   10  C   UNK N   1      32.443  14.053   8.998  0.00  0.00     0.016 C 
HETATM   11  C   UNK N   1      32.158  15.592   8.952  0.00  0.00     0.042 C 
HETATM   12  C   UNK N   1      36.179  14.173   7.937  0.00  0.00     0.048 C 
HETATM   13  C   UNK N   1      35.251  13.766  10.146  0.00  0.00    -0.003 A 
HETATM   14  C   UNK N   1      34.335  11.533   9.509  0.00  0.00     0.075 C 
HETATM   15  C   UNK N   1      36.471  12.688   7.683  0.00  0.00     0.273 C 
HETATM   16  C   UNK N   1      35.048  12.446  10.497  0.00  0.00    -0.046 A 
HETATM   17  C   UNK N   1      35.693  14.715  10.993  0.00  0.00     0.110 A 
HETATM   18  C   UNK N   1      35.049  12.133   5.836  0.00  0.00     0.310 C 
HETATM   19  C   UNK N   1      35.399  12.061  11.802  0.00  0.00     0.011 A 
HETATM   20  C   UNK N   1      36.066  14.380  12.294  0.00  0.00     0.099 A 
HETATM   21  C   UNK N   1      35.936  13.026  12.695  0.00  0.00     0.040 A 
ENDROOT
BRANCH   8  22
HETATM   22  C   UNK N   1      32.522  16.591   5.950  0.00  0.00     0.061 C 
HETATM   23  C   UNK N   1      33.152  17.498   4.904  0.00  0.00     0.046 C 
BRANCH  22  24
HETATM   24  O   UNK N   1      31.608  17.383   6.656  0.00  0.00    -0.390 OA
HETATM   25  H   UNK N   1      30.659  17.191   6.612  0.00  0.00     0.210 HD
ENDBRANCH  22  24
BRANCH  22  26
HETATM   26  C   UNK N   1      31.734  15.517   5.189  0.00  0.00     0.037 C 
BRANCH  26  27
HETATM   27  C   UNK N   1      30.258  15.458   5.599  0.00  0.00    -0.002 C 
HETATM   28  C   UNK N   1      29.595  14.198   5.060  0.00  0.00     0.005 C 
ENDBRANCH  26  27
ENDBRANCH  22  26
ENDBRANCH   8  22
BRANCH   5  29
HETATM   29  O   UNK N   1      33.374  17.793   8.533  0.00  0.00    -0.382 OA
HETATM   30  C   UNK N   1      34.614  18.386   8.237  0.00  0.00     0.202 C 
ENDBRANCH   5  29
BRANCH  20  31
HETATM   31  O   UNK N   1      36.490  15.314  13.160  0.00  0.00    -0.358 OA
HETATM   32  H   UNK N   1      37.388  15.398  13.412  0.00  0.00     0.217 HD
ENDBRANCH  20  31
TORSDOF 6
ENDMDL
