MODEL 1
REMARK VINA RESULT:      -7.4      0.000      0.000
REMARK  7 active torsions:
REMARK  status: ('A' for Active; 'I' for Inactive)
REMARK    1  A    between atoms: O_1  and  C_11 
REMARK    2  A    between atoms: N_3  and  C_10 
REMARK    3  A    between atoms: N_4  and  C_5 
REMARK    4  A    between atoms: N_4  and  C_12 
REMARK       I    between atoms: N_4  and  C_13 
REMARK    5  A    between atoms: C_10  and  C_11 
REMARK    6  A    between atoms: C_11  and  C_14 
REMARK    7  A    between atoms: C_13  and  C_15 
ROOT
HETATM    1  N   UNK N   1      34.823  15.344  10.442  0.00  0.00     0.091 N 
HETATM    2  C   UNK N   1      36.182  13.640  12.363  0.00  0.00     0.096 C 
HETATM    3  C   UNK N   1      36.101  15.154  12.527  0.00  0.00     0.056 C 
HETATM    4  C   UNK N   1      34.887  13.189  11.684  0.00  0.00     0.056 C 
HETATM    5  C   UNK N   1      36.054  15.748  11.129  0.00  0.00     0.274 C 
HETATM    6  C   UNK N   1      34.768  13.882  10.323  0.00  0.00     0.274 C 
ENDROOT
BRANCH   2   7
HETATM    7  N   UNK N   1      36.667  12.963  13.590  0.00  0.00    -0.313 N 
HETATM    8  C   UNK N   1      37.492  11.861  13.379  0.00  0.00     0.224 C 
HETATM    9  O   UNK N   1      37.750  11.515  12.230  0.00  0.00    -0.273 OA
BRANCH   7  10
HETATM   10  C   UNK N   1      36.255  13.383  14.937  0.00  0.00     0.037 A 
HETATM   11  C   UNK N   1      36.966  14.364  15.659  0.00  0.00     0.030 A 
HETATM   12  C   UNK N   1      36.605  14.736  16.956  0.00  0.00     0.002 A 
HETATM   13  C   UNK N   1      35.516  14.129  17.575  0.00  0.00     0.000 A 
HETATM   14  C   UNK N   1      34.788  13.159  16.891  0.00  0.00     0.002 A 
HETATM   15  C   UNK N   1      35.156  12.795  15.591  0.00  0.00     0.030 A 
ENDBRANCH   7  10
BRANCH   8  16
HETATM   16  C   UNK N   1      38.101  11.045  14.496  0.00  0.00     0.099 C 
HETATM   17  C   UNK N   1      37.324   9.776  14.816  0.00  0.00     0.014 C 
ENDBRANCH   8  16
ENDBRANCH   2   7
BRANCH   1  18
HETATM   18  C   UNK N   1      34.862  15.854   9.072  0.00  0.00     0.308 C 
BRANCH  18  19
HETATM   19  C   UNK N   1      34.151  17.200   8.936  0.00  0.00     0.179 C 
BRANCH  19  20
HETATM   20  O   UNK N   1      35.098  18.230   8.926  0.00  0.00    -0.389 OA
HETATM   21  H   UNK N   1      35.973  18.097   8.528  0.00  0.00     0.210 HD
ENDBRANCH  19  20
BRANCH  19  22
HETATM   22  C   UNK N   1      33.301  17.231   7.698  0.00  0.00    -0.028 A 
HETATM   23  C   UNK N   1      33.915  17.394   6.448  0.00  0.00     0.010 A 
HETATM   24  C   UNK N   1      33.147  17.403   5.281  0.00  0.00     0.001 A 
HETATM   25  C   UNK N   1      31.761  17.242   5.355  0.00  0.00     0.000 A 
HETATM   26  C   UNK N   1      31.142  17.074   6.596  0.00  0.00     0.001 A 
HETATM   27  C   UNK N   1      31.908  17.068   7.765  0.00  0.00     0.010 A 
ENDBRANCH  19  22
ENDBRANCH  18  19
ENDBRANCH   1  18
TORSDOF 7
ENDMDL
MODEL 2
REMARK VINA RESULT:      -7.3      1.725      8.965
REMARK  7 active torsions:
REMARK  status: ('A' for Active; 'I' for Inactive)
REMARK    1  A    between atoms: O_1  and  C_11 
REMARK    2  A    between atoms: N_3  and  C_10 
REMARK    3  A    between atoms: N_4  and  C_5 
REMARK    4  A    between atoms: N_4  and  C_12 
REMARK       I    between atoms: N_4  and  C_13 
REMARK    5  A    between atoms: C_10  and  C_11 
REMARK    6  A    between atoms: C_11  and  C_14 
REMARK    7  A    between atoms: C_13  and  C_15 
ROOT
HETATM    1  N   UNK N   1      34.838  14.795  10.977  0.00  0.00     0.091 N 
HETATM    2  C   UNK N   1      33.876  16.043   8.535  0.00  0.00     0.096 C 
HETATM    3  C   UNK N   1      33.086  14.964   9.268  0.00  0.00     0.056 C 
HETATM    4  C   UNK N   1      34.625  16.854   9.595  0.00  0.00     0.056 C 
HETATM    5  C   UNK N   1      34.100  14.057   9.946  0.00  0.00     0.274 C 
HETATM    6  C   UNK N   1      35.560  15.921  10.372  0.00  0.00     0.274 C 
ENDROOT
BRANCH   2   7
HETATM    7  N   UNK N   1      33.072  16.725   7.492  0.00  0.00    -0.313 N 
HETATM    8  C   UNK N   1      33.732  16.966   6.289  0.00  0.00     0.224 C 
HETATM    9  O   UNK N   1      34.906  16.626   6.171  0.00  0.00    -0.273 OA
BRANCH   7  10
HETATM   10  C   UNK N   1      31.693  17.174   7.729  0.00  0.00     0.037 A 
HETATM   11  C   UNK N   1      30.602  16.630   7.020  0.00  0.00     0.030 A 
HETATM   12  C   UNK N   1      29.294  17.084   7.209  0.00  0.00     0.002 A 
HETATM   13  C   UNK N   1      29.039  18.106   8.118  0.00  0.00     0.000 A 
HETATM   14  C   UNK N   1      30.092  18.665   8.839  0.00  0.00     0.002 A 
HETATM   15  C   UNK N   1      31.397  18.202   8.644  0.00  0.00     0.030 A 
ENDBRANCH   7  10
BRANCH   8  16
HETATM   16  C   UNK N   1      33.085  17.633   5.098  0.00  0.00     0.099 C 
HETATM   17  C   UNK N   1      32.959  16.724   3.884  0.00  0.00     0.014 C 
ENDBRANCH   8  16
ENDBRANCH   2   7
BRANCH   1  18
HETATM   18  C   UNK N   1      35.865  13.918  11.535  0.00  0.00     0.308 C 
BRANCH  18  19
HETATM   19  C   UNK N   1      35.265  12.772  12.349  0.00  0.00     0.179 C 
BRANCH  19  20
HETATM   20  O   UNK N   1      35.838  11.561  11.943  0.00  0.00    -0.389 OA
HETATM   21  H   UNK N   1      36.031  10.861  12.587  0.00  0.00     0.210 HD
ENDBRANCH  19  20
BRANCH  19  22
HETATM   22  C   UNK N   1      35.465  13.000  13.820  0.00  0.00    -0.028 A 
HETATM   23  C   UNK N   1      36.486  13.861  14.249  0.00  0.00     0.010 A 
HETATM   24  C   UNK N   1      36.675  14.107  15.610  0.00  0.00     0.001 A 
HETATM   25  C   UNK N   1      35.842  13.500  16.554  0.00  0.00     0.000 A 
HETATM   26  C   UNK N   1      34.819  12.646  16.135  0.00  0.00     0.001 A 
HETATM   27  C   UNK N   1      34.629  12.396  14.773  0.00  0.00     0.010 A 
ENDBRANCH  19  22
ENDBRANCH  18  19
ENDBRANCH   1  18
TORSDOF 7
ENDMDL
MODEL 3
REMARK VINA RESULT:      -7.1      1.945      8.693
REMARK  7 active torsions:
REMARK  status: ('A' for Active; 'I' for Inactive)
REMARK    1  A    between atoms: O_1  and  C_11 
REMARK    2  A    between atoms: N_3  and  C_10 
REMARK    3  A    between atoms: N_4  and  C_5 
REMARK    4  A    between atoms: N_4  and  C_12 
REMARK       I    between atoms: N_4  and  C_13 
REMARK    5  A    between atoms: C_10  and  C_11 
REMARK    6  A    between atoms: C_11  and  C_14 
REMARK    7  A    between atoms: C_13  and  C_15 
ROOT
HETATM    1  N   UNK N   1      35.521  13.595  13.137  0.00  0.00     0.091 N 
HETATM    2  C   UNK N   1      35.543  14.506  10.378  0.00  0.00     0.096 C 
HETATM    3  C   UNK N   1      34.820  13.237  10.814  0.00  0.00     0.056 C 
HETATM    4  C   UNK N   1      35.450  15.500  11.538  0.00  0.00     0.056 C 
HETATM    5  C   UNK N   1      35.590  12.674  11.997  0.00  0.00     0.274 C 
HETATM    6  C   UNK N   1      36.114  14.888  12.776  0.00  0.00     0.274 C 
ENDROOT
BRANCH   2   7
HETATM    7  N   UNK N   1      35.183  14.919   9.000  0.00  0.00    -0.313 N 
HETATM    8  C   UNK N   1      35.962  14.365   7.986  0.00  0.00     0.224 C 
HETATM    9  O   UNK N   1      36.880  13.606   8.282  0.00  0.00    -0.273 OA
BRANCH   7  10
HETATM   10  C   UNK N   1      34.120  15.894   8.722  0.00  0.00     0.037 A 
HETATM   11  C   UNK N   1      34.408  17.244   8.429  0.00  0.00     0.030 A 
HETATM   12  C   UNK N   1      33.400  18.185   8.206  0.00  0.00     0.002 A 
HETATM   13  C   UNK N   1      32.064  17.801   8.276  0.00  0.00     0.000 A 
HETATM   14  C   UNK N   1      31.742  16.476   8.559  0.00  0.00     0.002 A 
HETATM   15  C   UNK N   1      32.759  15.541   8.778  0.00  0.00     0.030 A 
ENDBRANCH   7  10
BRANCH   8  16
HETATM   16  C   UNK N   1      35.748  14.646   6.517  0.00  0.00     0.099 C 
HETATM   17  C   UNK N   1      34.769  13.690   5.851  0.00  0.00     0.014 C 
ENDBRANCH   8  16
ENDBRANCH   2   7
BRANCH   1  18
HETATM   18  C   UNK N   1      36.351  13.065  14.218  0.00  0.00     0.308 C 
BRANCH  18  19
HETATM   19  C   UNK N   1      35.677  11.902  14.946  0.00  0.00     0.179 C 
BRANCH  19  20
HETATM   20  O   UNK N   1      36.408  10.728  14.728  0.00  0.00    -0.389 OA
HETATM   21  H   UNK N   1      36.016   9.859  14.905  0.00  0.00     0.210 HD
ENDBRANCH  19  20
BRANCH  19  22
HETATM   22  C   UNK N   1      35.547  12.196  16.413  0.00  0.00    -0.028 A 
HETATM   23  C   UNK N   1      35.375  13.522  16.835  0.00  0.00     0.010 A 
HETATM   24  C   UNK N   1      35.228  13.817  18.192  0.00  0.00     0.001 A 
HETATM   25  C   UNK N   1      35.244  12.787  19.138  0.00  0.00     0.000 A 
HETATM   26  C   UNK N   1      35.408  11.463  18.725  0.00  0.00     0.001 A 
HETATM   27  C   UNK N   1      35.559  11.166  17.368  0.00  0.00     0.010 A 
ENDBRANCH  19  22
ENDBRANCH  18  19
ENDBRANCH   1  18
TORSDOF 7
ENDMDL
MODEL 4
REMARK VINA RESULT:      -7.0      1.956      9.331
REMARK  7 active torsions:
REMARK  status: ('A' for Active; 'I' for Inactive)
REMARK    1  A    between atoms: O_1  and  C_11 
REMARK    2  A    between atoms: N_3  and  C_10 
REMARK    3  A    between atoms: N_4  and  C_5 
REMARK    4  A    between atoms: N_4  and  C_12 
REMARK       I    between atoms: N_4  and  C_13 
REMARK    5  A    between atoms: C_10  and  C_11 
REMARK    6  A    between atoms: C_11  and  C_14 
REMARK    7  A    between atoms: C_13  and  C_15 
ROOT
HETATM    1  N   UNK N   1      35.342  15.334  10.331  0.00  0.00     0.091 N 
HETATM    2  C   UNK N   1      33.017  16.075   8.754  0.00  0.00     0.096 C 
HETATM    3  C   UNK N   1      34.321  16.865   8.710  0.00  0.00     0.056 C 
HETATM    4  C   UNK N   1      33.385  14.607   8.977  0.00  0.00     0.056 C 
HETATM    5  C   UNK N   1      34.967  16.729  10.079  0.00  0.00     0.274 C 
HETATM    6  C   UNK N   1      34.150  14.477  10.298  0.00  0.00     0.274 C 
ENDROOT
BRANCH   2   7
HETATM    7  N   UNK N   1      32.082  16.464   7.671  0.00  0.00    -0.313 N 
HETATM    8  C   UNK N   1      30.823  16.887   8.089  0.00  0.00     0.224 C 
HETATM    9  O   UNK N   1      30.561  16.899   9.289  0.00  0.00    -0.273 OA
BRANCH   7  10
HETATM   10  C   UNK N   1      32.434  16.350   6.249  0.00  0.00     0.037 A 
HETATM   11  C   UNK N   1      32.854  17.467   5.496  0.00  0.00     0.030 A 
HETATM   12  C   UNK N   1      33.148  17.374   4.133  0.00  0.00     0.002 A 
HETATM   13  C   UNK N   1      33.026  16.152   3.478  0.00  0.00     0.000 A 
HETATM   14  C   UNK N   1      32.618  15.027   4.191  0.00  0.00     0.002 A 
HETATM   15  C   UNK N   1      32.328  15.130   5.556  0.00  0.00     0.030 A 
ENDBRANCH   7  10
BRANCH   8  16
HETATM   16  C   UNK N   1      29.734  17.338   7.144  0.00  0.00     0.099 C 
HETATM   17  C   UNK N   1      28.721  18.277   7.784  0.00  0.00     0.014 C 
ENDBRANCH   8  16
ENDBRANCH   2   7
BRANCH   1  18
HETATM   18  C   UNK N   1      35.869  15.229  11.691  0.00  0.00     0.308 C 
BRANCH  18  19
HETATM   19  C   UNK N   1      36.220  13.790  12.065  0.00  0.00     0.179 C 
BRANCH  19  20
HETATM   20  O   UNK N   1      37.567  13.547  11.774  0.00  0.00    -0.389 OA
HETATM   21  H   UNK N   1      38.245  13.611  12.465  0.00  0.00     0.210 HD
ENDBRANCH  19  20
BRANCH  19  22
HETATM   22  C   UNK N   1      35.922  13.527  13.514  0.00  0.00    -0.028 A 
HETATM   23  C   UNK N   1      34.931  12.595  13.853  0.00  0.00     0.010 A 
HETATM   24  C   UNK N   1      34.653  12.317  15.193  0.00  0.00     0.001 A 
HETATM   25  C   UNK N   1      35.368  12.964  16.204  0.00  0.00     0.000 A 
HETATM   26  C   UNK N   1      36.361  13.890  15.875  0.00  0.00     0.001 A 
HETATM   27  C   UNK N   1      36.639  14.171  14.535  0.00  0.00     0.010 A 
ENDBRANCH  19  22
ENDBRANCH  18  19
ENDBRANCH   1  18
TORSDOF 7
ENDMDL
MODEL 5
REMARK VINA RESULT:      -6.9     11.718     16.231
REMARK  7 active torsions:
REMARK  status: ('A' for Active; 'I' for Inactive)
REMARK    1  A    between atoms: O_1  and  C_11 
REMARK    2  A    between atoms: N_3  and  C_10 
REMARK    3  A    between atoms: N_4  and  C_5 
REMARK    4  A    between atoms: N_4  and  C_12 
REMARK       I    between atoms: N_4  and  C_13 
REMARK    5  A    between atoms: C_10  and  C_11 
REMARK    6  A    between atoms: C_11  and  C_14 
REMARK    7  A    between atoms: C_13  and  C_15 
ROOT
HETATM    1  N   UNK N   1      20.905  14.023   7.003  0.00  0.00     0.091 N 
HETATM    2  C   UNK N   1      22.330  16.127   5.594  0.00  0.00     0.096 C 
HETATM    3  C   UNK N   1      21.839  14.863   4.896  0.00  0.00     0.056 C 
HETATM    4  C   UNK N   1      21.319  16.458   6.694  0.00  0.00     0.056 C 
HETATM    5  C   UNK N   1      21.866  13.749   5.930  0.00  0.00     0.274 C 
HETATM    6  C   UNK N   1      21.245  15.283   7.675  0.00  0.00     0.274 C 
ENDROOT
BRANCH   2   7
HETATM    7  N   UNK N   1      22.770  17.169   4.635  0.00  0.00    -0.313 N 
HETATM    8  C   UNK N   1      24.144  17.387   4.576  0.00  0.00     0.224 C 
HETATM    9  O   UNK N   1      24.887  16.738   5.307  0.00  0.00    -0.273 OA
BRANCH   7  10
HETATM   10  C   UNK N   1      21.819  17.964   3.845  0.00  0.00     0.037 A 
HETATM   11  C   UNK N   1      21.454  19.274   4.221  0.00  0.00     0.030 A 
HETATM   12  C   UNK N   1      20.518  20.019   3.499  0.00  0.00     0.002 A 
HETATM   13  C   UNK N   1      19.913  19.468   2.373  0.00  0.00     0.000 A 
HETATM   14  C   UNK N   1      20.252  18.179   1.970  0.00  0.00     0.002 A 
HETATM   15  C   UNK N   1      21.192  17.443   2.698  0.00  0.00     0.030 A 
ENDBRANCH   7  10
BRANCH   8  16
HETATM   16  C   UNK N   1      24.793  18.393   3.654  0.00  0.00     0.099 C 
HETATM   17  C   UNK N   1      25.196  19.686   4.349  0.00  0.00     0.014 C 
ENDBRANCH   8  16
ENDBRANCH   2   7
BRANCH   1  18
HETATM   18  C   UNK N   1      21.030  12.982   8.022  0.00  0.00     0.308 C 
BRANCH  18  19
HETATM   19  C   UNK N   1      21.124  13.563   9.433  0.00  0.00     0.179 C 
BRANCH  19  20
HETATM   20  O   UNK N   1      19.925  13.329  10.115  0.00  0.00    -0.389 OA
HETATM   21  H   UNK N   1      19.082  13.659   9.768  0.00  0.00     0.210 HD
ENDBRANCH  19  20
BRANCH  19  22
HETATM   22  C   UNK N   1      22.294  12.980  10.172  0.00  0.00    -0.028 A 
HETATM   23  C   UNK N   1      23.581  13.107   9.632  0.00  0.00     0.010 A 
HETATM   24  C   UNK N   1      24.687  12.593  10.313  0.00  0.00     0.001 A 
HETATM   25  C   UNK N   1      24.514  11.955  11.545  0.00  0.00     0.000 A 
HETATM   26  C   UNK N   1      23.236  11.829  12.093  0.00  0.00     0.001 A 
HETATM   27  C   UNK N   1      22.128  12.340  11.412  0.00  0.00     0.010 A 
ENDBRANCH  19  22
ENDBRANCH  18  19
ENDBRANCH   1  18
TORSDOF 7
ENDMDL
MODEL 6
REMARK VINA RESULT:      -6.6      2.661      9.052
REMARK  7 active torsions:
REMARK  status: ('A' for Active; 'I' for Inactive)
REMARK    1  A    between atoms: O_1  and  C_11 
REMARK    2  A    between atoms: N_3  and  C_10 
REMARK    3  A    between atoms: N_4  and  C_5 
REMARK    4  A    between atoms: N_4  and  C_12 
REMARK       I    between atoms: N_4  and  C_13 
REMARK    5  A    between atoms: C_10  and  C_11 
REMARK    6  A    between atoms: C_11  and  C_14 
REMARK    7  A    between atoms: C_13  and  C_15 
ROOT
HETATM    1  N   UNK N   1      34.452  13.991  10.274  0.00  0.00     0.091 N 
HETATM    2  C   UNK N   1      33.660  15.655   8.028  0.00  0.00     0.096 C 
HETATM    3  C   UNK N   1      32.752  14.575   8.606  0.00  0.00     0.056 C 
HETATM    4  C   UNK N   1      34.474  16.230   9.189  0.00  0.00     0.056 C 
HETATM    5  C   UNK N   1      33.656  13.482   9.152  0.00  0.00     0.274 C 
HETATM    6  C   UNK N   1      35.296  15.107   9.829  0.00  0.00     0.274 C 
ENDROOT
BRANCH   2   7
HETATM    7  N   UNK N   1      32.946  16.553   7.089  0.00  0.00    -0.313 N 
HETATM    8  C   UNK N   1      33.632  16.863   5.917  0.00  0.00     0.224 C 
HETATM    9  O   UNK N   1      34.757  16.403   5.741  0.00  0.00    -0.273 OA
BRANCH   7  10
HETATM   10  C   UNK N   1      31.631  17.131   7.398  0.00  0.00     0.037 A 
HETATM   11  C   UNK N   1      31.442  18.012   8.484  0.00  0.00     0.030 A 
HETATM   12  C   UNK N   1      30.187  18.530   8.809  0.00  0.00     0.002 A 
HETATM   13  C   UNK N   1      29.073  18.176   8.054  0.00  0.00     0.000 A 
HETATM   14  C   UNK N   1      29.221  17.312   6.972  0.00  0.00     0.002 A 
HETATM   15  C   UNK N   1      30.484  16.800   6.653  0.00  0.00     0.030 A 
ENDBRANCH   7  10
BRANCH   8  16
HETATM   16  C   UNK N   1      33.072  17.747   4.828  0.00  0.00     0.099 C 
HETATM   17  C   UNK N   1      32.724  16.995   3.551  0.00  0.00     0.014 C 
ENDBRANCH   8  16
ENDBRANCH   2   7
BRANCH   1  18
HETATM   18  C   UNK N   1      35.375  12.942  10.706  0.00  0.00     0.308 C 
BRANCH  18  19
HETATM   19  C   UNK N   1      35.514  12.886  12.227  0.00  0.00     0.179 C 
BRANCH  19  20
HETATM   20  O   UNK N   1      34.510  13.662  12.817  0.00  0.00    -0.389 OA
HETATM   21  H   UNK N   1      34.616  14.014  13.715  0.00  0.00     0.210 HD
ENDBRANCH  19  20
BRANCH  19  22
HETATM   22  C   UNK N   1      35.462  11.467  12.716  0.00  0.00    -0.028 A 
HETATM   23  C   UNK N   1      36.345  10.522  12.175  0.00  0.00     0.010 A 
HETATM   24  C   UNK N   1      36.330   9.202  12.631  0.00  0.00     0.001 A 
HETATM   25  C   UNK N   1      35.437   8.818  13.635  0.00  0.00     0.000 A 
HETATM   26  C   UNK N   1      34.558   9.755  14.183  0.00  0.00     0.001 A 
HETATM   27  C   UNK N   1      34.569  11.076  13.727  0.00  0.00     0.010 A 
ENDBRANCH  19  22
ENDBRANCH  18  19
ENDBRANCH   1  18
TORSDOF 7
ENDMDL
MODEL 7
REMARK VINA RESULT:      -6.6      8.159     14.605
REMARK  7 active torsions:
REMARK  status: ('A' for Active; 'I' for Inactive)
REMARK    1  A    between atoms: O_1  and  C_11 
REMARK    2  A    between atoms: N_3  and  C_10 
REMARK    3  A    between atoms: N_4  and  C_5 
REMARK    4  A    between atoms: N_4  and  C_12 
REMARK       I    between atoms: N_4  and  C_13 
REMARK    5  A    between atoms: C_10  and  C_11 
REMARK    6  A    between atoms: C_11  and  C_14 
REMARK    7  A    between atoms: C_13  and  C_15 
ROOT
HETATM    1  N   UNK N   1      27.296  18.368   4.824  0.00  0.00     0.091 N 
HETATM    2  C   UNK N   1      24.613  19.095   3.976  0.00  0.00     0.096 C 
HETATM    3  C   UNK N   1      25.158  17.677   3.839  0.00  0.00     0.056 C 
HETATM    4  C   UNK N   1      25.233  19.697   5.239  0.00  0.00     0.056 C 
HETATM    5  C   UNK N   1      26.659  17.799   3.632  0.00  0.00     0.274 C 
HETATM    6  C   UNK N   1      26.758  19.707   5.092  0.00  0.00     0.274 C 
ENDROOT
BRANCH   2   7
HETATM    7  N   UNK N   1      23.150  19.164   3.747  0.00  0.00    -0.313 N 
HETATM    8  C   UNK N   1      22.704  20.292   3.062  0.00  0.00     0.224 C 
HETATM    9  O   UNK N   1      23.518  21.143   2.713  0.00  0.00    -0.273 OA
BRANCH   7  10
HETATM   10  C   UNK N   1      22.223  18.147   4.260  0.00  0.00     0.037 A 
HETATM   11  C   UNK N   1      21.635  17.182   3.416  0.00  0.00     0.030 A 
HETATM   12  C   UNK N   1      20.720  16.239   3.891  0.00  0.00     0.002 A 
HETATM   13  C   UNK N   1      20.360  16.238   5.235  0.00  0.00     0.000 A 
HETATM   14  C   UNK N   1      20.923  17.173   6.100  0.00  0.00     0.002 A 
HETATM   15  C   UNK N   1      21.841  18.111   5.615  0.00  0.00     0.030 A 
ENDBRANCH   7  10
BRANCH   8  16
HETATM   16  C   UNK N   1      21.255  20.543   2.716  0.00  0.00     0.099 C 
HETATM   17  C   UNK N   1      20.934  20.328   1.243  0.00  0.00     0.014 C 
ENDBRANCH   8  16
ENDBRANCH   2   7
BRANCH   1  18
HETATM   18  C   UNK N   1      28.719  18.558   4.550  0.00  0.00     0.308 C 
BRANCH  18  19
HETATM   19  C   UNK N   1      29.498  17.244   4.605  0.00  0.00     0.179 C 
BRANCH  19  20
HETATM   20  O   UNK N   1      30.063  16.982   3.351  0.00  0.00    -0.389 OA
HETATM   21  H   UNK N   1      30.421  17.701   2.808  0.00  0.00     0.210 HD
ENDBRANCH  19  20
BRANCH  19  22
HETATM   22  C   UNK N   1      30.551  17.293   5.675  0.00  0.00    -0.028 A 
HETATM   23  C   UNK N   1      30.161  17.323   7.021  0.00  0.00     0.010 A 
HETATM   24  C   UNK N   1      31.123  17.345   8.034  0.00  0.00     0.001 A 
HETATM   25  C   UNK N   1      32.482  17.330   7.708  0.00  0.00     0.000 A 
HETATM   26  C   UNK N   1      32.879  17.294   6.370  0.00  0.00     0.001 A 
HETATM   27  C   UNK N   1      31.919  17.275   5.355  0.00  0.00     0.010 A 
ENDBRANCH  19  22
ENDBRANCH  18  19
ENDBRANCH   1  18
TORSDOF 7
ENDMDL
MODEL 8
REMARK VINA RESULT:      -6.5      9.863     13.134
REMARK  7 active torsions:
REMARK  status: ('A' for Active; 'I' for Inactive)
REMARK    1  A    between atoms: O_1  and  C_11 
REMARK    2  A    between atoms: N_3  and  C_10 
REMARK    3  A    between atoms: N_4  and  C_5 
REMARK    4  A    between atoms: N_4  and  C_12 
REMARK       I    between atoms: N_4  and  C_13 
REMARK    5  A    between atoms: C_10  and  C_11 
REMARK    6  A    between atoms: C_11  and  C_14 
REMARK    7  A    between atoms: C_13  and  C_15 
ROOT
HETATM    1  N   UNK N   1      25.617  13.632   6.572  0.00  0.00     0.091 N 
HETATM    2  C   UNK N   1      26.520  16.062   5.260  0.00  0.00     0.096 C 
HETATM    3  C   UNK N   1      26.826  15.761   6.723  0.00  0.00     0.056 C 
HETATM    4  C   UNK N   1      26.499  14.725   4.518  0.00  0.00     0.056 C 
HETATM    5  C   UNK N   1      25.669  14.930   7.255  0.00  0.00     0.274 C 
HETATM    6  C   UNK N   1      25.418  13.828   5.131  0.00  0.00     0.274 C 
ENDROOT
BRANCH   2   7
HETATM    7  N   UNK N   1      27.311  17.203   4.739  0.00  0.00    -0.313 N 
HETATM    8  C   UNK N   1      26.597  18.381   4.529  0.00  0.00     0.224 C 
HETATM    9  O   UNK N   1      25.393  18.403   4.764  0.00  0.00    -0.273 OA
BRANCH   7  10
HETATM   10  C   UNK N   1      28.737  17.085   4.405  0.00  0.00     0.037 A 
HETATM   11  C   UNK N   1      29.747  17.455   5.318  0.00  0.00     0.030 A 
HETATM   12  C   UNK N   1      31.103  17.386   4.990  0.00  0.00     0.002 A 
HETATM   13  C   UNK N   1      31.491  16.945   3.728  0.00  0.00     0.000 A 
HETATM   14  C   UNK N   1      30.521  16.568   2.803  0.00  0.00     0.002 A 
HETATM   15  C   UNK N   1      29.166  16.638   3.141  0.00  0.00     0.030 A 
ENDBRANCH   7  10
BRANCH   8  16
HETATM   16  C   UNK N   1      27.222  19.658   4.017  0.00  0.00     0.099 C 
HETATM   17  C   UNK N   1      26.294  20.478   3.132  0.00  0.00     0.014 C 
ENDBRANCH   8  16
ENDBRANCH   2   7
BRANCH   1  18
HETATM   18  C   UNK N   1      24.438  12.905   7.041  0.00  0.00     0.308 C 
BRANCH  18  19
HETATM   19  C   UNK N   1      23.569  13.751   7.971  0.00  0.00     0.179 C 
BRANCH  19  20
HETATM   20  O   UNK N   1      22.312  13.947   7.386  0.00  0.00    -0.389 OA
HETATM   21  H   UNK N   1      21.602  13.297   7.504  0.00  0.00     0.210 HD
ENDBRANCH  19  20
BRANCH  19  22
HETATM   22  C   UNK N   1      23.445  13.104   9.320  0.00  0.00    -0.028 A 
HETATM   23  C   UNK N   1      22.170  12.878   9.859  0.00  0.00     0.010 A 
HETATM   24  C   UNK N   1      22.030  12.256  11.102  0.00  0.00     0.001 A 
HETATM   25  C   UNK N   1      23.163  11.849  11.812  0.00  0.00     0.000 A 
HETATM   26  C   UNK N   1      24.436  12.065  11.280  0.00  0.00     0.001 A 
HETATM   27  C   UNK N   1      24.579  12.689  10.038  0.00  0.00     0.010 A 
ENDBRANCH  19  22
ENDBRANCH  18  19
ENDBRANCH   1  18
TORSDOF 7
ENDMDL
MODEL 9
REMARK VINA RESULT:      -6.5      1.869      2.517
REMARK  7 active torsions:
REMARK  status: ('A' for Active; 'I' for Inactive)
REMARK    1  A    between atoms: O_1  and  C_11 
REMARK    2  A    between atoms: N_3  and  C_10 
REMARK    3  A    between atoms: N_4  and  C_5 
REMARK    4  A    between atoms: N_4  and  C_12 
REMARK       I    between atoms: N_4  and  C_13 
REMARK    5  A    between atoms: C_10  and  C_11 
REMARK    6  A    between atoms: C_11  and  C_14 
REMARK    7  A    between atoms: C_13  and  C_15 
ROOT
HETATM    1  N   UNK N   1      33.648  15.270   9.518  0.00  0.00     0.091 N 
HETATM    2  C   UNK N   1      35.337  13.290  10.812  0.00  0.00     0.096 C 
HETATM    3  C   UNK N   1      34.724  14.463  11.570  0.00  0.00     0.056 C 
HETATM    4  C   UNK N   1      34.343  12.889   9.720  0.00  0.00     0.056 C 
HETATM    5  C   UNK N   1      34.599  15.611  10.581  0.00  0.00     0.274 C 
HETATM    6  C   UNK N   1      34.112  14.083   8.789  0.00  0.00     0.274 C 
ENDROOT
BRANCH   2   7
HETATM    7  N   UNK N   1      35.916  12.270  11.718  0.00  0.00    -0.313 N 
HETATM    8  C   UNK N   1      37.051  11.619  11.241  0.00  0.00     0.224 C 
HETATM    9  O   UNK N   1      37.484  11.906  10.128  0.00  0.00    -0.273 OA
BRANCH   7  10
HETATM   10  C   UNK N   1      35.300  11.920  13.005  0.00  0.00     0.037 A 
HETATM   11  C   UNK N   1      34.300  10.931  13.107  0.00  0.00     0.030 A 
HETATM   12  C   UNK N   1      33.680  10.624  14.321  0.00  0.00     0.002 A 
HETATM   13  C   UNK N   1      34.043  11.307  15.477  0.00  0.00     0.000 A 
HETATM   14  C   UNK N   1      35.030  12.288  15.416  0.00  0.00     0.002 A 
HETATM   15  C   UNK N   1      35.646  12.586  14.196  0.00  0.00     0.030 A 
ENDBRANCH   7  10
BRANCH   8  16
HETATM   16  C   UNK N   1      37.798  10.560  12.017  0.00  0.00     0.099 C 
HETATM   17  C   UNK N   1      37.396   9.138  11.650  0.00  0.00     0.014 C 
ENDBRANCH   8  16
ENDBRANCH   2   7
BRANCH   1  18
HETATM   18  C   UNK N   1      33.629  16.356   8.540  0.00  0.00     0.308 C 
BRANCH  18  19
HETATM   19  C   UNK N   1      32.207  16.776   8.171  0.00  0.00     0.179 C 
BRANCH  19  20
HETATM   20  O   UNK N   1      31.830  17.881   8.944  0.00  0.00    -0.389 OA
HETATM   21  H   UNK N   1      32.232  18.751   8.797  0.00  0.00     0.210 HD
ENDBRANCH  19  20
BRANCH  19  22
HETATM   22  C   UNK N   1      32.104  17.081   6.704  0.00  0.00    -0.028 A 
HETATM   23  C   UNK N   1      33.272  17.350   5.975  0.00  0.00     0.010 A 
HETATM   24  C   UNK N   1      33.203  17.612   4.605  0.00  0.00     0.001 A 
HETATM   25  C   UNK N   1      31.968  17.600   3.951  0.00  0.00     0.000 A 
HETATM   26  C   UNK N   1      30.801  17.327   4.669  0.00  0.00     0.001 A 
HETATM   27  C   UNK N   1      30.866  17.067   6.040  0.00  0.00     0.010 A 
ENDBRANCH  19  22
ENDBRANCH  18  19
ENDBRANCH   1  18
TORSDOF 7
ENDMDL
