REMARK  7 active torsions:
REMARK  status: ('A' for Active; 'I' for Inactive)
REMARK    1  A    between atoms: O_1  and  C_11 
REMARK    2  A    between atoms: N_3  and  C_10 
REMARK    3  A    between atoms: N_4  and  C_5 
REMARK    4  A    between atoms: N_4  and  C_12 
REMARK       I    between atoms: N_4  and  C_13 
REMARK    5  A    between atoms: C_10  and  C_11 
REMARK    6  A    between atoms: C_11  and  C_14 
REMARK    7  A    between atoms: C_13  and  C_15 
ROOT
HETATM    1  N   UNK N   1       3.448  -0.725   0.151  0.00  0.00     0.091 N 
HETATM    2  C   UNK N   1       3.456   2.149  -0.276  0.00  0.00     0.096 C 
HETATM    3  C   UNK N   1       2.575   1.481   0.774  0.00  0.00     0.056 C 
HETATM    4  C   UNK N   1       4.747   1.333  -0.369  0.00  0.00     0.056 C 
HETATM    5  C   UNK N   1       2.236   0.095   0.250  0.00  0.00     0.274 C 
HETATM    6  C   UNK N   1       4.403  -0.104  -0.775  0.00  0.00     0.274 C 
ENDROOT
BRANCH   2   7
HETATM    7  N   UNK N   1       3.504   3.623  -0.121  0.00  0.00    -0.313 N 
HETATM    8  C   UNK N   1       2.272   4.271  -0.171  0.00  0.00     0.224 C 
HETATM    9  O   UNK N   1       1.253   3.610  -0.350  0.00  0.00    -0.273 OA
BRANCH   7  10
HETATM   10  C   UNK N   1       4.768   4.360   0.012  0.00  0.00     0.037 A 
HETATM   11  C   UNK N   1       4.802   5.767   0.104  0.00  0.00     0.030 A 
HETATM   12  C   UNK N   1       6.003   6.476   0.187  0.00  0.00     0.002 A 
HETATM   13  C   UNK N   1       7.215   5.792   0.176  0.00  0.00     0.000 A 
HETATM   14  C   UNK N   1       7.220   4.402   0.090  0.00  0.00     0.002 A 
HETATM   15  C   UNK N   1       6.012   3.701   0.010  0.00  0.00     0.030 A 
ENDBRANCH   7  10
BRANCH   8  16
HETATM   16  C   UNK N   1       2.105   5.765  -0.019  0.00  0.00     0.099 C 
HETATM   17  C   UNK N   1       0.655   6.225  -0.076  0.00  0.00     0.014 C 
ENDBRANCH   8  16
ENDBRANCH   2   7
BRANCH   1  18
HETATM   18  C   UNK N   1       3.095  -2.012  -0.446  0.00  0.00     0.308 C 
BRANCH  18  19
HETATM   19  C   UNK N   1       2.167  -2.830   0.452  0.00  0.00     0.179 C 
BRANCH  19  20
HETATM   20  O   UNK N   1       0.840  -2.448   0.224  0.00  0.00    -0.389 OA
HETATM   21  H   UNK N   1       0.610  -1.519   0.066  0.00  0.00     0.210 HD
ENDBRANCH  19  20
BRANCH  19  22
HETATM   22  C   UNK N   1       2.357  -4.301   0.216  0.00  0.00    -0.028 A 
HETATM   23  C   UNK N   1       3.614  -4.877   0.448  0.00  0.00     0.010 A 
HETATM   24  C   UNK N   1       3.808  -6.247   0.258  0.00  0.00     0.001 A 
HETATM   25  C   UNK N   1       2.745  -7.053  -0.159  0.00  0.00     0.000 A 
HETATM   26  C   UNK N   1       1.488  -6.488  -0.387  0.00  0.00     0.001 A 
HETATM   27  C   UNK N   1       1.292  -5.117  -0.200  0.00  0.00     0.010 A 
ENDBRANCH  19  22
ENDBRANCH  18  19
ENDBRANCH   1  18
TORSDOF 7
