MODEL 1
REMARK VINA RESULT:      -5.2      0.000      0.000
REMARK  3 active torsions:
REMARK  status: ('A' for Active; 'I' for Inactive)
REMARK    1  A    between atoms: N_3  and  C_4 
REMARK    2  A    between atoms: C_4  and  C_5 
REMARK    3  A    between atoms: C_5  and  C_6 
ROOT
HETATM    1  O   UNK N   1      33.351  17.898   8.681  0.00  0.00    -0.323 OA
HETATM    2  O   UNK N   1      34.581  17.994   6.842  0.00  0.00    -0.323 OA
HETATM    3  C   UNK N   1      30.647  17.002   6.356  0.00  0.00    -0.053 A 
HETATM    4  C   UNK N   1      31.239  17.272   7.605  0.00  0.00     0.047 A 
HETATM    5  C   UNK N   1      32.592  17.604   7.629  0.00  0.00     0.105 A 
HETATM    6  C   UNK N   1      31.437  17.077   5.178  0.00  0.00     0.010 A 
HETATM    7  C   UNK N   1      33.332  17.664   6.517  0.00  0.00     0.105 A 
HETATM    8  C   UNK N   1      32.804  17.409   5.256  0.00  0.00     0.040 A 
HETATM    9  C   UNK N   1      34.650  18.158   8.229  0.00  0.00     0.352 A 
ENDROOT
BRANCH   3  10
HETATM   10  C   UNK N   1      29.190  16.619   6.330  0.00  0.00     0.063 C 
BRANCH  10  11
HETATM   11  C   UNK N   1      28.170  17.646   6.831  0.00  0.00     0.076 C 
HETATM   12  C   UNK N   1      27.185  18.031   5.735  0.00  0.00     0.032 C 
BRANCH  11  13
HETATM   13  N   UNK N   1      27.444  17.045   7.943  0.00  0.00    -0.421 N 
HETATM   14  C   UNK N   1      27.978  17.572   9.189  0.00  0.00     0.140 C 
HETATM   15  H   UNK N   1      26.687  16.367   7.862  0.00  0.00     0.153 HD
ENDBRANCH  11  13
ENDBRANCH  10  11
ENDBRANCH   3  10
TORSDOF 3
ENDMDL
MODEL 2
REMARK VINA RESULT:      -5.1      6.139      8.931
REMARK  3 active torsions:
REMARK  status: ('A' for Active; 'I' for Inactive)
REMARK    1  A    between atoms: N_3  and  C_4 
REMARK    2  A    between atoms: C_4  and  C_5 
REMARK    3  A    between atoms: C_5  and  C_6 
ROOT
HETATM    1  O   UNK N   1      22.443  21.185   2.550  0.00  0.00    -0.323 OA
HETATM    2  O   UNK N   1      21.535  19.359   3.414  0.00  0.00    -0.323 OA
HETATM    3  C   UNK N   1      25.599  19.682   3.693  0.00  0.00    -0.053 A 
HETATM    4  C   UNK N   1      24.775  20.649   3.085  0.00  0.00     0.047 A 
HETATM    5  C   UNK N   1      23.402  20.418   3.062  0.00  0.00     0.105 A 
HETATM    6  C   UNK N   1      25.011  18.519   4.256  0.00  0.00     0.010 A 
HETATM    7  C   UNK N   1      22.855  19.316   3.586  0.00  0.00     0.105 A 
HETATM    8  C   UNK N   1      23.616  18.326   4.200  0.00  0.00     0.040 A 
HETATM    9  C   UNK N   1      21.214  20.547   2.750  0.00  0.00     0.352 A 
ENDROOT
BRANCH   3  10
HETATM   10  C   UNK N   1      27.087  19.920   3.697  0.00  0.00     0.063 C 
BRANCH  10  11
HETATM   11  C   UNK N   1      27.751  20.282   5.028  0.00  0.00     0.076 C 
HETATM   12  C   UNK N   1      26.854  21.180   5.871  0.00  0.00     0.032 C 
BRANCH  11  13
HETATM   13  N   UNK N   1      28.006  19.042   5.751  0.00  0.00    -0.421 N 
HETATM   14  C   UNK N   1      28.861  18.193   4.935  0.00  0.00     0.140 C 
HETATM   15  H   UNK N   1      27.645  18.807   6.674  0.00  0.00     0.153 HD
ENDBRANCH  11  13
ENDBRANCH  10  11
ENDBRANCH   3  10
TORSDOF 3
ENDMDL
MODEL 3
REMARK VINA RESULT:      -5.0     14.444     16.136
REMARK  3 active torsions:
REMARK  status: ('A' for Active; 'I' for Inactive)
REMARK    1  A    between atoms: N_3  and  C_4 
REMARK    2  A    between atoms: C_4  and  C_5 
REMARK    3  A    between atoms: C_5  and  C_6 
ROOT
HETATM    1  O   UNK N   1      25.336  24.597  -7.345  0.00  0.00    -0.323 OA
HETATM    2  O   UNK N   1      26.316  23.037  -6.115  0.00  0.00    -0.323 OA
HETATM    3  C   UNK N   1      25.870  26.712  -4.385  0.00  0.00    -0.053 A 
HETATM    4  C   UNK N   1      25.446  26.404  -5.691  0.00  0.00     0.047 A 
HETATM    5  C   UNK N   1      25.654  25.108  -6.159  0.00  0.00     0.105 A 
HETATM    6  C   UNK N   1      26.488  25.705  -3.595  0.00  0.00     0.010 A 
HETATM    7  C   UNK N   1      26.244  24.167  -5.414  0.00  0.00     0.105 A 
HETATM    8  C   UNK N   1      26.684  24.410  -4.117  0.00  0.00     0.040 A 
HETATM    9  C   UNK N   1      25.742  23.258  -7.372  0.00  0.00     0.352 A 
ENDROOT
BRANCH   3  10
HETATM   10  C   UNK N   1      25.668  28.120  -3.886  0.00  0.00     0.063 C 
BRANCH  10  11
HETATM   11  C   UNK N   1      26.909  28.994  -3.686  0.00  0.00     0.076 C 
HETATM   12  C   UNK N   1      26.664  30.423  -4.155  0.00  0.00     0.032 C 
BRANCH  11  13
HETATM   13  N   UNK N   1      27.223  29.001  -2.263  0.00  0.00    -0.421 N 
HETATM   14  C   UNK N   1      28.481  29.705  -2.066  0.00  0.00     0.140 C 
HETATM   15  H   UNK N   1      26.656  28.582  -1.526  0.00  0.00     0.153 HD
ENDBRANCH  11  13
ENDBRANCH  10  11
ENDBRANCH   3  10
TORSDOF 3
ENDMDL
MODEL 4
REMARK VINA RESULT:      -4.9      3.176      5.336
REMARK  3 active torsions:
REMARK  status: ('A' for Active; 'I' for Inactive)
REMARK    1  A    between atoms: N_3  and  C_4 
REMARK    2  A    between atoms: C_4  and  C_5 
REMARK    3  A    between atoms: C_5  and  C_6 
ROOT
HETATM    1  O   UNK N   1      29.491  16.968   7.012  0.00  0.00    -0.323 OA
HETATM    2  O   UNK N   1      29.966  17.007   4.849  0.00  0.00    -0.323 OA
HETATM    3  C   UNK N   1      33.108  17.499   7.415  0.00  0.00    -0.053 A 
HETATM    4  C   UNK N   1      31.776  17.316   7.832  0.00  0.00     0.047 A 
HETATM    5  C   UNK N   1      30.799  17.155   6.852  0.00  0.00     0.105 A 
HETATM    6  C   UNK N   1      33.409  17.510   6.027  0.00  0.00     0.010 A 
HETATM    7  C   UNK N   1      31.087  17.176   5.547  0.00  0.00     0.105 A 
HETATM    8  C   UNK N   1      32.383  17.351   5.073  0.00  0.00     0.040 A 
HETATM    9  C   UNK N   1      28.902  16.866   5.747  0.00  0.00     0.352 A 
ENDROOT
BRANCH   3  10
HETATM   10  C   UNK N   1      34.162  17.697   8.473  0.00  0.00     0.063 C 
BRANCH  10  11
HETATM   11  C   UNK N   1      34.376  16.574   9.491  0.00  0.00     0.076 C 
HETATM   12  C   UNK N   1      35.188  15.431   8.896  0.00  0.00     0.032 C 
BRANCH  11  13
HETATM   13  N   UNK N   1      35.094  17.136  10.628  0.00  0.00    -0.421 N 
HETATM   14  C   UNK N   1      35.654  16.045  11.411  0.00  0.00     0.140 C 
HETATM   15  H   UNK N   1      35.189  18.128  10.841  0.00  0.00     0.153 HD
ENDBRANCH  11  13
ENDBRANCH  10  11
ENDBRANCH   3  10
TORSDOF 3
ENDMDL
MODEL 5
REMARK VINA RESULT:      -4.9      1.921      2.689
REMARK  3 active torsions:
REMARK  status: ('A' for Active; 'I' for Inactive)
REMARK    1  A    between atoms: N_3  and  C_4 
REMARK    2  A    between atoms: C_4  and  C_5 
REMARK    3  A    between atoms: C_5  and  C_6 
ROOT
HETATM    1  O   UNK N   1      34.497  15.506  10.507  0.00  0.00    -0.323 OA
HETATM    2  O   UNK N   1      35.664  17.346  10.110  0.00  0.00    -0.323 OA
HETATM    3  C   UNK N   1      32.390  16.716   7.747  0.00  0.00    -0.053 A 
HETATM    4  C   UNK N   1      32.800  15.839   8.769  0.00  0.00     0.047 A 
HETATM    5  C   UNK N   1      33.934  16.175   9.504  0.00  0.00     0.105 A 
HETATM    6  C   UNK N   1      33.135  17.901   7.504  0.00  0.00     0.010 A 
HETATM    7  C   UNK N   1      34.636  17.288   9.265  0.00  0.00     0.105 A 
HETATM    8  C   UNK N   1      34.281  18.194   8.271  0.00  0.00     0.040 A 
HETATM    9  C   UNK N   1      35.622  16.219  10.937  0.00  0.00     0.352 A 
ENDROOT
BRANCH   3  10
HETATM   10  C   UNK N   1      31.178  16.342   6.934  0.00  0.00     0.063 C 
BRANCH  10  11
HETATM   11  C   UNK N   1      29.923  17.206   7.078  0.00  0.00     0.076 C 
HETATM   12  C   UNK N   1      28.738  16.592   6.344  0.00  0.00     0.032 C 
BRANCH  11  13
HETATM   13  N   UNK N   1      29.612  17.305   8.499  0.00  0.00    -0.421 N 
HETATM   14  C   UNK N   1      28.247  17.786   8.645  0.00  0.00     0.140 C 
HETATM   15  H   UNK N   1      30.245  17.075   9.264  0.00  0.00     0.153 HD
ENDBRANCH  11  13
ENDBRANCH  10  11
ENDBRANCH   3  10
TORSDOF 3
ENDMDL
MODEL 6
REMARK VINA RESULT:      -4.8      9.470     10.618
REMARK  3 active torsions:
REMARK  status: ('A' for Active; 'I' for Inactive)
REMARK    1  A    between atoms: N_3  and  C_4 
REMARK    2  A    between atoms: C_4  and  C_5 
REMARK    3  A    between atoms: C_5  and  C_6 
ROOT
HETATM    1  O   UNK N   1      22.170  12.048  12.366  0.00  0.00    -0.323 OA
HETATM    2  O   UNK N   1      24.380  11.955  12.245  0.00  0.00    -0.323 OA
HETATM    3  C   UNK N   1      22.379  12.475   8.720  0.00  0.00    -0.053 A 
HETATM    4  C   UNK N   1      21.745  12.351   9.971  0.00  0.00     0.047 A 
HETATM    5  C   UNK N   1      22.546  12.182  11.097  0.00  0.00     0.105 A 
HETATM    6  C   UNK N   1      23.797  12.426   8.648  0.00  0.00     0.010 A 
HETATM    7  C   UNK N   1      23.881  12.129  11.023  0.00  0.00     0.105 A 
HETATM    8  C   UNK N   1      24.565  12.245   9.817  0.00  0.00     0.040 A 
HETATM    9  C   UNK N   1      23.317  11.897  13.153  0.00  0.00     0.352 A 
ENDROOT
BRANCH   3  10
HETATM   10  C   UNK N   1      21.513  12.632   7.497  0.00  0.00     0.063 C 
BRANCH  10  11
HETATM   11  C   UNK N   1      20.748  13.948   7.326  0.00  0.00     0.076 C 
HETATM   12  C   UNK N   1      21.673  15.151   7.470  0.00  0.00     0.032 C 
BRANCH  11  13
HETATM   13  N   UNK N   1      20.160  13.950   5.993  0.00  0.00    -0.421 N 
HETATM   14  C   UNK N   1      19.683  15.292   5.695  0.00  0.00     0.140 C 
HETATM   15  H   UNK N   1      20.093  13.145   5.371  0.00  0.00     0.153 HD
ENDBRANCH  11  13
ENDBRANCH  10  11
ENDBRANCH   3  10
TORSDOF 3
ENDMDL
MODEL 7
REMARK VINA RESULT:      -4.8     10.957     12.279
REMARK  3 active torsions:
REMARK  status: ('A' for Active; 'I' for Inactive)
REMARK    1  A    between atoms: N_3  and  C_4 
REMARK    2  A    between atoms: C_4  and  C_5 
REMARK    3  A    between atoms: C_5  and  C_6 
ROOT
HETATM    1  O   UNK N   1      30.820  22.813  -1.794  0.00  0.00    -0.323 OA
HETATM    2  O   UNK N   1      29.286  22.500  -3.360  0.00  0.00    -0.323 OA
HETATM    3  C   UNK N   1      32.891  20.668  -3.946  0.00  0.00    -0.053 A 
HETATM    4  C   UNK N   1      32.592  21.470  -2.828  0.00  0.00     0.047 A 
HETATM    5  C   UNK N   1      31.320  22.033  -2.749  0.00  0.00     0.105 A 
HETATM    6  C   UNK N   1      31.900  20.460  -4.942  0.00  0.00     0.010 A 
HETATM    7  C   UNK N   1      30.394  21.841  -3.694  0.00  0.00     0.105 A 
HETATM    8  C   UNK N   1      30.630  21.059  -4.820  0.00  0.00     0.040 A 
HETATM    9  C   UNK N   1      29.505  23.146  -2.139  0.00  0.00     0.352 A 
ENDROOT
BRANCH   3  10
HETATM   10  C   UNK N   1      34.274  20.079  -4.046  0.00  0.00     0.063 C 
BRANCH  10  11
HETATM   11  C   UNK N   1      34.415  18.682  -4.658  0.00  0.00     0.076 C 
HETATM   12  C   UNK N   1      35.800  18.476  -5.259  0.00  0.00     0.032 C 
BRANCH  11  13
HETATM   13  N   UNK N   1      34.201  17.707  -3.596  0.00  0.00    -0.421 N 
HETATM   14  C   UNK N   1      34.935  16.494  -3.921  0.00  0.00     0.140 C 
HETATM   15  H   UNK N   1      33.631  17.851  -2.763  0.00  0.00     0.153 HD
ENDBRANCH  11  13
ENDBRANCH  10  11
ENDBRANCH   3  10
TORSDOF 3
ENDMDL
MODEL 8
REMARK VINA RESULT:      -4.8      3.280      5.666
REMARK  3 active torsions:
REMARK  status: ('A' for Active; 'I' for Inactive)
REMARK    1  A    between atoms: N_3  and  C_4 
REMARK    2  A    between atoms: C_4  and  C_5 
REMARK    3  A    between atoms: C_5  and  C_6 
ROOT
HETATM    1  O   UNK N   1      29.111  16.164   5.946  0.00  0.00    -0.323 OA
HETATM    2  O   UNK N   1      27.643  17.010   7.374  0.00  0.00    -0.323 OA
HETATM    3  C   UNK N   1      31.583  17.777   8.140  0.00  0.00    -0.053 A 
HETATM    4  C   UNK N   1      31.131  17.017   7.044  0.00  0.00     0.047 A 
HETATM    5  C   UNK N   1      29.758  16.835   6.896  0.00  0.00     0.105 A 
HETATM    6  C   UNK N   1      30.638  18.328   9.045  0.00  0.00     0.010 A 
HETATM    7  C   UNK N   1      28.873  17.348   7.757  0.00  0.00     0.105 A 
HETATM    8  C   UNK N   1      29.258  18.108   8.857  0.00  0.00     0.040 A 
HETATM    9  C   UNK N   1      27.738  16.244   6.207  0.00  0.00     0.352 A 
ENDROOT
BRANCH   3  10
HETATM   10  C   UNK N   1      33.069  17.955   8.315  0.00  0.00     0.063 C 
BRANCH  10  11
HETATM   11  C   UNK N   1      33.859  16.805   8.946  0.00  0.00     0.076 C 
HETATM   12  C   UNK N   1      34.702  16.074   7.909  0.00  0.00     0.032 C 
BRANCH  11  13
HETATM   13  N   UNK N   1      34.732  17.372   9.966  0.00  0.00    -0.421 N 
HETATM   14  C   UNK N   1      35.204  16.297  10.826  0.00  0.00     0.140 C 
HETATM   15  H   UNK N   1      34.974  18.357  10.061  0.00  0.00     0.153 HD
ENDBRANCH  11  13
ENDBRANCH  10  11
ENDBRANCH   3  10
TORSDOF 3
ENDMDL
MODEL 9
REMARK VINA RESULT:      -4.7     11.891     13.180
REMARK  3 active torsions:
REMARK  status: ('A' for Active; 'I' for Inactive)
REMARK    1  A    between atoms: N_3  and  C_4 
REMARK    2  A    between atoms: C_4  and  C_5 
REMARK    3  A    between atoms: C_5  and  C_6 
ROOT
HETATM    1  O   UNK N   1      31.133  22.883  -4.369  0.00  0.00    -0.323 OA
HETATM    2  O   UNK N   1      31.093  22.429  -2.201  0.00  0.00    -0.323 OA
HETATM    3  C   UNK N   1      27.655  23.940  -3.812  0.00  0.00    -0.053 A 
HETATM    4  C   UNK N   1      28.831  23.707  -4.551  0.00  0.00     0.047 A 
HETATM    5  C   UNK N   1      29.933  23.183  -3.879  0.00  0.00     0.105 A 
HETATM    6  C   UNK N   1      27.631  23.637  -2.425  0.00  0.00     0.010 A 
HETATM    7  C   UNK N   1      29.906  22.907  -2.571  0.00  0.00     0.105 A 
HETATM    8  C   UNK N   1      28.775  23.115  -1.788  0.00  0.00     0.040 A 
HETATM    9  C   UNK N   1      31.925  22.391  -3.325  0.00  0.00     0.352 A 
ENDROOT
BRANCH   3  10
HETATM   10  C   UNK N   1      26.470  24.530  -4.532  0.00  0.00     0.063 C 
BRANCH  10  11
HETATM   11  C   UNK N   1      26.424  26.050  -4.711  0.00  0.00     0.076 C 
HETATM   12  C   UNK N   1      25.283  26.467  -5.630  0.00  0.00     0.032 C 
BRANCH  11  13
HETATM   13  N   UNK N   1      26.227  26.647  -3.396  0.00  0.00    -0.421 N 
HETATM   14  C   UNK N   1      25.889  28.051  -3.567  0.00  0.00     0.140 C 
HETATM   15  H   UNK N   1      26.312  26.161  -2.504  0.00  0.00     0.153 HD
ENDBRANCH  11  13
ENDBRANCH  10  11
ENDBRANCH   3  10
TORSDOF 3
ENDMDL
