REMARK  7 active torsions:
REMARK  status: ('A' for Active; 'I' for Inactive)
REMARK    1  A    between atoms: N_3  and  C_12 
REMARK    2  A    between atoms: N_4  and  C_7 
REMARK       I    between atoms: N_5  and  C_22 
REMARK    3  A    between atoms: C_12  and  C_13 
REMARK    4  A    between atoms: C_13  and  C_15 
REMARK    5  A    between atoms: C_15  and  C_18 
REMARK    6  A    between atoms: C_15  and  C_19 
REMARK    7  A    between atoms: C_22  and  C_30 
ROOT
HETATM    1  N   UNK N   1       5.049   4.243   2.336  0.00  0.00    -0.196 NA
HETATM    2  C   UNK N   1       6.515   3.984   0.147  0.00  0.00     0.104 C 
HETATM    3  C   UNK N   1       5.709   4.113   1.394  0.00  0.00     0.079 C 
ENDROOT
BRANCH   2   4
HETATM    4  C   UNK N   1       5.614   3.392  -0.989  0.00  0.00     0.065 C 
BRANCH   4   5
HETATM    5  C   UNK N   1       4.599   2.423  -0.353  0.00  0.00     0.275 C 
BRANCH   5   6
HETATM    6  N   UNK N   1       4.099   1.281  -1.087  0.00  0.00     0.088 N 
HETATM    7  C   UNK N   1       5.142   0.250  -0.970  0.00  0.00     0.274 C 
HETATM    8  C   UNK N   1       4.596  -1.167  -1.082  0.00  0.00     0.056 C 
HETATM    9  C   UNK N   1       3.588  -1.379   0.037  0.00  0.00     0.098 C 
HETATM   10  C   UNK N   1       2.438  -0.440  -0.264  0.00  0.00     0.056 C 
HETATM   11  C   UNK N   1       2.934   0.993  -0.232  0.00  0.00     0.274 C 
BRANCH   9  12
HETATM   12  N   UNK N   1       3.179  -2.788   0.087  0.00  0.00    -0.292 N 
HETATM   13  C   UNK N   1       1.949  -3.355   0.041  0.00  0.00     0.066 A 
HETATM   14  C   UNK N   1       2.079  -4.723   0.054  0.00  0.00     0.074 A 
HETATM   15  C   UNK N   1       0.698  -2.738  -0.021  0.00  0.00     0.032 A 
HETATM   16  N   UNK N   1       3.393  -5.049   0.113  0.00  0.00    -0.231 N 
HETATM   17  C   UNK N   1       0.966  -5.564  -0.009  0.00  0.00     0.032 A 
HETATM   18  C   UNK N   1       4.041  -3.843   0.160  0.00  0.00     0.337 A 
HETATM   19  C   UNK N   1       3.969  -6.304   0.095  0.00  0.00     0.232 C 
HETATM   20  O   UNK N   1       5.253  -3.716   0.228  0.00  0.00    -0.246 OA
HETATM   21  O   UNK N   1       3.263  -7.300   0.018  0.00  0.00    -0.273 OA
HETATM   22  C   UNK N   1      -0.307  -4.966  -0.072  0.00  0.00     0.002 A 
HETATM   23  C   UNK N   1      -0.440  -3.560  -0.074  0.00  0.00     0.002 A 
BRANCH  19  24
HETATM   24  C   UNK N   1       5.472  -6.450   0.129  0.00  0.00     0.099 C 
HETATM   25  C   UNK N   1       5.952  -7.883  -0.017  0.00  0.00     0.014 C 
ENDBRANCH  19  24
ENDBRANCH   9  12
ENDBRANCH   5   6
ENDBRANCH   4   5
ENDBRANCH   2   4
BRANCH   2  26
HETATM   26  C   UNK N   1       7.686   2.987   0.336  0.00  0.00    -0.031 A 
HETATM   27  C   UNK N   1       9.035   3.367   0.221  0.00  0.00     0.009 A 
HETATM   28  C   UNK N   1      10.065   2.428   0.289  0.00  0.00     0.001 A 
HETATM   29  C   UNK N   1       9.764   1.076   0.449  0.00  0.00     0.000 A 
HETATM   30  C   UNK N   1       8.435   0.675   0.575  0.00  0.00     0.001 A 
HETATM   31  C   UNK N   1       7.409   1.623   0.530  0.00  0.00     0.009 A 
ENDBRANCH   2  26
BRANCH   2  32
HETATM   32  C   UNK N   1       6.890   5.451  -0.167  0.00  0.00    -0.031 A 
HETATM   33  C   UNK N   1       5.868   6.387  -0.441  0.00  0.00     0.009 A 
HETATM   34  C   UNK N   1       6.166   7.744  -0.622  0.00  0.00     0.001 A 
HETATM   35  C   UNK N   1       7.484   8.194  -0.516  0.00  0.00     0.000 A 
HETATM   36  C   UNK N   1       8.507   7.288  -0.247  0.00  0.00     0.001 A 
HETATM   37  C   UNK N   1       8.208   5.937  -0.075  0.00  0.00     0.009 A 
ENDBRANCH   2  32
TORSDOF 7
