MODEL 1
REMARK VINA RESULT:      -9.3      0.000      0.000
REMARK  7 active torsions:
REMARK  status: ('A' for Active; 'I' for Inactive)
REMARK    1  A    between atoms: N_3  and  C_12 
REMARK    2  A    between atoms: N_4  and  C_7 
REMARK       I    between atoms: N_5  and  C_22 
REMARK    3  A    between atoms: C_12  and  C_13 
REMARK    4  A    between atoms: C_13  and  C_15 
REMARK    5  A    between atoms: C_15  and  C_18 
REMARK    6  A    between atoms: C_15  and  C_19 
REMARK    7  A    between atoms: C_22  and  C_30 
ROOT
HETATM    1  N   UNK N   1      27.798  17.505   9.430  0.00  0.00    -0.196 NA
HETATM    2  C   UNK N   1      28.910  17.510   7.028  0.00  0.00     0.104 C 
HETATM    3  C   UNK N   1      28.311  17.508   8.392  0.00  0.00     0.079 C 
ENDROOT
BRANCH   2   4
HETATM    4  C   UNK N   1      28.433  16.234   6.255  0.00  0.00     0.065 C 
BRANCH   4   5
HETATM    5  C   UNK N   1      27.010  15.881   6.726  0.00  0.00     0.275 C 
BRANCH   5   6
HETATM    6  N   UNK N   1      26.082  15.201   5.848  0.00  0.00     0.088 N 
HETATM    7  C   UNK N   1      24.767  15.316   6.500  0.00  0.00     0.274 C 
HETATM    8  C   UNK N   1      23.607  15.268   5.516  0.00  0.00     0.056 C 
HETATM    9  C   UNK N   1      23.759  16.427   4.543  0.00  0.00     0.098 C 
HETATM   10  C   UNK N   1      25.018  16.136   3.752  0.00  0.00     0.056 C 
HETATM   11  C   UNK N   1      26.209  16.105   4.691  0.00  0.00     0.274 C 
BRANCH   9  12
HETATM   12  N   UNK N   1      22.564  16.536   3.697  0.00  0.00    -0.292 N 
HETATM   13  C   UNK N   1      21.728  17.580   3.477  0.00  0.00     0.066 A 
HETATM   14  C   UNK N   1      20.784  17.216   2.547  0.00  0.00     0.074 A 
HETATM   15  C   UNK N   1      21.746  18.856   4.044  0.00  0.00     0.032 A 
HETATM   16  N   UNK N   1      21.001  15.934   2.164  0.00  0.00    -0.231 N 
HETATM   17  C   UNK N   1      19.803  18.110   2.112  0.00  0.00     0.032 A 
HETATM   18  C   UNK N   1      22.081  15.536   2.906  0.00  0.00     0.337 A 
HETATM   19  C   UNK N   1      20.321  15.193   1.217  0.00  0.00     0.232 C 
HETATM   20  O   UNK N   1      22.581  14.424   2.849  0.00  0.00    -0.246 OA
HETATM   21  O   UNK N   1      19.388  15.693   0.604  0.00  0.00    -0.273 OA
HETATM   22  C   UNK N   1      19.800  19.403   2.669  0.00  0.00     0.002 A 
HETATM   23  C   UNK N   1      20.764  19.772   3.632  0.00  0.00     0.002 A 
BRANCH  19  24
HETATM   24  C   UNK N   1      20.752  13.779   0.907  0.00  0.00     0.099 C 
HETATM   25  C   UNK N   1      19.631  12.897   0.388  0.00  0.00     0.014 C 
ENDBRANCH  19  24
ENDBRANCH   9  12
ENDBRANCH   5   6
ENDBRANCH   4   5
ENDBRANCH   2   4
BRANCH   2  26
HETATM   26  C   UNK N   1      30.456  17.424   7.093  0.00  0.00    -0.031 A 
HETATM   27  C   UNK N   1      31.190  17.781   8.238  0.00  0.00     0.009 A 
HETATM   28  C   UNK N   1      32.585  17.797   8.234  0.00  0.00     0.001 A 
HETATM   29  C   UNK N   1      33.281  17.480   7.068  0.00  0.00     0.000 A 
HETATM   30  C   UNK N   1      32.577  17.114   5.922  0.00  0.00     0.001 A 
HETATM   31  C   UNK N   1      31.180  17.076   5.940  0.00  0.00     0.009 A 
ENDBRANCH   2  26
BRANCH   2  32
HETATM   32  C   UNK N   1      28.307  18.785   6.394  0.00  0.00    -0.031 A 
HETATM   33  C   UNK N   1      28.226  18.892   4.988  0.00  0.00     0.009 A 
HETATM   34  C   UNK N   1      27.587  19.984   4.386  0.00  0.00     0.001 A 
HETATM   35  C   UNK N   1      27.005  20.979   5.174  0.00  0.00     0.000 A 
HETATM   36  C   UNK N   1      27.074  20.893   6.562  0.00  0.00     0.001 A 
HETATM   37  C   UNK N   1      27.716  19.809   7.158  0.00  0.00     0.009 A 
ENDBRANCH   2  32
TORSDOF 7
ENDMDL
MODEL 2
REMARK VINA RESULT:      -9.3      3.703      7.184
REMARK  7 active torsions:
REMARK  status: ('A' for Active; 'I' for Inactive)
REMARK    1  A    between atoms: N_3  and  C_12 
REMARK    2  A    between atoms: N_4  and  C_7 
REMARK       I    between atoms: N_5  and  C_22 
REMARK    3  A    between atoms: C_12  and  C_13 
REMARK    4  A    between atoms: C_13  and  C_15 
REMARK    5  A    between atoms: C_15  and  C_18 
REMARK    6  A    between atoms: C_15  and  C_19 
REMARK    7  A    between atoms: C_22  and  C_30 
ROOT
HETATM    1  N   UNK N   1      23.383  10.032   6.970  0.00  0.00    -0.196 NA
HETATM    2  C   UNK N   1      23.295  12.321   8.296  0.00  0.00     0.104 C 
HETATM    3  C   UNK N   1      23.338  11.018   7.575  0.00  0.00     0.079 C 
ENDROOT
BRANCH   2   4
HETATM    4  C   UNK N   1      24.662  13.061   8.105  0.00  0.00     0.065 C 
BRANCH   4   5
HETATM    5  C   UNK N   1      25.251  12.654   6.740  0.00  0.00     0.275 C 
BRANCH   5   6
HETATM    6  N   UNK N   1      25.712  13.653   5.801  0.00  0.00     0.088 N 
HETATM    7  C   UNK N   1      24.636  13.786   4.807  0.00  0.00     0.274 C 
HETATM    8  C   UNK N   1      24.600  15.157   4.146  0.00  0.00     0.056 C 
HETATM    9  C   UNK N   1      24.380  16.202   5.229  0.00  0.00     0.098 C 
HETATM   10  C   UNK N   1      25.623  16.164   6.094  0.00  0.00     0.056 C 
HETATM   11  C   UNK N   1      25.753  14.794   6.732  0.00  0.00     0.274 C 
BRANCH   9  12
HETATM   12  N   UNK N   1      24.145  17.518   4.621  0.00  0.00    -0.292 N 
HETATM   13  C   UNK N   1      25.017  18.462   4.191  0.00  0.00     0.066 A 
HETATM   14  C   UNK N   1      24.317  19.504   3.631  0.00  0.00     0.074 A 
HETATM   15  C   UNK N   1      26.412  18.465   4.253  0.00  0.00     0.032 A 
HETATM   16  N   UNK N   1      22.989  19.242   3.699  0.00  0.00    -0.231 N 
HETATM   17  C   UNK N   1      24.968  20.611   3.082  0.00  0.00     0.032 A 
HETATM   18  C   UNK N   1      22.914  18.031   4.335  0.00  0.00     0.337 A 
HETATM   19  C   UNK N   1      21.938  19.994   3.212  0.00  0.00     0.232 C 
HETATM   20  O   UNK N   1      21.870  17.454   4.594  0.00  0.00    -0.246 OA
HETATM   21  O   UNK N   1      22.157  21.048   2.633  0.00  0.00    -0.273 OA
HETATM   22  C   UNK N   1      26.374  20.638   3.132  0.00  0.00     0.002 A 
HETATM   23  C   UNK N   1      27.092  19.572   3.718  0.00  0.00     0.002 A 
BRANCH  19  24
HETATM   24  C   UNK N   1      20.519  19.498   3.358  0.00  0.00     0.099 C 
HETATM   25  C   UNK N   1      19.966  18.846   2.103  0.00  0.00     0.014 C 
ENDBRANCH  19  24
ENDBRANCH   9  12
ENDBRANCH   5   6
ENDBRANCH   4   5
ENDBRANCH   2   4
BRANCH   2  26
HETATM   26  C   UNK N   1      23.124  12.113   9.822  0.00  0.00    -0.031 A 
HETATM   27  C   UNK N   1      21.867  12.098  10.452  0.00  0.00     0.009 A 
HETATM   28  C   UNK N   1      21.749  12.017  11.840  0.00  0.00     0.001 A 
HETATM   29  C   UNK N   1      22.894  11.974  12.635  0.00  0.00     0.000 A 
HETATM   30  C   UNK N   1      24.151  11.978  12.034  0.00  0.00     0.001 A 
HETATM   31  C   UNK N   1      24.263  12.035  10.642  0.00  0.00     0.009 A 
ENDBRANCH   2  26
BRANCH   2  32
HETATM   32  C   UNK N   1      22.162  13.077   7.563  0.00  0.00    -0.031 A 
HETATM   33  C   UNK N   1      22.089  14.484   7.659  0.00  0.00     0.009 A 
HETATM   34  C   UNK N   1      21.142  15.206   6.920  0.00  0.00     0.001 A 
HETATM   35  C   UNK N   1      20.264  14.541   6.062  0.00  0.00     0.000 A 
HETATM   36  C   UNK N   1      20.319  13.153   5.953  0.00  0.00     0.001 A 
HETATM   37  C   UNK N   1      21.257  12.437   6.695  0.00  0.00     0.009 A 
ENDBRANCH   2  32
TORSDOF 7
ENDMDL
MODEL 3
REMARK VINA RESULT:      -9.1      8.071     14.013
REMARK  7 active torsions:
REMARK  status: ('A' for Active; 'I' for Inactive)
REMARK    1  A    between atoms: N_3  and  C_12 
REMARK    2  A    between atoms: N_4  and  C_7 
REMARK       I    between atoms: N_5  and  C_22 
REMARK    3  A    between atoms: C_12  and  C_13 
REMARK    4  A    between atoms: C_13  and  C_15 
REMARK    5  A    between atoms: C_15  and  C_18 
REMARK    6  A    between atoms: C_15  and  C_19 
REMARK    7  A    between atoms: C_22  and  C_30 
ROOT
HETATM    1  N   UNK N   1      34.116  18.730   7.932  0.00  0.00    -0.196 NA
HETATM    2  C   UNK N   1      32.399  16.825   7.275  0.00  0.00     0.104 C 
HETATM    3  C   UNK N   1      33.373  17.901   7.617  0.00  0.00     0.079 C 
ENDROOT
BRANCH   2   4
HETATM    4  C   UNK N   1      32.759  15.531   8.080  0.00  0.00     0.065 C 
BRANCH   4   5
HETATM    5  C   UNK N   1      33.672  15.924   9.256  0.00  0.00     0.275 C 
BRANCH   5   6
HETATM    6  N   UNK N   1      34.812  15.110   9.619  0.00  0.00     0.088 N 
HETATM    7  C   UNK N   1      35.246  15.605  10.935  0.00  0.00     0.274 C 
HETATM    8  C   UNK N   1      35.956  14.545  11.766  0.00  0.00     0.056 C 
HETATM    9  C   UNK N   1      34.994  13.388  11.986  0.00  0.00     0.098 C 
HETATM   10  C   UNK N   1      34.757  12.786  10.616  0.00  0.00     0.056 C 
HETATM   11  C   UNK N   1      34.108  13.819   9.715  0.00  0.00     0.274 C 
BRANCH   9  12
HETATM   12  N   UNK N   1      35.565  12.431  12.941  0.00  0.00    -0.292 N 
HETATM   13  C   UNK N   1      36.430  11.405  12.756  0.00  0.00     0.066 A 
HETATM   14  C   UNK N   1      36.725  10.834  13.971  0.00  0.00     0.074 A 
HETATM   15  C   UNK N   1      36.994  10.933  11.569  0.00  0.00     0.032 A 
HETATM   16  N   UNK N   1      36.049  11.485  14.949  0.00  0.00    -0.231 N 
HETATM   17  C   UNK N   1      37.615   9.764  14.080  0.00  0.00     0.032 A 
HETATM   18  C   UNK N   1      35.326  12.440  14.284  0.00  0.00     0.337 A 
HETATM   19  C   UNK N   1      36.093  11.272  16.312  0.00  0.00     0.232 C 
HETATM   20  O   UNK N   1      34.574  13.234  14.827  0.00  0.00    -0.246 OA
HETATM   21  O   UNK N   1      36.813  10.397  16.772  0.00  0.00    -0.273 OA
HETATM   22  C   UNK N   1      38.197   9.270  12.897  0.00  0.00     0.002 A 
HETATM   23  C   UNK N   1      37.885   9.850  11.647  0.00  0.00     0.002 A 
BRANCH  19  24
HETATM   24  C   UNK N   1      35.284  12.144  17.243  0.00  0.00     0.099 C 
HETATM   25  C   UNK N   1      35.303  11.680  18.689  0.00  0.00     0.014 C 
ENDBRANCH  19  24
ENDBRANCH   9  12
ENDBRANCH   5   6
ENDBRANCH   4   5
ENDBRANCH   2   4
BRANCH   2  26
HETATM   26  C   UNK N   1      32.486  16.443   5.776  0.00  0.00    -0.031 A 
HETATM   27  C   UNK N   1      32.464  15.111   5.328  0.00  0.00     0.009 A 
HETATM   28  C   UNK N   1      32.653  14.791   3.983  0.00  0.00     0.001 A 
HETATM   29  C   UNK N   1      32.896  15.803   3.055  0.00  0.00     0.000 A 
HETATM   30  C   UNK N   1      32.913  17.133   3.473  0.00  0.00     0.001 A 
HETATM   31  C   UNK N   1      32.699  17.449   4.817  0.00  0.00     0.009 A 
ENDBRANCH   2  26
BRANCH   2  32
HETATM   32  C   UNK N   1      31.057  17.415   7.769  0.00  0.00    -0.031 A 
HETATM   33  C   UNK N   1      29.857  17.056   7.116  0.00  0.00     0.009 A 
HETATM   34  C   UNK N   1      28.616  17.486   7.605  0.00  0.00     0.001 A 
HETATM   35  C   UNK N   1      28.549  18.266   8.762  0.00  0.00     0.000 A 
HETATM   36  C   UNK N   1      29.720  18.632   9.420  0.00  0.00     0.001 A 
HETATM   37  C   UNK N   1      30.954  18.209   8.927  0.00  0.00     0.009 A 
ENDBRANCH   2  32
TORSDOF 7
ENDMDL
MODEL 4
REMARK VINA RESULT:      -8.7      1.890      3.927
REMARK  7 active torsions:
REMARK  status: ('A' for Active; 'I' for Inactive)
REMARK    1  A    between atoms: N_3  and  C_12 
REMARK    2  A    between atoms: N_4  and  C_7 
REMARK       I    between atoms: N_5  and  C_22 
REMARK    3  A    between atoms: C_12  and  C_13 
REMARK    4  A    between atoms: C_13  and  C_15 
REMARK    5  A    between atoms: C_15  and  C_18 
REMARK    6  A    between atoms: C_15  and  C_19 
REMARK    7  A    between atoms: C_22  and  C_30 
ROOT
HETATM    1  N   UNK N   1      30.226  16.246   3.093  0.00  0.00    -0.196 NA
HETATM    2  C   UNK N   1      29.670  17.000   5.568  0.00  0.00     0.104 C 
HETATM    3  C   UNK N   1      29.969  16.600   4.164  0.00  0.00     0.079 C 
ENDROOT
BRANCH   2   4
HETATM    4  C   UNK N   1      28.897  15.839   6.281  0.00  0.00     0.065 C 
BRANCH   4   5
HETATM    5  C   UNK N   1      28.295  14.918   5.203  0.00  0.00     0.275 C 
BRANCH   5   6
HETATM    6  N   UNK N   1      26.866  14.718   5.107  0.00  0.00     0.088 N 
HETATM    7  C   UNK N   1      26.273  15.630   6.098  0.00  0.00     0.274 C 
HETATM    8  C   UNK N   1      24.857  16.060   5.742  0.00  0.00     0.056 C 
HETATM    9  C   UNK N   1      24.899  16.776   4.400  0.00  0.00     0.098 C 
HETATM   10  C   UNK N   1      25.307  15.725   3.388  0.00  0.00     0.056 C 
HETATM   11  C   UNK N   1      26.691  15.206   3.728  0.00  0.00     0.274 C 
BRANCH   9  12
HETATM   12  N   UNK N   1      23.592  17.376   4.107  0.00  0.00    -0.292 N 
HETATM   13  C   UNK N   1      23.267  18.609   3.649  0.00  0.00     0.066 A 
HETATM   14  C   UNK N   1      21.907  18.682   3.468  0.00  0.00     0.074 A 
HETATM   15  C   UNK N   1      24.103  19.691   3.367  0.00  0.00     0.032 A 
HETATM   16  N   UNK N   1      21.343  17.499   3.812  0.00  0.00    -0.231 N 
HETATM   17  C   UNK N   1      21.295  19.839   2.979  0.00  0.00     0.032 A 
HETATM   18  C   UNK N   1      22.397  16.728   4.226  0.00  0.00     0.337 A 
HETATM   19  C   UNK N   1      20.016  17.124   3.737  0.00  0.00     0.232 C 
HETATM   20  O   UNK N   1      22.294  15.580   4.627  0.00  0.00    -0.246 OA
HETATM   21  O   UNK N   1      19.181  17.912   3.315  0.00  0.00    -0.273 OA
HETATM   22  C   UNK N   1      22.117  20.944   2.687  0.00  0.00     0.002 A 
HETATM   23  C   UNK N   1      23.513  20.871   2.884  0.00  0.00     0.002 A 
BRANCH  19  24
HETATM   24  C   UNK N   1      19.597  15.729   4.136  0.00  0.00     0.099 C 
HETATM   25  C   UNK N   1      18.639  15.690   5.313  0.00  0.00     0.014 C 
ENDBRANCH  19  24
ENDBRANCH   9  12
ENDBRANCH   5   6
ENDBRANCH   4   5
ENDBRANCH   2   4
BRANCH   2  26
HETATM   26  C   UNK N   1      28.734  18.235   5.613  0.00  0.00    -0.031 A 
HETATM   27  C   UNK N   1      28.436  19.005   4.475  0.00  0.00     0.009 A 
HETATM   28  C   UNK N   1      27.679  20.173   4.563  0.00  0.00     0.001 A 
HETATM   29  C   UNK N   1      27.222  20.613   5.805  0.00  0.00     0.000 A 
HETATM   30  C   UNK N   1      27.496  19.863   6.947  0.00  0.00     0.001 A 
HETATM   31  C   UNK N   1      28.235  18.680   6.848  0.00  0.00     0.009 A 
ENDBRANCH   2  26
BRANCH   2  32
HETATM   32  C   UNK N   1      31.080  17.169   6.180  0.00  0.00    -0.031 A 
HETATM   33  C   UNK N   1      32.197  17.300   5.326  0.00  0.00     0.009 A 
HETATM   34  C   UNK N   1      33.472  17.563   5.846  0.00  0.00     0.001 A 
HETATM   35  C   UNK N   1      33.651  17.717   7.222  0.00  0.00     0.000 A 
HETATM   36  C   UNK N   1      32.563  17.592   8.082  0.00  0.00     0.001 A 
HETATM   37  C   UNK N   1      31.297  17.322   7.563  0.00  0.00     0.009 A 
ENDBRANCH   2  32
TORSDOF 7
ENDMDL
MODEL 5
REMARK VINA RESULT:      -8.6      4.106      7.801
REMARK  7 active torsions:
REMARK  status: ('A' for Active; 'I' for Inactive)
REMARK    1  A    between atoms: N_3  and  C_12 
REMARK    2  A    between atoms: N_4  and  C_7 
REMARK       I    between atoms: N_5  and  C_22 
REMARK    3  A    between atoms: C_12  and  C_13 
REMARK    4  A    between atoms: C_13  and  C_15 
REMARK    5  A    between atoms: C_15  and  C_18 
REMARK    6  A    between atoms: C_15  and  C_19 
REMARK    7  A    between atoms: C_22  and  C_30 
ROOT
HETATM    1  N   UNK N   1      24.602  13.889   6.785  0.00  0.00    -0.196 NA
HETATM    2  C   UNK N   1      22.972  12.040   7.750  0.00  0.00     0.104 C 
HETATM    3  C   UNK N   1      23.901  13.085   7.234  0.00  0.00     0.079 C 
ENDROOT
BRANCH   2   4
HETATM    4  C   UNK N   1      21.501  12.434   7.386  0.00  0.00     0.065 C 
BRANCH   4   5
HETATM    5  C   UNK N   1      21.208  13.828   7.974  0.00  0.00     0.275 C 
BRANCH   5   6
HETATM    6  N   UNK N   1      20.686  14.892   7.145  0.00  0.00     0.088 N 
HETATM    7  C   UNK N   1      21.267  16.132   7.683  0.00  0.00     0.274 C 
HETATM    8  C   UNK N   1      21.391  17.235   6.641  0.00  0.00     0.056 C 
HETATM    9  C   UNK N   1      22.291  16.733   5.522  0.00  0.00     0.098 C 
HETATM   10  C   UNK N   1      21.537  15.594   4.868  0.00  0.00     0.056 C 
HETATM   11  C   UNK N   1      21.322  14.484   5.880  0.00  0.00     0.274 C 
BRANCH   9  12
HETATM   12  N   UNK N   1      22.596  17.827   4.591  0.00  0.00    -0.292 N 
HETATM   13  C   UNK N   1      21.780  18.591   3.826  0.00  0.00     0.066 A 
HETATM   14  C   UNK N   1      22.529  19.536   3.167  0.00  0.00     0.074 A 
HETATM   15  C   UNK N   1      20.394  18.517   3.672  0.00  0.00     0.032 A 
HETATM   16  N   UNK N   1      23.834  19.386   3.498  0.00  0.00    -0.231 N 
HETATM   17  C   UNK N   1      21.939  20.479   2.322  0.00  0.00     0.032 A 
HETATM   18  C   UNK N   1      23.847  18.314   4.351  0.00  0.00     0.337 A 
HETATM   19  C   UNK N   1      24.915  20.151   3.105  0.00  0.00     0.232 C 
HETATM   20  O   UNK N   1      24.856  17.857   4.866  0.00  0.00    -0.246 OA
HETATM   21  O   UNK N   1      24.748  21.106   2.359  0.00  0.00    -0.273 OA
HETATM   22  C   UNK N   1      20.542  20.424   2.151  0.00  0.00     0.002 A 
HETATM   23  C   UNK N   1      19.775  19.446   2.819  0.00  0.00     0.002 A 
BRANCH  19  24
HETATM   24  C   UNK N   1      26.297  19.837   3.626  0.00  0.00     0.099 C 
HETATM   25  C   UNK N   1      26.718  20.696   4.804  0.00  0.00     0.014 C 
ENDBRANCH  19  24
ENDBRANCH   9  12
ENDBRANCH   5   6
ENDBRANCH   4   5
ENDBRANCH   2   4
BRANCH   2  26
HETATM   26  C   UNK N   1      23.028  11.953   9.296  0.00  0.00    -0.031 A 
HETATM   27  C   UNK N   1      21.875  11.866  10.095  0.00  0.00     0.009 A 
HETATM   28  C   UNK N   1      21.950  11.897  11.488  0.00  0.00     0.001 A 
HETATM   29  C   UNK N   1      23.187  12.043  12.115  0.00  0.00     0.000 A 
HETATM   30  C   UNK N   1      24.346  12.122  11.345  0.00  0.00     0.001 A 
HETATM   31  C   UNK N   1      24.267  12.066   9.950  0.00  0.00     0.009 A 
ENDBRANCH   2  26
BRANCH   2  32
HETATM   32  C   UNK N   1      23.407  10.782   6.962  0.00  0.00    -0.031 A 
HETATM   33  C   UNK N   1      23.732   9.600   7.664  0.00  0.00     0.009 A 
HETATM   34  C   UNK N   1      24.025   8.414   6.977  0.00  0.00     0.001 A 
HETATM   35  C   UNK N   1      23.981   8.381   5.582  0.00  0.00     0.000 A 
HETATM   36  C   UNK N   1      23.663   9.536   4.870  0.00  0.00     0.001 A 
HETATM   37  C   UNK N   1      23.380  10.716   5.556  0.00  0.00     0.009 A 
ENDBRANCH   2  32
TORSDOF 7
ENDMDL
MODEL 6
REMARK VINA RESULT:      -8.5      9.478     14.649
REMARK  7 active torsions:
REMARK  status: ('A' for Active; 'I' for Inactive)
REMARK    1  A    between atoms: N_3  and  C_12 
REMARK    2  A    between atoms: N_4  and  C_7 
REMARK       I    between atoms: N_5  and  C_22 
REMARK    3  A    between atoms: C_12  and  C_13 
REMARK    4  A    between atoms: C_13  and  C_15 
REMARK    5  A    between atoms: C_15  and  C_18 
REMARK    6  A    between atoms: C_15  and  C_19 
REMARK    7  A    between atoms: C_22  and  C_30 
ROOT
HETATM    1  N   UNK N   1      33.607  11.071  14.704  0.00  0.00    -0.196 NA
HETATM    2  C   UNK N   1      36.028  10.893  15.761  0.00  0.00     0.104 C 
HETATM    3  C   UNK N   1      34.665  10.963  15.163  0.00  0.00     0.079 C 
ENDROOT
BRANCH   2   4
HETATM    4  C   UNK N   1      37.004  11.787  14.924  0.00  0.00     0.065 C 
BRANCH   4   5
HETATM    5  C   UNK N   1      36.413  11.968  13.513  0.00  0.00     0.275 C 
BRANCH   5   6
HETATM    6  N   UNK N   1      36.539  13.225  12.808  0.00  0.00     0.088 N 
HETATM    7  C   UNK N   1      37.401  12.942  11.649  0.00  0.00     0.274 C 
HETATM    8  C   UNK N   1      37.149  13.879  10.475  0.00  0.00     0.056 C 
HETATM    9  C   UNK N   1      35.699  13.722  10.042  0.00  0.00     0.098 C 
HETATM   10  C   UNK N   1      34.868  14.234  11.200  0.00  0.00     0.056 C 
HETATM   11  C   UNK N   1      35.125  13.378  12.425  0.00  0.00     0.274 C 
BRANCH   9  12
HETATM   12  N   UNK N   1      35.463  14.460   8.796  0.00  0.00    -0.292 N 
HETATM   13  C   UNK N   1      35.659  14.101   7.504  0.00  0.00     0.066 A 
HETATM   14  C   UNK N   1      35.223  15.112   6.681  0.00  0.00     0.074 A 
HETATM   15  C   UNK N   1      36.197  12.919   6.991  0.00  0.00     0.032 A 
HETATM   16  N   UNK N   1      34.748  16.132   7.436  0.00  0.00    -0.231 N 
HETATM   17  C   UNK N   1      35.285  15.001   5.290  0.00  0.00     0.032 A 
HETATM   18  C   UNK N   1      34.933  15.715   8.727  0.00  0.00     0.337 A 
HETATM   19  C   UNK N   1      34.171  17.315   7.017  0.00  0.00     0.232 C 
HETATM   20  O   UNK N   1      34.632  16.372   9.711  0.00  0.00    -0.246 OA
HETATM   21  O   UNK N   1      34.040  17.543   5.822  0.00  0.00    -0.273 OA
HETATM   22  C   UNK N   1      35.824  13.819   4.748  0.00  0.00     0.002 A 
HETATM   23  C   UNK N   1      36.281  12.785   5.595  0.00  0.00     0.002 A 
BRANCH  19  24
HETATM   24  C   UNK N   1      33.664  18.313   8.031  0.00  0.00     0.099 C 
HETATM   25  C   UNK N   1      32.176  18.199   8.313  0.00  0.00     0.014 C 
ENDBRANCH  19  24
ENDBRANCH   9  12
ENDBRANCH   5   6
ENDBRANCH   4   5
ENDBRANCH   2   4
BRANCH   2  26
HETATM   26  C   UNK N   1      36.596   9.452  15.695  0.00  0.00    -0.031 A 
HETATM   27  C   UNK N   1      37.965   9.181  15.520  0.00  0.00     0.009 A 
HETATM   28  C   UNK N   1      38.434   7.877  15.357  0.00  0.00     0.001 A 
HETATM   29  C   UNK N   1      37.535   6.812  15.338  0.00  0.00     0.000 A 
HETATM   30  C   UNK N   1      36.174   7.053  15.519  0.00  0.00     0.001 A 
HETATM   31  C   UNK N   1      35.713   8.359  15.706  0.00  0.00     0.009 A 
ENDBRANCH   2  26
BRANCH   2  32
HETATM   32  C   UNK N   1      35.812  11.495  17.168  0.00  0.00    -0.031 A 
HETATM   33  C   UNK N   1      35.432  12.850  17.294  0.00  0.00     0.009 A 
HETATM   34  C   UNK N   1      35.124  13.396  18.547  0.00  0.00     0.001 A 
HETATM   35  C   UNK N   1      35.171  12.598  19.692  0.00  0.00     0.000 A 
HETATM   36  C   UNK N   1      35.543  11.260  19.591  0.00  0.00     0.001 A 
HETATM   37  C   UNK N   1      35.857  10.721  18.344  0.00  0.00     0.009 A 
ENDBRANCH   2  32
TORSDOF 7
ENDMDL
MODEL 7
REMARK VINA RESULT:      -8.4      8.926     13.585
REMARK  7 active torsions:
REMARK  status: ('A' for Active; 'I' for Inactive)
REMARK    1  A    between atoms: N_3  and  C_12 
REMARK    2  A    between atoms: N_4  and  C_7 
REMARK       I    between atoms: N_5  and  C_22 
REMARK    3  A    between atoms: C_12  and  C_13 
REMARK    4  A    between atoms: C_13  and  C_15 
REMARK    5  A    between atoms: C_15  and  C_18 
REMARK    6  A    between atoms: C_15  and  C_19 
REMARK    7  A    between atoms: C_22  and  C_30 
ROOT
HETATM    1  N   UNK N   1      33.390  10.946  14.436  0.00  0.00    -0.196 NA
HETATM    2  C   UNK N   1      35.824  11.091  15.469  0.00  0.00     0.104 C 
HETATM    3  C   UNK N   1      34.457  10.980  14.885  0.00  0.00     0.079 C 
ENDROOT
BRANCH   2   4
HETATM    4  C   UNK N   1      36.672  12.086  14.608  0.00  0.00     0.065 C 
BRANCH   4   5
HETATM    5  C   UNK N   1      36.247  11.943  13.134  0.00  0.00     0.275 C 
BRANCH   5   6
HETATM    6  N   UNK N   1      36.383  13.047  12.208  0.00  0.00     0.088 N 
HETATM    7  C   UNK N   1      36.559  12.431  10.884  0.00  0.00     0.274 C 
HETATM    8  C   UNK N   1      36.086  13.321   9.743  0.00  0.00     0.056 C 
HETATM    9  C   UNK N   1      34.605  13.606   9.945  0.00  0.00     0.098 C 
HETATM   10  C   UNK N   1      34.514  14.430  11.212  0.00  0.00     0.056 C 
HETATM   11  C   UNK N   1      35.036  13.616  12.382  0.00  0.00     0.274 C 
BRANCH   9  12
HETATM   12  N   UNK N   1      34.061  14.299   8.771  0.00  0.00    -0.292 N 
HETATM   13  C   UNK N   1      34.102  15.606   8.417  0.00  0.00     0.066 A 
HETATM   14  C   UNK N   1      33.505  15.763   7.189  0.00  0.00     0.074 A 
HETATM   15  C   UNK N   1      34.646  16.689   9.111  0.00  0.00     0.032 A 
HETATM   16  N   UNK N   1      33.071  14.559   6.743  0.00  0.00    -0.231 N 
HETATM   17  C   UNK N   1      33.427  17.011   6.568  0.00  0.00     0.032 A 
HETATM   18  C   UNK N   1      33.401  13.686   7.746  0.00  0.00     0.337 A 
HETATM   19  C   UNK N   1      32.465  14.256   5.540  0.00  0.00     0.232 C 
HETATM   20  O   UNK N   1      33.163  12.489   7.721  0.00  0.00    -0.246 OA
HETATM   21  O   UNK N   1      32.259  15.139   4.719  0.00  0.00    -0.273 OA
HETATM   22  C   UNK N   1      33.969  18.119   7.248  0.00  0.00     0.002 A 
HETATM   23  C   UNK N   1      34.571  17.959   8.515  0.00  0.00     0.002 A 
BRANCH  19  24
HETATM   24  C   UNK N   1      32.091  12.828   5.217  0.00  0.00     0.099 C 
HETATM   25  C   UNK N   1      30.668  12.667   4.712  0.00  0.00     0.014 C 
ENDBRANCH  19  24
ENDBRANCH   9  12
ENDBRANCH   5   6
ENDBRANCH   4   5
ENDBRANCH   2   4
BRANCH   2  26
HETATM   26  C   UNK N   1      36.567   9.732  15.419  0.00  0.00    -0.031 A 
HETATM   27  C   UNK N   1      37.969   9.633  15.386  0.00  0.00     0.009 A 
HETATM   28  C   UNK N   1      38.609   8.402  15.233  0.00  0.00     0.001 A 
HETATM   29  C   UNK N   1      37.854   7.240  15.083  0.00  0.00     0.000 A 
HETATM   30  C   UNK N   1      36.463   7.310  15.122  0.00  0.00     0.001 A 
HETATM   31  C   UNK N   1      35.828   8.543  15.299  0.00  0.00     0.009 A 
ENDBRANCH   2  26
BRANCH   2  32
HETATM   32  C   UNK N   1      35.546  11.685  16.869  0.00  0.00    -0.031 A 
HETATM   33  C   UNK N   1      35.666  10.861  18.011  0.00  0.00     0.009 A 
HETATM   34  C   UNK N   1      35.528  11.394  19.299  0.00  0.00     0.001 A 
HETATM   35  C   UNK N   1      35.286  12.759  19.472  0.00  0.00     0.000 A 
HETATM   36  C   UNK N   1      35.163  13.589  18.361  0.00  0.00     0.001 A 
HETATM   37  C   UNK N   1      35.293  13.054  17.080  0.00  0.00     0.009 A 
ENDBRANCH   2  32
TORSDOF 7
ENDMDL
MODEL 8
REMARK VINA RESULT:      -8.4      8.335     13.038
REMARK  7 active torsions:
REMARK  status: ('A' for Active; 'I' for Inactive)
REMARK    1  A    between atoms: N_3  and  C_12 
REMARK    2  A    between atoms: N_4  and  C_7 
REMARK       I    between atoms: N_5  and  C_22 
REMARK    3  A    between atoms: C_12  and  C_13 
REMARK    4  A    between atoms: C_13  and  C_15 
REMARK    5  A    between atoms: C_15  and  C_18 
REMARK    6  A    between atoms: C_15  and  C_19 
REMARK    7  A    between atoms: C_22  and  C_30 
ROOT
HETATM    1  N   UNK N   1      33.379  10.903  14.371  0.00  0.00    -0.196 NA
HETATM    2  C   UNK N   1      35.872  11.468  15.059  0.00  0.00     0.104 C 
HETATM    3  C   UNK N   1      34.476  11.122  14.668  0.00  0.00     0.079 C 
ENDROOT
BRANCH   2   4
HETATM    4  C   UNK N   1      36.395  12.619  14.135  0.00  0.00     0.065 C 
BRANCH   4   5
HETATM    5  C   UNK N   1      35.262  13.029  13.175  0.00  0.00     0.275 C 
BRANCH   5   6
HETATM    6  N   UNK N   1      35.544  13.404  11.807  0.00  0.00     0.088 N 
HETATM    7  C   UNK N   1      34.596  12.636  10.984  0.00  0.00     0.274 C 
HETATM    8  C   UNK N   1      34.269  13.315   9.660  0.00  0.00     0.056 C 
HETATM    9  C   UNK N   1      33.651  14.671   9.960  0.00  0.00     0.098 C 
HETATM   10  C   UNK N   1      34.749  15.487  10.612  0.00  0.00     0.056 C 
HETATM   11  C   UNK N   1      35.167  14.824  11.911  0.00  0.00     0.274 C 
BRANCH   9  12
HETATM   12  N   UNK N   1      33.144  15.279   8.724  0.00  0.00    -0.292 N 
HETATM   13  C   UNK N   1      33.681  15.336   7.480  0.00  0.00     0.066 A 
HETATM   14  C   UNK N   1      32.796  15.957   6.632  0.00  0.00     0.074 A 
HETATM   15  C   UNK N   1      34.915  14.862   7.033  0.00  0.00     0.032 A 
HETATM   16  N   UNK N   1      31.684  16.309   7.322  0.00  0.00    -0.231 N 
HETATM   17  C   UNK N   1      33.082  16.132   5.277  0.00  0.00     0.032 A 
HETATM   18  C   UNK N   1      31.938  15.906   8.606  0.00  0.00     0.337 A 
HETATM   19  C   UNK N   1      30.533  16.908   6.849  0.00  0.00     0.232 C 
HETATM   20  O   UNK N   1      31.167  16.057   9.540  0.00  0.00    -0.246 OA
HETATM   21  O   UNK N   1      30.431  17.187   5.662  0.00  0.00    -0.273 OA
HETATM   22  C   UNK N   1      34.322  15.663   4.801  0.00  0.00     0.002 A 
HETATM   23  C   UNK N   1      35.235  15.034   5.676  0.00  0.00     0.002 A 
BRANCH  19  24
HETATM   24  C   UNK N   1      29.380  17.182   7.786  0.00  0.00     0.099 C 
HETATM   25  C   UNK N   1      28.708  18.524   7.554  0.00  0.00     0.014 C 
ENDBRANCH  19  24
ENDBRANCH   9  12
ENDBRANCH   5   6
ENDBRANCH   4   5
ENDBRANCH   2   4
BRANCH   2  26
HETATM   26  C   UNK N   1      36.829  10.269  14.845  0.00  0.00    -0.031 A 
HETATM   27  C   UNK N   1      36.409   8.931  14.954  0.00  0.00     0.009 A 
HETATM   28  C   UNK N   1      37.315   7.873  14.862  0.00  0.00     0.001 A 
HETATM   29  C   UNK N   1      38.673   8.134  14.683  0.00  0.00     0.000 A 
HETATM   30  C   UNK N   1      39.113   9.451  14.563  0.00  0.00     0.001 A 
HETATM   31  C   UNK N   1      38.198  10.505  14.632  0.00  0.00     0.009 A 
ENDBRANCH   2  26
BRANCH   2  32
HETATM   32  C   UNK N   1      35.700  11.974  16.511  0.00  0.00    -0.031 A 
HETATM   33  C   UNK N   1      35.470  13.348  16.746  0.00  0.00     0.009 A 
HETATM   34  C   UNK N   1      35.203  13.821  18.037  0.00  0.00     0.001 A 
HETATM   35  C   UNK N   1      35.144  12.932  19.113  0.00  0.00     0.000 A 
HETATM   36  C   UNK N   1      35.368  11.573  18.903  0.00  0.00     0.001 A 
HETATM   37  C   UNK N   1      35.641  11.107  17.618  0.00  0.00     0.009 A 
ENDBRANCH   2  32
TORSDOF 7
ENDMDL
MODEL 9
REMARK VINA RESULT:      -8.3      3.400      6.016
REMARK  7 active torsions:
REMARK  status: ('A' for Active; 'I' for Inactive)
REMARK    1  A    between atoms: N_3  and  C_12 
REMARK    2  A    between atoms: N_4  and  C_7 
REMARK       I    between atoms: N_5  and  C_22 
REMARK    3  A    between atoms: C_12  and  C_13 
REMARK    4  A    between atoms: C_13  and  C_15 
REMARK    5  A    between atoms: C_15  and  C_18 
REMARK    6  A    between atoms: C_15  and  C_19 
REMARK    7  A    between atoms: C_22  and  C_30 
ROOT
HETATM    1  N   UNK N   1      30.733  16.491   3.011  0.00  0.00    -0.196 NA
HETATM    2  C   UNK N   1      30.074  17.019   5.520  0.00  0.00     0.104 C 
HETATM    3  C   UNK N   1      30.431  16.746   4.099  0.00  0.00     0.079 C 
ENDROOT
BRANCH   2   4
HETATM    4  C   UNK N   1      29.316  15.780   6.107  0.00  0.00     0.065 C 
BRANCH   4   5
HETATM    5  C   UNK N   1      28.741  14.959   4.937  0.00  0.00     0.275 C 
BRANCH   5   6
HETATM    6  N   UNK N   1      27.315  14.753   4.801  0.00  0.00     0.088 N 
HETATM    7  C   UNK N   1      27.058  13.408   5.339  0.00  0.00     0.274 C 
HETATM    8  C   UNK N   1      25.646  13.243   5.883  0.00  0.00     0.056 C 
HETATM    9  C   UNK N   1      25.446  14.251   7.004  0.00  0.00     0.098 C 
HETATM   10  C   UNK N   1      25.506  15.614   6.346  0.00  0.00     0.056 C 
HETATM   11  C   UNK N   1      26.875  15.814   5.724  0.00  0.00     0.274 C 
BRANCH   9  12
HETATM   12  N   UNK N   1      24.171  14.000   7.687  0.00  0.00    -0.292 N 
HETATM   13  C   UNK N   1      23.901  13.365   8.853  0.00  0.00     0.066 A 
HETATM   14  C   UNK N   1      22.553  13.443   9.110  0.00  0.00     0.074 A 
HETATM   15  C   UNK N   1      24.778  12.718   9.726  0.00  0.00     0.032 A 
HETATM   16  N   UNK N   1      21.943  14.124   8.110  0.00  0.00    -0.231 N 
HETATM   17  C   UNK N   1      21.996  12.891  10.266  0.00  0.00     0.032 A 
HETATM   18  C   UNK N   1      22.955  14.428   7.239  0.00  0.00     0.337 A 
HETATM   19  C   UNK N   1      20.612  14.472   7.995  0.00  0.00     0.232 C 
HETATM   20  O   UNK N   1      22.802  15.040   6.194  0.00  0.00    -0.246 OA
HETATM   21  O   UNK N   1      19.819  14.158   8.872  0.00  0.00    -0.273 OA
HETATM   22  C   UNK N   1      22.860  12.232  11.162  0.00  0.00     0.002 A 
HETATM   23  C   UNK N   1      24.243  12.144  10.891  0.00  0.00     0.002 A 
BRANCH  19  24
HETATM   24  C   UNK N   1      20.138  15.276   6.807  0.00  0.00     0.099 C 
HETATM   25  C   UNK N   1      19.614  14.427   5.662  0.00  0.00     0.014 C 
ENDBRANCH  19  24
ENDBRANCH   9  12
ENDBRANCH   5   6
ENDBRANCH   4   5
ENDBRANCH   2   4
BRANCH   2  26
HETATM   26  C   UNK N   1      29.099  18.218   5.634  0.00  0.00    -0.031 A 
HETATM   27  C   UNK N   1      28.634  18.706   6.868  0.00  0.00     0.009 A 
HETATM   28  C   UNK N   1      27.673  19.716   6.937  0.00  0.00     0.001 A 
HETATM   29  C   UNK N   1      27.136  20.245   5.764  0.00  0.00     0.000 A 
HETATM   30  C   UNK N   1      27.587  19.785   4.529  0.00  0.00     0.001 A 
HETATM   31  C   UNK N   1      28.567  18.790   4.466  0.00  0.00     0.009 A 
ENDBRANCH   2  26
BRANCH   2  32
HETATM   32  C   UNK N   1      31.457  17.177   6.193  0.00  0.00    -0.031 A 
HETATM   33  C   UNK N   1      31.574  17.014   7.591  0.00  0.00     0.009 A 
HETATM   34  C   UNK N   1      32.828  17.043   8.216  0.00  0.00     0.001 A 
HETATM   35  C   UNK N   1      33.987  17.217   7.457  0.00  0.00     0.000 A 
HETATM   36  C   UNK N   1      33.895  17.380   6.076  0.00  0.00     0.001 A 
HETATM   37  C   UNK N   1      32.645  17.358   5.459  0.00  0.00     0.009 A 
ENDBRANCH   2  32
TORSDOF 7
ENDMDL
