MODEL 1
REMARK VINA RESULT:      -5.5      0.000      0.000
REMARK  5 active torsions:
REMARK  status: ('A' for Active; 'I' for Inactive)
REMARK    1  A    between atoms: N_1  and  C_3 
REMARK    2  A    between atoms: N_1  and  C_7 
REMARK    3  A    between atoms: N_1  and  C_8 
REMARK    4  A    between atoms: C_3  and  C_4 
REMARK    5  A    between atoms: C_4  and  C_5 
ROOT
HETATM    1  N   UNK N   1      27.815  18.945   8.438  0.00  0.00    -0.365 N 
HETATM    2  C   UNK N   1      28.871  17.552   7.025  0.00  0.00    -0.029 A 
HETATM    3  C   UNK N   1      28.361  18.597   6.300  0.00  0.00    -0.002 A 
HETATM    4  C   UNK N   1      27.729  19.422   7.184  0.00  0.00     0.042 A 
HETATM    5  C   UNK N   1      28.521  17.786   8.354  0.00  0.00     0.096 A 
HETATM    6  C   UNK N   1      28.412  18.871   4.936  0.00  0.00     0.014 A 
HETATM    7  C   UNK N   1      27.100  20.594   6.769  0.00  0.00     0.030 A 
HETATM    8  C   UNK N   1      27.784  20.045   4.483  0.00  0.00     0.001 A 
HETATM    9  C   UNK N   1      27.131  20.904   5.396  0.00  0.00     0.002 A 
HETATM   10  H   UNK N   1      27.442  19.353   9.253  0.00  0.00     0.165 HD
ENDROOT
BRANCH   2  11
HETATM   11  C   UNK N   1      29.673  16.425   6.455  0.00  0.00     0.071 C 
BRANCH  11  12
HETATM   12  C   UNK N   1      31.035  16.229   7.114  0.00  0.00     0.277 C 
BRANCH  12  13
HETATM   13  N   UNK N   1      31.879  17.402   6.891  0.00  0.00     0.088 N 
BRANCH  13  14
HETATM   14  C   UNK N   1      32.957  17.034   5.976  0.00  0.00     0.268 C 
HETATM   15  C   UNK N   1      32.638  17.537   4.580  0.00  0.00     0.037 C 
ENDBRANCH  13  14
BRANCH  13  16
HETATM   16  C   UNK N   1      32.480  17.746   8.173  0.00  0.00     0.268 C 
HETATM   17  C   UNK N   1      33.872  18.329   7.979  0.00  0.00     0.037 C 
ENDBRANCH  13  16
ENDBRANCH  12  13
ENDBRANCH  11  12
ENDBRANCH   2  11
TORSDOF 5
ENDMDL
MODEL 2
REMARK VINA RESULT:      -5.4      8.562     10.999
REMARK  5 active torsions:
REMARK  status: ('A' for Active; 'I' for Inactive)
REMARK    1  A    between atoms: N_1  and  C_3 
REMARK    2  A    between atoms: N_1  and  C_7 
REMARK    3  A    between atoms: N_1  and  C_8 
REMARK    4  A    between atoms: C_3  and  C_4 
REMARK    5  A    between atoms: C_4  and  C_5 
ROOT
HETATM    1  N   UNK N   1      21.071  12.078  11.583  0.00  0.00    -0.365 N 
HETATM    2  C   UNK N   1      21.001  13.444   9.799  0.00  0.00    -0.029 A 
HETATM    3  C   UNK N   1      22.307  13.105  10.031  0.00  0.00    -0.002 A 
HETATM    4  C   UNK N   1      22.317  12.277  11.116  0.00  0.00     0.042 A 
HETATM    5  C   UNK N   1      20.245  12.795  10.775  0.00  0.00     0.096 A 
HETATM    6  C   UNK N   1      23.476  13.466   9.365  0.00  0.00     0.014 A 
HETATM    7  C   UNK N   1      23.501  11.741  11.617  0.00  0.00     0.030 A 
HETATM    8  C   UNK N   1      24.690  12.946   9.848  0.00  0.00     0.001 A 
HETATM    9  C   UNK N   1      24.702  12.085  10.969  0.00  0.00     0.002 A 
HETATM   10  H   UNK N   1      20.810  11.523  12.354  0.00  0.00     0.165 HD
ENDROOT
BRANCH   2  11
HETATM   11  C   UNK N   1      20.528  14.314   8.678  0.00  0.00     0.071 C 
BRANCH  11  12
HETATM   12  C   UNK N   1      20.759  15.806   8.903  0.00  0.00     0.277 C 
BRANCH  12  13
HETATM   13  N   UNK N   1      19.891  16.589   8.025  0.00  0.00     0.088 N 
BRANCH  13  14
HETATM   14  C   UNK N   1      20.724  17.302   7.060  0.00  0.00     0.268 C 
HETATM   15  C   UNK N   1      20.682  16.590   5.721  0.00  0.00     0.037 C 
ENDBRANCH  13  14
BRANCH  13  16
HETATM   16  C   UNK N   1      19.224  17.582   8.859  0.00  0.00     0.268 C 
HETATM   17  C   UNK N   1      17.868  17.073   9.325  0.00  0.00     0.037 C 
ENDBRANCH  13  16
ENDBRANCH  12  13
ENDBRANCH  11  12
ENDBRANCH   2  11
TORSDOF 5
ENDMDL
MODEL 3
REMARK VINA RESULT:      -5.2     11.698     13.356
REMARK  5 active torsions:
REMARK  status: ('A' for Active; 'I' for Inactive)
REMARK    1  A    between atoms: N_1  and  C_3 
REMARK    2  A    between atoms: N_1  and  C_7 
REMARK    3  A    between atoms: N_1  and  C_8 
REMARK    4  A    between atoms: C_3  and  C_4 
REMARK    5  A    between atoms: C_4  and  C_5 
ROOT
HETATM    1  N   UNK N   1      25.476  24.558  -5.933  0.00  0.00    -0.365 N 
HETATM    2  C   UNK N   1      26.740  24.400  -4.081  0.00  0.00    -0.029 A 
HETATM    3  C   UNK N   1      26.277  25.685  -4.179  0.00  0.00    -0.002 A 
HETATM    4  C   UNK N   1      25.515  25.748  -5.309  0.00  0.00     0.042 A 
HETATM    5  C   UNK N   1      26.231  23.712  -5.182  0.00  0.00     0.096 A 
HETATM    6  C   UNK N   1      26.474  26.791  -3.356  0.00  0.00     0.014 A 
HETATM    7  C   UNK N   1      24.885  26.927  -5.702  0.00  0.00     0.030 A 
HETATM    8  C   UNK N   1      25.855  27.999  -3.726  0.00  0.00     0.001 A 
HETATM    9  C   UNK N   1      25.062  28.066  -4.893  0.00  0.00     0.002 A 
HETATM   10  H   UNK N   1      24.996  24.341  -6.766  0.00  0.00     0.165 HD
ENDROOT
BRANCH   2  11
HETATM   11  C   UNK N   1      27.592  23.879  -2.967  0.00  0.00     0.071 C 
BRANCH  11  12
HETATM   12  C   UNK N   1      28.974  23.403  -3.405  0.00  0.00     0.277 C 
BRANCH  12  13
HETATM   13  N   UNK N   1      29.578  24.375  -4.315  0.00  0.00     0.088 N 
BRANCH  13  14
HETATM   14  C   UNK N   1      30.223  23.652  -5.408  0.00  0.00     0.268 C 
HETATM   15  C   UNK N   1      29.720  22.220  -5.442  0.00  0.00     0.037 C 
ENDBRANCH  13  14
BRANCH  13  16
HETATM   16  C   UNK N   1      30.616  25.072  -3.567  0.00  0.00     0.268 C 
HETATM   17  C   UNK N   1      30.384  26.576  -3.592  0.00  0.00     0.037 C 
ENDBRANCH  13  16
ENDBRANCH  12  13
ENDBRANCH  11  12
ENDBRANCH   2  11
TORSDOF 5
ENDMDL
MODEL 4
REMARK VINA RESULT:      -5.1     11.053     13.687
REMARK  5 active torsions:
REMARK  status: ('A' for Active; 'I' for Inactive)
REMARK    1  A    between atoms: N_1  and  C_3 
REMARK    2  A    between atoms: N_1  and  C_7 
REMARK    3  A    between atoms: N_1  and  C_8 
REMARK    4  A    between atoms: C_3  and  C_4 
REMARK    5  A    between atoms: C_4  and  C_5 
ROOT
HETATM    1  N   UNK N   1      35.320  13.501  19.337  0.00  0.00    -0.365 N 
HETATM    2  C   UNK N   1      35.266  13.115  17.123  0.00  0.00    -0.029 A 
HETATM    3  C   UNK N   1      35.183  11.912  17.773  0.00  0.00    -0.002 A 
HETATM    4  C   UNK N   1      35.217  12.179  19.111  0.00  0.00     0.042 A 
HETATM    5  C   UNK N   1      35.351  14.093  18.113  0.00  0.00     0.096 A 
HETATM    6  C   UNK N   1      35.080  10.614  17.279  0.00  0.00     0.014 A 
HETATM    7  C   UNK N   1      35.146  11.164  20.062  0.00  0.00     0.030 A 
HETATM    8  C   UNK N   1      35.010   9.565  18.212  0.00  0.00     0.001 A 
HETATM    9  C   UNK N   1      35.041   9.838  19.599  0.00  0.00     0.002 A 
HETATM   10  H   UNK N   1      35.363  13.950  20.213  0.00  0.00     0.165 HD
ENDROOT
BRANCH   2  11
HETATM   11  C   UNK N   1      35.230  13.291  15.638  0.00  0.00     0.071 C 
BRANCH  11  12
HETATM   12  C   UNK N   1      36.486  12.808  14.919  0.00  0.00     0.277 C 
BRANCH  12  13
HETATM   13  N   UNK N   1      36.150  11.744  13.974  0.00  0.00     0.088 N 
BRANCH  13  14
HETATM   14  C   UNK N   1      36.964  11.914  12.773  0.00  0.00     0.268 C 
HETATM   15  C   UNK N   1      36.671  13.263  12.142  0.00  0.00     0.037 C 
ENDBRANCH  13  14
BRANCH  13  16
HETATM   16  C   UNK N   1      34.755  11.933  13.598  0.00  0.00     0.268 C 
HETATM   17  C   UNK N   1      33.992  10.618  13.674  0.00  0.00     0.037 C 
ENDBRANCH  13  16
ENDBRANCH  12  13
ENDBRANCH  11  12
ENDBRANCH   2  11
TORSDOF 5
ENDMDL
MODEL 5
REMARK VINA RESULT:      -5.0      1.703      5.387
REMARK  5 active torsions:
REMARK  status: ('A' for Active; 'I' for Inactive)
REMARK    1  A    between atoms: N_1  and  C_3 
REMARK    2  A    between atoms: N_1  and  C_7 
REMARK    3  A    between atoms: N_1  and  C_8 
REMARK    4  A    between atoms: C_3  and  C_4 
REMARK    5  A    between atoms: C_4  and  C_5 
ROOT
HETATM    1  N   UNK N   1      30.977  17.794   9.165  0.00  0.00    -0.365 N 
HETATM    2  C   UNK N   1      30.016  17.320   7.189  0.00  0.00    -0.029 A 
HETATM    3  C   UNK N   1      31.372  17.392   7.004  0.00  0.00    -0.002 A 
HETATM    4  C   UNK N   1      31.924  17.679   8.218  0.00  0.00     0.042 A 
HETATM    5  C   UNK N   1      29.789  17.573   8.541  0.00  0.00     0.096 A 
HETATM    6  C   UNK N   1      32.146  17.224   5.858  0.00  0.00     0.014 A 
HETATM    7  C   UNK N   1      33.301  17.817   8.381  0.00  0.00     0.030 A 
HETATM    8  C   UNK N   1      33.540  17.361   5.987  0.00  0.00     0.001 A 
HETATM    9  C   UNK N   1      34.115  17.655   7.244  0.00  0.00     0.002 A 
HETATM   10  H   UNK N   1      31.115  17.997  10.119  0.00  0.00     0.165 HD
ENDROOT
BRANCH   2  11
HETATM   11  C   UNK N   1      29.022  16.992   6.120  0.00  0.00     0.071 C 
BRANCH  11  12
HETATM   12  C   UNK N   1      27.845  17.959   6.042  0.00  0.00     0.277 C 
BRANCH  12  13
HETATM   13  N   UNK N   1      27.716  18.489   4.685  0.00  0.00     0.088 N 
BRANCH  13  14
HETATM   14  C   UNK N   1      27.998  19.922   4.716  0.00  0.00     0.268 C 
HETATM   15  C   UNK N   1      27.556  20.503   6.047  0.00  0.00     0.037 C 
ENDBRANCH  13  14
BRANCH  13  16
HETATM   16  C   UNK N   1      26.323  18.317   4.291  0.00  0.00     0.268 C 
HETATM   17  C   UNK N   1      26.159  17.087   3.410  0.00  0.00     0.037 C 
ENDBRANCH  13  16
ENDBRANCH  12  13
ENDBRANCH  11  12
ENDBRANCH   2  11
TORSDOF 5
ENDMDL
MODEL 6
REMARK VINA RESULT:      -5.0      9.963     12.814
REMARK  5 active torsions:
REMARK  status: ('A' for Active; 'I' for Inactive)
REMARK    1  A    between atoms: N_1  and  C_3 
REMARK    2  A    between atoms: N_1  and  C_7 
REMARK    3  A    between atoms: N_1  and  C_8 
REMARK    4  A    between atoms: C_3  and  C_4 
REMARK    5  A    between atoms: C_4  and  C_5 
ROOT
HETATM    1  N   UNK N   1      35.998  10.169  16.524  0.00  0.00    -0.365 N 
HETATM    2  C   UNK N   1      35.449  12.095  15.502  0.00  0.00    -0.029 A 
HETATM    3  C   UNK N   1      35.387  12.292  16.856  0.00  0.00    -0.002 A 
HETATM    4  C   UNK N   1      35.725  11.109  17.446  0.00  0.00     0.042 A 
HETATM    5  C   UNK N   1      35.830  10.767  15.314  0.00  0.00     0.096 A 
HETATM    6  C   UNK N   1      35.059  13.424  17.598  0.00  0.00     0.014 A 
HETATM    7  C   UNK N   1      35.766  10.968  18.832  0.00  0.00     0.030 A 
HETATM    8  C   UNK N   1      35.086  13.315  19.000  0.00  0.00     0.001 A 
HETATM    9  C   UNK N   1      35.441  12.092  19.615  0.00  0.00     0.002 A 
HETATM   10  H   UNK N   1      36.265   9.236  16.691  0.00  0.00     0.165 HD
ENDROOT
BRANCH   2  11
HETATM   11  C   UNK N   1      35.184  13.145  14.470  0.00  0.00     0.071 C 
BRANCH  11  12
HETATM   12  C   UNK N   1      36.411  13.964  14.080  0.00  0.00     0.277 C 
BRANCH  12  13
HETATM   13  N   UNK N   1      36.533  14.030  12.625  0.00  0.00     0.088 N 
BRANCH  13  14
HETATM   14  C   UNK N   1      35.200  14.206  12.053  0.00  0.00     0.268 C 
HETATM   15  C   UNK N   1      35.121  15.544  11.342  0.00  0.00     0.037 C 
ENDBRANCH  13  14
BRANCH  13  16
HETATM   16  C   UNK N   1      37.043  12.739  12.180  0.00  0.00     0.268 C 
HETATM   17  C   UNK N   1      37.984  12.908  10.996  0.00  0.00     0.037 C 
ENDBRANCH  13  16
ENDBRANCH  12  13
ENDBRANCH  11  12
ENDBRANCH   2  11
TORSDOF 5
ENDMDL
MODEL 7
REMARK VINA RESULT:      -4.9      8.366     10.602
REMARK  5 active torsions:
REMARK  status: ('A' for Active; 'I' for Inactive)
REMARK    1  A    between atoms: N_1  and  C_3 
REMARK    2  A    between atoms: N_1  and  C_7 
REMARK    3  A    between atoms: N_1  and  C_8 
REMARK    4  A    between atoms: C_3  and  C_4 
REMARK    5  A    between atoms: C_4  and  C_5 
ROOT
HETATM    1  N   UNK N   1      20.718  13.009  10.615  0.00  0.00    -0.365 N 
HETATM    2  C   UNK N   1      21.815  13.923   8.879  0.00  0.00    -0.029 A 
HETATM    3  C   UNK N   1      22.726  13.280   9.675  0.00  0.00    -0.002 A 
HETATM    4  C   UNK N   1      22.031  12.736  10.716  0.00  0.00     0.042 A 
HETATM    5  C   UNK N   1      20.570  13.743   9.481  0.00  0.00     0.096 A 
HETATM    6  C   UNK N   1      24.106  13.139   9.550  0.00  0.00     0.014 A 
HETATM    7  C   UNK N   1      22.667  12.003  11.715  0.00  0.00     0.030 A 
HETATM    8  C   UNK N   1      24.779  12.407  10.545  0.00  0.00     0.001 A 
HETATM    9  C   UNK N   1      24.062  11.840  11.623  0.00  0.00     0.002 A 
HETATM   10  H   UNK N   1      20.007  12.731  11.238  0.00  0.00     0.165 HD
ENDROOT
BRANCH   2  11
HETATM   11  C   UNK N   1      22.142  14.632   7.603  0.00  0.00     0.071 C 
BRANCH  11  12
HETATM   12  C   UNK N   1      20.971  15.399   6.994  0.00  0.00     0.277 C 
BRANCH  12  13
HETATM   13  N   UNK N   1      20.896  16.743   7.565  0.00  0.00     0.088 N 
BRANCH  13  14
HETATM   14  C   UNK N   1      19.527  16.984   8.011  0.00  0.00     0.268 C 
HETATM   15  C   UNK N   1      19.517  18.070   9.072  0.00  0.00     0.037 C 
ENDBRANCH  13  14
BRANCH  13  16
HETATM   16  C   UNK N   1      21.187  17.680   6.487  0.00  0.00     0.268 C 
HETATM   17  C   UNK N   1      20.718  17.129   5.149  0.00  0.00     0.037 C 
ENDBRANCH  13  16
ENDBRANCH  12  13
ENDBRANCH  11  12
ENDBRANCH   2  11
TORSDOF 5
ENDMDL
MODEL 8
REMARK VINA RESULT:      -4.8      9.182     12.264
REMARK  5 active torsions:
REMARK  status: ('A' for Active; 'I' for Inactive)
REMARK    1  A    between atoms: N_1  and  C_3 
REMARK    2  A    between atoms: N_1  and  C_7 
REMARK    3  A    between atoms: N_1  and  C_8 
REMARK    4  A    between atoms: C_3  and  C_4 
REMARK    5  A    between atoms: C_4  and  C_5 
ROOT
HETATM    1  N   UNK N   1      37.018  10.737  15.139  0.00  0.00    -0.365 N 
HETATM    2  C   UNK N   1      36.500  12.870  14.652  0.00  0.00    -0.029 A 
HETATM    3  C   UNK N   1      36.047  12.593  15.915  0.00  0.00    -0.002 A 
HETATM    4  C   UNK N   1      36.376  11.296  16.181  0.00  0.00     0.042 A 
HETATM    5  C   UNK N   1      37.101  11.702  14.185  0.00  0.00     0.096 A 
HETATM    6  C   UNK N   1      35.374  13.391  16.837  0.00  0.00     0.014 A 
HETATM    7  C   UNK N   1      36.061  10.695  17.398  0.00  0.00     0.030 A 
HETATM    8  C   UNK N   1      35.037  12.814  18.075  0.00  0.00     0.001 A 
HETATM    9  C   UNK N   1      35.380  11.472  18.355  0.00  0.00     0.002 A 
HETATM   10  H   UNK N   1      37.359   9.815  15.080  0.00  0.00     0.165 HD
ENDROOT
BRANCH   2  11
HETATM   11  C   UNK N   1      36.379  14.195  13.970  0.00  0.00     0.071 C 
BRANCH  11  12
HETATM   12  C   UNK N   1      36.415  14.122  12.446  0.00  0.00     0.277 C 
BRANCH  12  13
HETATM   13  N   UNK N   1      35.087  13.805  11.924  0.00  0.00     0.088 N 
BRANCH  13  14
HETATM   14  C   UNK N   1      35.222  12.771  10.901  0.00  0.00     0.268 C 
HETATM   15  C   UNK N   1      34.694  11.451  11.434  0.00  0.00     0.037 C 
ENDBRANCH  13  14
BRANCH  13  16
HETATM   16  C   UNK N   1      34.584  15.010  11.277  0.00  0.00     0.268 C 
HETATM   17  C   UNK N   1      35.732  15.885  10.796  0.00  0.00     0.037 C 
ENDBRANCH  13  16
ENDBRANCH  12  13
ENDBRANCH  11  12
ENDBRANCH   2  11
TORSDOF 5
ENDMDL
MODEL 9
REMARK VINA RESULT:      -4.8     13.614     15.867
REMARK  5 active torsions:
REMARK  status: ('A' for Active; 'I' for Inactive)
REMARK    1  A    between atoms: N_1  and  C_3 
REMARK    2  A    between atoms: N_1  and  C_7 
REMARK    3  A    between atoms: N_1  and  C_8 
REMARK    4  A    between atoms: C_3  and  C_4 
REMARK    5  A    between atoms: C_4  and  C_5 
ROOT
HETATM    1  N   UNK N   1      35.266  13.585  18.925  0.00  0.00    -0.365 N 
HETATM    2  C   UNK N   1      35.169  11.389  19.393  0.00  0.00    -0.029 A 
HETATM    3  C   UNK N   1      35.233  11.538  18.033  0.00  0.00    -0.002 A 
HETATM    4  C   UNK N   1      35.292  12.878  17.782  0.00  0.00     0.042 A 
HETATM    5  C   UNK N   1      35.190  12.675  19.932  0.00  0.00     0.096 A 
HETATM    6  C   UNK N   1      35.245  10.591  17.012  0.00  0.00     0.014 A 
HETATM    7  C   UNK N   1      35.372  13.376  16.483  0.00  0.00     0.030 A 
HETATM    8  C   UNK N   1      35.321  11.060  15.688  0.00  0.00     0.001 A 
HETATM    9  C   UNK N   1      35.386  12.447  15.425  0.00  0.00     0.002 A 
HETATM   10  H   UNK N   1      35.296  14.566  19.015  0.00  0.00     0.165 HD
ENDROOT
BRANCH   2  11
HETATM   11  C   UNK N   1      35.124  10.077  20.110  0.00  0.00     0.071 C 
BRANCH  11  12
HETATM   12  C   UNK N   1      33.739   9.439  20.165  0.00  0.00     0.277 C 
BRANCH  12  13
HETATM   13  N   UNK N   1      33.348   9.198  21.553  0.00  0.00     0.088 N 
BRANCH  13  14
HETATM   14  C   UNK N   1      32.237   8.250  21.567  0.00  0.00     0.268 C 
HETATM   15  C   UNK N   1      31.318   8.521  20.389  0.00  0.00     0.037 C 
ENDBRANCH  13  14
BRANCH  13  16
HETATM   16  C   UNK N   1      32.861  10.465  22.085  0.00  0.00     0.268 C 
HETATM   17  C   UNK N   1      32.871  10.451  23.606  0.00  0.00     0.037 C 
ENDBRANCH  13  16
ENDBRANCH  12  13
ENDBRANCH  11  12
ENDBRANCH   2  11
TORSDOF 5
ENDMDL
