MODEL 1
REMARK VINA RESULT:      -6.0      0.000      0.000
REMARK  9 active torsions:
REMARK  status: ('A' for Active; 'I' for Inactive)
REMARK    1  A    between atoms: O_1  and  C_5 
REMARK    2  A    between atoms: O_1  and  C_13 
REMARK    3  A    between atoms: O_2  and  C_8 
REMARK    4  A    between atoms: O_2  and  C_14 
REMARK    5  A    between atoms: N_4  and  C_15 
REMARK    6  A    between atoms: C_5  and  C_6 
REMARK    7  A    between atoms: C_5  and  C_7 
REMARK    8  A    between atoms: C_5  and  C_8 
REMARK    9  A    between atoms: C_14  and  C_15 
ROOT
HETATM    1  C   UNK N   1      36.103  12.231  15.409  0.00  0.00     0.203 C 
ENDROOT
BRANCH   1   2
HETATM    2  O   UNK N   1      37.142  13.186  15.203  0.00  0.00    -0.361 OA
BRANCH   2   3
HETATM    3  C   UNK N   1      36.646  14.496  15.072  0.00  0.00     0.166 C 
HETATM    4  C   UNK N   1      37.464  15.423  15.949  0.00  0.00     0.033 C 
ENDBRANCH   2   3
ENDBRANCH   1   2
BRANCH   1   5
HETATM    5  C   UNK N   1      35.733  12.102  16.910  0.00  0.00    -0.009 A 
HETATM    6  C   UNK N   1      35.299  13.221  17.651  0.00  0.00     0.011 A 
HETATM    7  C   UNK N   1      35.068  13.133  19.024  0.00  0.00     0.001 A 
HETATM    8  C   UNK N   1      35.304  11.931  19.692  0.00  0.00     0.000 A 
HETATM    9  C   UNK N   1      35.744  10.813  18.979  0.00  0.00     0.001 A 
HETATM   10  C   UNK N   1      35.949  10.893  17.595  0.00  0.00     0.011 A 
ENDBRANCH   1   5
BRANCH   1  11
HETATM   11  C   UNK N   1      36.613  10.923  14.811  0.00  0.00    -0.009 A 
HETATM   12  C   UNK N   1      38.000  10.760  14.625  0.00  0.00     0.011 A 
HETATM   13  C   UNK N   1      38.513   9.604  14.035  0.00  0.00     0.001 A 
HETATM   14  C   UNK N   1      37.646   8.595  13.614  0.00  0.00     0.000 A 
HETATM   15  C   UNK N   1      36.266   8.740  13.792  0.00  0.00     0.001 A 
HETATM   16  C   UNK N   1      35.749   9.898  14.388  0.00  0.00     0.011 A 
ENDBRANCH   1  11
BRANCH   1  17
HETATM   17  C   UNK N   1      34.855  12.567  14.598  0.00  0.00     0.303 C 
HETATM   18  O   UNK N   1      33.748  12.176  14.949  0.00  0.00    -0.261 OA
BRANCH  17  19
HETATM   19  O   UNK N   1      34.999  13.323  13.483  0.00  0.00    -0.317 OA
BRANCH  19  20
HETATM   20  C   UNK N   1      35.106  12.819  12.211  0.00  0.00     0.209 C 
BRANCH  20  21
HETATM   21  C   UNK N   1      36.318  13.450  11.526  0.00  0.00     0.298 C 
BRANCH  21  22
HETATM   22  N   UNK N   1      37.461  12.539  11.525  0.00  0.00     0.082 N 
HETATM   23  C   UNK N   1      36.997  11.261  11.021  0.00  0.00     0.309 C 
HETATM   24  C   UNK N   1      38.453  13.032  10.583  0.00  0.00     0.309 C 
ENDBRANCH  21  22
ENDBRANCH  20  21
ENDBRANCH  19  20
ENDBRANCH  17  19
ENDBRANCH   1  17
TORSDOF 9
ENDMDL
MODEL 2
REMARK VINA RESULT:      -5.7     22.153     25.407
REMARK  9 active torsions:
REMARK  status: ('A' for Active; 'I' for Inactive)
REMARK    1  A    between atoms: O_1  and  C_5 
REMARK    2  A    between atoms: O_1  and  C_13 
REMARK    3  A    between atoms: O_2  and  C_8 
REMARK    4  A    between atoms: O_2  and  C_14 
REMARK    5  A    between atoms: N_4  and  C_15 
REMARK    6  A    between atoms: C_5  and  C_6 
REMARK    7  A    between atoms: C_5  and  C_7 
REMARK    8  A    between atoms: C_5  and  C_8 
REMARK    9  A    between atoms: C_14  and  C_15 
ROOT
HETATM    1  C   UNK N   1      27.943  24.699  -4.796  0.00  0.00     0.203 C 
ENDROOT
BRANCH   1   2
HETATM    2  O   UNK N   1      28.661  25.878  -5.154  0.00  0.00    -0.361 OA
BRANCH   2   3
HETATM    3  C   UNK N   1      29.504  26.325  -4.121  0.00  0.00     0.166 C 
HETATM    4  C   UNK N   1      30.878  26.614  -4.695  0.00  0.00     0.033 C 
ENDBRANCH   2   3
ENDBRANCH   1   2
BRANCH   1   5
HETATM    5  C   UNK N   1      28.891  23.594  -4.260  0.00  0.00    -0.009 A 
HETATM    6  C   UNK N   1      29.284  23.566  -2.905  0.00  0.00     0.011 A 
HETATM    7  C   UNK N   1      30.218  22.639  -2.443  0.00  0.00     0.001 A 
HETATM    8  C   UNK N   1      30.808  21.744  -3.336  0.00  0.00     0.000 A 
HETATM    9  C   UNK N   1      30.440  21.760  -4.684  0.00  0.00     0.001 A 
HETATM   10  C   UNK N   1      29.481  22.672  -5.144  0.00  0.00     0.011 A 
ENDBRANCH   1   5
BRANCH   1  11
HETATM   11  C   UNK N   1      27.186  24.272  -6.050  0.00  0.00    -0.009 A 
HETATM   12  C   UNK N   1      27.408  24.982  -7.247  0.00  0.00     0.011 A 
HETATM   13  C   UNK N   1      26.703  24.664  -8.409  0.00  0.00     0.001 A 
HETATM   14  C   UNK N   1      25.759  23.637  -8.391  0.00  0.00     0.000 A 
HETATM   15  C   UNK N   1      25.528  22.922  -7.211  0.00  0.00     0.001 A 
HETATM   16  C   UNK N   1      26.237  23.236  -6.044  0.00  0.00     0.011 A 
ENDBRANCH   1  11
BRANCH   1  17
HETATM   17  C   UNK N   1      26.855  24.989  -3.766  0.00  0.00     0.303 C 
HETATM   18  O   UNK N   1      26.654  24.228  -2.827  0.00  0.00    -0.261 OA
BRANCH  17  19
HETATM   19  O   UNK N   1      26.121  26.118  -3.909  0.00  0.00    -0.317 OA
BRANCH  19  20
HETATM   20  C   UNK N   1      26.141  27.174  -3.032  0.00  0.00     0.209 C 
BRANCH  20  21
HETATM   21  C   UNK N   1      25.889  28.468  -3.805  0.00  0.00     0.298 C 
BRANCH  21  22
HETATM   22  N   UNK N   1      27.053  29.350  -3.755  0.00  0.00     0.082 N 
HETATM   23  C   UNK N   1      26.567  30.714  -3.849  0.00  0.00     0.309 C 
HETATM   24  C   UNK N   1      27.689  29.215  -2.455  0.00  0.00     0.309 C 
ENDBRANCH  21  22
ENDBRANCH  20  21
ENDBRANCH  19  20
ENDBRANCH  17  19
ENDBRANCH   1  17
TORSDOF 9
ENDMDL
MODEL 3
REMARK VINA RESULT:      -5.7      2.040      4.856
REMARK  9 active torsions:
REMARK  status: ('A' for Active; 'I' for Inactive)
REMARK    1  A    between atoms: O_1  and  C_5 
REMARK    2  A    between atoms: O_1  and  C_13 
REMARK    3  A    between atoms: O_2  and  C_8 
REMARK    4  A    between atoms: O_2  and  C_14 
REMARK    5  A    between atoms: N_4  and  C_15 
REMARK    6  A    between atoms: C_5  and  C_6 
REMARK    7  A    between atoms: C_5  and  C_7 
REMARK    8  A    between atoms: C_5  and  C_8 
REMARK    9  A    between atoms: C_14  and  C_15 
ROOT
HETATM    1  C   UNK N   1      35.755  12.520  14.361  0.00  0.00     0.203 C 
ENDROOT
BRANCH   1   2
HETATM    2  O   UNK N   1      34.403  12.090  14.504  0.00  0.00    -0.361 OA
BRANCH   2   3
HETATM    3  C   UNK N   1      34.269  10.695  14.383  0.00  0.00     0.166 C 
HETATM    4  C   UNK N   1      33.649  10.374  13.037  0.00  0.00     0.033 C 
ENDBRANCH   2   3
ENDBRANCH   1   2
BRANCH   1   5
HETATM    5  C   UNK N   1      36.734  11.318  14.307  0.00  0.00    -0.009 A 
HETATM    6  C   UNK N   1      37.154  10.775  13.075  0.00  0.00     0.011 A 
HETATM    7  C   UNK N   1      37.948   9.630  13.023  0.00  0.00     0.001 A 
HETATM    8  C   UNK N   1      38.308   8.981  14.204  0.00  0.00     0.000 A 
HETATM    9  C   UNK N   1      37.896   9.496  15.436  0.00  0.00     0.001 A 
HETATM   10  C   UNK N   1      37.121  10.663  15.490  0.00  0.00     0.011 A 
ENDBRANCH   1   5
BRANCH   1  11
HETATM   11  C   UNK N   1      36.025  13.452  15.537  0.00  0.00    -0.009 A 
HETATM   12  C   UNK N   1      35.225  13.333  16.691  0.00  0.00     0.011 A 
HETATM   13  C   UNK N   1      35.398  14.195  17.775  0.00  0.00     0.001 A 
HETATM   14  C   UNK N   1      36.369  15.195  17.720  0.00  0.00     0.000 A 
HETATM   15  C   UNK N   1      37.173  15.326  16.582  0.00  0.00     0.001 A 
HETATM   16  C   UNK N   1      37.004  14.460  15.495  0.00  0.00     0.011 A 
ENDBRANCH   1  11
BRANCH   1  17
HETATM   17  C   UNK N   1      35.943  13.394  13.123  0.00  0.00     0.303 C 
HETATM   18  O   UNK N   1      37.025  13.456  12.552  0.00  0.00    -0.261 OA
BRANCH  17  19
HETATM   19  O   UNK N   1      34.878  14.092  12.663  0.00  0.00    -0.317 OA
BRANCH  19  20
HETATM   20  C   UNK N   1      34.651  14.381  11.341  0.00  0.00     0.209 C 
BRANCH  20  21
HETATM   21  C   UNK N   1      34.999  15.847  11.085  0.00  0.00     0.298 C 
BRANCH  21  22
HETATM   22  N   UNK N   1      35.358  16.071   9.686  0.00  0.00     0.082 N 
HETATM   23  C   UNK N   1      35.045  14.856   8.958  0.00  0.00     0.309 C 
HETATM   24  C   UNK N   1      34.509  17.120   9.146  0.00  0.00     0.309 C 
ENDBRANCH  21  22
ENDBRANCH  20  21
ENDBRANCH  19  20
ENDBRANCH  17  19
ENDBRANCH   1  17
TORSDOF 9
ENDMDL
MODEL 4
REMARK VINA RESULT:      -5.6      9.612     12.876
REMARK  9 active torsions:
REMARK  status: ('A' for Active; 'I' for Inactive)
REMARK    1  A    between atoms: O_1  and  C_5 
REMARK    2  A    between atoms: O_1  and  C_13 
REMARK    3  A    between atoms: O_2  and  C_8 
REMARK    4  A    between atoms: O_2  and  C_14 
REMARK    5  A    between atoms: N_4  and  C_15 
REMARK    6  A    between atoms: C_5  and  C_6 
REMARK    7  A    between atoms: C_5  and  C_7 
REMARK    8  A    between atoms: C_5  and  C_8 
REMARK    9  A    between atoms: C_14  and  C_15 
ROOT
HETATM    1  C   UNK N   1      29.332  17.158   6.085  0.00  0.00     0.203 C 
ENDROOT
BRANCH   1   2
HETATM    2  O   UNK N   1      28.453  16.036   6.054  0.00  0.00    -0.361 OA
BRANCH   2   3
HETATM    3  C   UNK N   1      27.333  16.210   6.888  0.00  0.00     0.166 C 
HETATM    4  C   UNK N   1      26.094  15.737   6.153  0.00  0.00     0.033 C 
ENDBRANCH   2   3
ENDBRANCH   1   2
BRANCH   1   5
HETATM    5  C   UNK N   1      28.568  18.489   5.857  0.00  0.00    -0.009 A 
HETATM    6  C   UNK N   1      28.081  19.244   6.943  0.00  0.00     0.011 A 
HETATM    7  C   UNK N   1      27.302  20.384   6.739  0.00  0.00     0.001 A 
HETATM    8  C   UNK N   1      26.964  20.770   5.442  0.00  0.00     0.000 A 
HETATM    9  C   UNK N   1      27.428  20.031   4.351  0.00  0.00     0.001 A 
HETATM   10  C   UNK N   1      28.233  18.902   4.554  0.00  0.00     0.011 A 
ENDBRANCH   1   5
BRANCH   1  11
HETATM   11  C   UNK N   1      30.390  16.892   5.019  0.00  0.00    -0.009 A 
HETATM   12  C   UNK N   1      30.239  15.766   4.184  0.00  0.00     0.011 A 
HETATM   13  C   UNK N   1      31.205  15.450   3.227  0.00  0.00     0.001 A 
HETATM   14  C   UNK N   1      32.340  16.249   3.095  0.00  0.00     0.000 A 
HETATM   15  C   UNK N   1      32.505  17.371   3.915  0.00  0.00     0.001 A 
HETATM   16  C   UNK N   1      31.535  17.693   4.873  0.00  0.00     0.011 A 
ENDBRANCH   1  11
BRANCH   1  17
HETATM   17  C   UNK N   1      30.112  17.230   7.395  0.00  0.00     0.303 C 
HETATM   18  O   UNK N   1      30.090  18.240   8.089  0.00  0.00    -0.261 OA
BRANCH  17  19
HETATM   19  O   UNK N   1      30.822  16.143   7.780  0.00  0.00    -0.317 OA
BRANCH  19  20
HETATM   20  C   UNK N   1      31.947  16.187   8.565  0.00  0.00     0.209 C 
BRANCH  20  21
HETATM   21  C   UNK N   1      33.178  15.991   7.681  0.00  0.00     0.298 C 
BRANCH  21  22
HETATM   22  N   UNK N   1      34.258  16.897   8.067  0.00  0.00     0.082 N 
HETATM   23  C   UNK N   1      33.770  18.252   7.895  0.00  0.00     0.309 C 
HETATM   24  C   UNK N   1      34.533  16.722   9.485  0.00  0.00     0.309 C 
ENDBRANCH  21  22
ENDBRANCH  20  21
ENDBRANCH  19  20
ENDBRANCH  17  19
ENDBRANCH   1  17
TORSDOF 9
ENDMDL
MODEL 5
REMARK VINA RESULT:      -5.6      7.308     10.299
REMARK  9 active torsions:
REMARK  status: ('A' for Active; 'I' for Inactive)
REMARK    1  A    between atoms: O_1  and  C_5 
REMARK    2  A    between atoms: O_1  and  C_13 
REMARK    3  A    between atoms: O_2  and  C_8 
REMARK    4  A    between atoms: O_2  and  C_14 
REMARK    5  A    between atoms: N_4  and  C_15 
REMARK    6  A    between atoms: C_5  and  C_6 
REMARK    7  A    between atoms: C_5  and  C_7 
REMARK    8  A    between atoms: C_5  and  C_8 
REMARK    9  A    between atoms: C_14  and  C_15 
ROOT
HETATM    1  C   UNK N   1      32.959  16.324   7.552  0.00  0.00     0.203 C 
ENDROOT
BRANCH   1   2
HETATM    2  O   UNK N   1      32.730  15.069   6.915  0.00  0.00    -0.361 OA
BRANCH   2   3
HETATM    3  C   UNK N   1      33.923  14.363   6.678  0.00  0.00     0.166 C 
HETATM    4  C   UNK N   1      33.630  12.876   6.704  0.00  0.00     0.033 C 
ENDBRANCH   2   3
ENDBRANCH   1   2
BRANCH   1   5
HETATM    5  C   UNK N   1      33.681  16.150   8.914  0.00  0.00    -0.009 A 
HETATM    6  C   UNK N   1      34.778  16.964   9.266  0.00  0.00     0.011 A 
HETATM    7  C   UNK N   1      35.496  16.740  10.441  0.00  0.00     0.001 A 
HETATM    8  C   UNK N   1      35.155  15.672  11.271  0.00  0.00     0.000 A 
HETATM    9  C   UNK N   1      34.077  14.847  10.936  0.00  0.00     0.001 A 
HETATM   10  C   UNK N   1      33.338  15.088   9.771  0.00  0.00     0.011 A 
ENDBRANCH   1   5
BRANCH   1  11
HETATM   11  C   UNK N   1      31.590  16.982   7.688  0.00  0.00    -0.009 A 
HETATM   12  C   UNK N   1      31.411  17.973   8.674  0.00  0.00     0.011 A 
HETATM   13  C   UNK N   1      30.165  18.569   8.873  0.00  0.00     0.001 A 
HETATM   14  C   UNK N   1      29.075  18.178   8.094  0.00  0.00     0.000 A 
HETATM   15  C   UNK N   1      29.236  17.196   7.110  0.00  0.00     0.001 A 
HETATM   16  C   UNK N   1      30.486  16.600   6.906  0.00  0.00     0.011 A 
ENDBRANCH   1  11
BRANCH   1  17
HETATM   17  C   UNK N   1      33.758  17.273   6.663  0.00  0.00     0.303 C 
HETATM   18  O   UNK N   1      34.386  18.210   7.142  0.00  0.00    -0.261 OA
BRANCH  17  19
HETATM   19  O   UNK N   1      33.767  17.046   5.328  0.00  0.00    -0.317 OA
BRANCH  19  20
HETATM   20  C   UNK N   1      32.975  17.706   4.422  0.00  0.00     0.209 C 
BRANCH  20  21
HETATM   21  C   UNK N   1      32.709  16.787   3.231  0.00  0.00     0.298 C 
BRANCH  21  22
HETATM   22  N   UNK N   1      32.073  15.541   3.653  0.00  0.00     0.082 N 
HETATM   23  C   UNK N   1      30.687  15.596   3.230  0.00  0.00     0.309 C 
HETATM   24  C   UNK N   1      32.690  14.434   2.941  0.00  0.00     0.309 C 
ENDBRANCH  21  22
ENDBRANCH  20  21
ENDBRANCH  19  20
ENDBRANCH  17  19
ENDBRANCH   1  17
TORSDOF 9
ENDMDL
MODEL 6
REMARK VINA RESULT:      -5.5     21.847     25.381
REMARK  9 active torsions:
REMARK  status: ('A' for Active; 'I' for Inactive)
REMARK    1  A    between atoms: O_1  and  C_5 
REMARK    2  A    between atoms: O_1  and  C_13 
REMARK    3  A    between atoms: O_2  and  C_8 
REMARK    4  A    between atoms: O_2  and  C_14 
REMARK    5  A    between atoms: N_4  and  C_15 
REMARK    6  A    between atoms: C_5  and  C_6 
REMARK    7  A    between atoms: C_5  and  C_7 
REMARK    8  A    between atoms: C_5  and  C_8 
REMARK    9  A    between atoms: C_14  and  C_15 
ROOT
HETATM    1  C   UNK N   1      27.729  24.663  -4.796  0.00  0.00     0.203 C 
ENDROOT
BRANCH   1   2
HETATM    2  O   UNK N   1      28.980  25.239  -5.166  0.00  0.00    -0.361 OA
BRANCH   2   3
HETATM    3  C   UNK N   1      28.880  26.040  -6.318  0.00  0.00     0.166 C 
HETATM    4  C   UNK N   1      30.212  26.030  -7.042  0.00  0.00     0.033 C 
ENDBRANCH   2   3
ENDBRANCH   1   2
BRANCH   1   5
HETATM    5  C   UNK N   1      27.296  23.550  -5.785  0.00  0.00    -0.009 A 
HETATM    6  C   UNK N   1      28.249  22.846  -6.551  0.00  0.00     0.011 A 
HETATM    7  C   UNK N   1      27.857  21.920  -7.518  0.00  0.00     0.001 A 
HETATM    8  C   UNK N   1      26.501  21.707  -7.767  0.00  0.00     0.000 A 
HETATM    9  C   UNK N   1      25.540  22.401  -7.026  0.00  0.00     0.001 A 
HETATM   10  C   UNK N   1      25.933  23.310  -6.035  0.00  0.00     0.011 A 
ENDBRANCH   1   5
BRANCH   1  11
HETATM   11  C   UNK N   1      26.736  25.820  -4.735  0.00  0.00    -0.009 A 
HETATM   12  C   UNK N   1      25.838  25.996  -5.806  0.00  0.00     0.011 A 
HETATM   13  C   UNK N   1      24.945  27.068  -5.822  0.00  0.00     0.001 A 
HETATM   14  C   UNK N   1      24.941  27.986  -4.772  0.00  0.00     0.000 A 
HETATM   15  C   UNK N   1      25.825  27.825  -3.700  0.00  0.00     0.001 A 
HETATM   16  C   UNK N   1      26.720  26.748  -3.679  0.00  0.00     0.011 A 
ENDBRANCH   1  11
BRANCH   1  17
HETATM   17  C   UNK N   1      27.761  24.105  -3.375  0.00  0.00     0.303 C 
HETATM   18  O   UNK N   1      26.734  23.742  -2.815  0.00  0.00    -0.261 OA
BRANCH  17  19
HETATM   19  O   UNK N   1      28.959  24.009  -2.751  0.00  0.00    -0.317 OA
BRANCH  19  20
HETATM   20  C   UNK N   1      29.456  22.856  -2.196  0.00  0.00     0.209 C 
BRANCH  20  21
HETATM   21  C   UNK N   1      30.910  22.680  -2.633  0.00  0.00     0.298 C 
BRANCH  21  22
HETATM   22  N   UNK N   1      31.005  22.433  -4.070  0.00  0.00     0.082 N 
HETATM   23  C   UNK N   1      32.395  22.605  -4.449  0.00  0.00     0.309 C 
HETATM   24  C   UNK N   1      30.664  21.043  -4.330  0.00  0.00     0.309 C 
ENDBRANCH  21  22
ENDBRANCH  20  21
ENDBRANCH  19  20
ENDBRANCH  17  19
ENDBRANCH   1  17
TORSDOF 9
ENDMDL
MODEL 7
REMARK VINA RESULT:      -5.5     10.929     14.065
REMARK  9 active torsions:
REMARK  status: ('A' for Active; 'I' for Inactive)
REMARK    1  A    between atoms: O_1  and  C_5 
REMARK    2  A    between atoms: O_1  and  C_13 
REMARK    3  A    between atoms: O_2  and  C_8 
REMARK    4  A    between atoms: O_2  and  C_14 
REMARK    5  A    between atoms: N_4  and  C_15 
REMARK    6  A    between atoms: C_5  and  C_6 
REMARK    7  A    between atoms: C_5  and  C_7 
REMARK    8  A    between atoms: C_5  and  C_8 
REMARK    9  A    between atoms: C_14  and  C_15 
ROOT
HETATM    1  C   UNK N   1      28.742  17.698   6.448  0.00  0.00     0.203 C 
ENDROOT
BRANCH   1   2
HETATM    2  O   UNK N   1      28.691  18.199   7.782  0.00  0.00    -0.361 OA
BRANCH   2   3
HETATM    3  C   UNK N   1      28.239  17.234   8.699  0.00  0.00     0.166 C 
HETATM    4  C   UNK N   1      29.070  17.327   9.964  0.00  0.00     0.033 C 
ENDBRANCH   2   3
ENDBRANCH   1   2
BRANCH   1   5
HETATM    5  C   UNK N   1      30.203  17.478   5.975  0.00  0.00    -0.009 A 
HETATM    6  C   UNK N   1      31.241  17.245   6.902  0.00  0.00     0.011 A 
HETATM    7  C   UNK N   1      32.570  17.153   6.490  0.00  0.00     0.001 A 
HETATM    8  C   UNK N   1      32.893  17.330   5.145  0.00  0.00     0.000 A 
HETATM    9  C   UNK N   1      31.882  17.571   4.211  0.00  0.00     0.001 A 
HETATM   10  C   UNK N   1      30.544  17.636   4.620  0.00  0.00     0.011 A 
ENDBRANCH   1   5
BRANCH   1  11
HETATM   11  C   UNK N   1      27.989  18.710   5.590  0.00  0.00    -0.009 A 
HETATM   12  C   UNK N   1      27.760  19.999   6.112  0.00  0.00     0.011 A 
HETATM   13  C   UNK N   1      27.032  20.945   5.388  0.00  0.00     0.001 A 
HETATM   14  C   UNK N   1      26.514  20.615   4.136  0.00  0.00     0.000 A 
HETATM   15  C   UNK N   1      26.734  19.341   3.603  0.00  0.00     0.001 A 
HETATM   16  C   UNK N   1      27.467  18.391   4.325  0.00  0.00     0.011 A 
ENDBRANCH   1  11
BRANCH   1  17
HETATM   17  C   UNK N   1      27.951  16.401   6.300  0.00  0.00     0.303 C 
HETATM   18  O   UNK N   1      26.754  16.357   6.554  0.00  0.00    -0.261 OA
BRANCH  17  19
HETATM   19  O   UNK N   1      28.606  15.297   5.865  0.00  0.00    -0.317 OA
BRANCH  19  20
HETATM   20  C   UNK N   1      28.052  14.331   5.063  0.00  0.00     0.209 C 
BRANCH  20  21
HETATM   21  C   UNK N   1      28.087  14.808   3.612  0.00  0.00     0.298 C 
BRANCH  21  22
HETATM   22  N   UNK N   1      26.873  14.420   2.897  0.00  0.00     0.082 N 
HETATM   23  C   UNK N   1      25.859  14.122   3.890  0.00  0.00     0.309 C 
HETATM   24  C   UNK N   1      26.395  15.560   2.130  0.00  0.00     0.309 C 
ENDBRANCH  21  22
ENDBRANCH  20  21
ENDBRANCH  19  20
ENDBRANCH  17  19
ENDBRANCH   1  17
TORSDOF 9
ENDMDL
MODEL 8
REMARK VINA RESULT:      -5.5     10.041     13.069
REMARK  9 active torsions:
REMARK  status: ('A' for Active; 'I' for Inactive)
REMARK    1  A    between atoms: O_1  and  C_5 
REMARK    2  A    between atoms: O_1  and  C_13 
REMARK    3  A    between atoms: O_2  and  C_8 
REMARK    4  A    between atoms: O_2  and  C_14 
REMARK    5  A    between atoms: N_4  and  C_15 
REMARK    6  A    between atoms: C_5  and  C_6 
REMARK    7  A    between atoms: C_5  and  C_7 
REMARK    8  A    between atoms: C_5  and  C_8 
REMARK    9  A    between atoms: C_14  and  C_15 
ROOT
HETATM    1  C   UNK N   1      28.590  17.286   6.565  0.00  0.00     0.203 C 
ENDROOT
BRANCH   1   2
HETATM    2  O   UNK N   1      28.618  17.384   7.987  0.00  0.00    -0.361 OA
BRANCH   2   3
HETATM    3  C   UNK N   1      29.821  17.937   8.462  0.00  0.00     0.166 C 
HETATM    4  C   UNK N   1      29.567  18.588   9.808  0.00  0.00     0.033 C 
ENDBRANCH   2   3
ENDBRANCH   1   2
BRANCH   1   5
HETATM    5  C   UNK N   1      28.054  18.587   5.912  0.00  0.00    -0.009 A 
HETATM    6  C   UNK N   1      27.781  19.733   6.689  0.00  0.00     0.011 A 
HETATM    7  C   UNK N   1      27.199  20.867   6.124  0.00  0.00     0.001 A 
HETATM    8  C   UNK N   1      26.842  20.866   4.776  0.00  0.00     0.000 A 
HETATM    9  C   UNK N   1      27.095  19.739   3.989  0.00  0.00     0.001 A 
HETATM   10  C   UNK N   1      27.705  18.609   4.550  0.00  0.00     0.011 A 
ENDBRANCH   1   5
BRANCH   1  11
HETATM   11  C   UNK N   1      27.732  16.066   6.245  0.00  0.00    -0.009 A 
HETATM   12  C   UNK N   1      26.578  15.831   7.019  0.00  0.00     0.011 A 
HETATM   13  C   UNK N   1      25.787  14.702   6.800  0.00  0.00     0.001 A 
HETATM   14  C   UNK N   1      26.142  13.786   5.809  0.00  0.00     0.000 A 
HETATM   15  C   UNK N   1      27.284  14.005   5.031  0.00  0.00     0.001 A 
HETATM   16  C   UNK N   1      28.077  15.140   5.246  0.00  0.00     0.011 A 
ENDBRANCH   1  11
BRANCH   1  17
HETATM   17  C   UNK N   1      29.965  16.953   5.993  0.00  0.00     0.303 C 
HETATM   18  O   UNK N   1      30.463  17.633   5.104  0.00  0.00    -0.261 OA
BRANCH  17  19
HETATM   19  O   UNK N   1      30.632  15.890   6.503  0.00  0.00    -0.317 OA
BRANCH  19  20
HETATM   20  C   UNK N   1      31.963  15.632   6.292  0.00  0.00     0.209 C 
BRANCH  20  21
HETATM   21  C   UNK N   1      32.745  15.980   7.558  0.00  0.00     0.298 C 
BRANCH  21  22
HETATM   22  N   UNK N   1      33.838  16.905   7.268  0.00  0.00     0.082 N 
HETATM   23  C   UNK N   1      33.814  17.173   5.843  0.00  0.00     0.309 C 
HETATM   24  C   UNK N   1      33.577  18.167   7.942  0.00  0.00     0.309 C 
ENDBRANCH  21  22
ENDBRANCH  20  21
ENDBRANCH  19  20
ENDBRANCH  17  19
ENDBRANCH   1  17
TORSDOF 9
ENDMDL
MODEL 9
REMARK VINA RESULT:      -5.4     10.896     14.129
REMARK  9 active torsions:
REMARK  status: ('A' for Active; 'I' for Inactive)
REMARK    1  A    between atoms: O_1  and  C_5 
REMARK    2  A    between atoms: O_1  and  C_13 
REMARK    3  A    between atoms: O_2  and  C_8 
REMARK    4  A    between atoms: O_2  and  C_14 
REMARK    5  A    between atoms: N_4  and  C_15 
REMARK    6  A    between atoms: C_5  and  C_6 
REMARK    7  A    between atoms: C_5  and  C_7 
REMARK    8  A    between atoms: C_5  and  C_8 
REMARK    9  A    between atoms: C_14  and  C_15 
ROOT
HETATM    1  C   UNK N   1      28.789  17.675   6.464  0.00  0.00     0.203 C 
ENDROOT
BRANCH   1   2
HETATM    2  O   UNK N   1      28.716  18.157   7.805  0.00  0.00    -0.361 OA
BRANCH   2   3
HETATM    3  C   UNK N   1      28.264  17.175   8.703  0.00  0.00     0.166 C 
HETATM    4  C   UNK N   1      29.094  17.245   9.970  0.00  0.00     0.033 C 
ENDBRANCH   2   3
ENDBRANCH   1   2
BRANCH   1   5
HETATM    5  C   UNK N   1      30.257  17.469   6.010  0.00  0.00    -0.009 A 
HETATM    6  C   UNK N   1      31.289  17.266   6.949  0.00  0.00     0.011 A 
HETATM    7  C   UNK N   1      32.624  17.187   6.551  0.00  0.00     0.001 A 
HETATM    8  C   UNK N   1      32.958  17.347   5.207  0.00  0.00     0.000 A 
HETATM    9  C   UNK N   1      31.952  17.558   4.260  0.00  0.00     0.001 A 
HETATM   10  C   UNK N   1      30.609  17.610   4.655  0.00  0.00     0.011 A 
ENDBRANCH   1   5
BRANCH   1  11
HETATM   11  C   UNK N   1      28.042  18.695   5.611  0.00  0.00    -0.009 A 
HETATM   12  C   UNK N   1      27.772  19.966   6.158  0.00  0.00     0.011 A 
HETATM   13  C   UNK N   1      27.049  20.917   5.437  0.00  0.00     0.001 A 
HETATM   14  C   UNK N   1      26.576  20.610   4.161  0.00  0.00     0.000 A 
HETATM   15  C   UNK N   1      26.836  19.354   3.602  0.00  0.00     0.001 A 
HETATM   16  C   UNK N   1      27.566  18.399   4.322  0.00  0.00     0.011 A 
ENDBRANCH   1  11
BRANCH   1  17
HETATM   17  C   UNK N   1      28.007  16.376   6.287  0.00  0.00     0.303 C 
HETATM   18  O   UNK N   1      28.561  15.352   5.905  0.00  0.00    -0.261 OA
BRANCH  17  19
HETATM   19  O   UNK N   1      26.684  16.379   6.576  0.00  0.00    -0.317 OA
BRANCH  19  20
HETATM   20  C   UNK N   1      25.813  15.371   6.244  0.00  0.00     0.209 C 
BRANCH  20  21
HETATM   21  C   UNK N   1      25.536  14.524   7.485  0.00  0.00     0.298 C 
BRANCH  21  22
HETATM   22  N   UNK N   1      24.166  14.017   7.486  0.00  0.00     0.082 N 
HETATM   23  C   UNK N   1      23.355  14.955   6.733  0.00  0.00     0.309 C 
HETATM   24  C   UNK N   1      24.132  12.754   6.766  0.00  0.00     0.309 C 
ENDBRANCH  21  22
ENDBRANCH  20  21
ENDBRANCH  19  20
ENDBRANCH  17  19
ENDBRANCH   1  17
TORSDOF 9
ENDMDL
