MODEL 1
REMARK VINA RESULT:      -6.3      0.000      0.000
REMARK  10 active torsions:
REMARK  status: ('A' for Active; 'I' for Inactive)
REMARK    1  A    between atoms: O_1  and  C_28 
REMARK    2  A    between atoms: O_1  and  C_29 
REMARK    3  A    between atoms: N_4  and  C_9 
REMARK    4  A    between atoms: N_5  and  C_10 
REMARK    5  A    between atoms: N_5  and  C_15 
REMARK    6  A    between atoms: N_5  and  C_16 
REMARK    7  A    between atoms: N_8  and  C_20 
REMARK    8  A    between atoms: C_9  and  C_10 
REMARK    9  A    between atoms: C_11  and  C_14 
REMARK   10  A    between atoms: C_14  and  C_18 
ROOT
HETATM    1  N   UNK N   1      35.051  15.594   8.479  0.00  0.00    -0.333 N 
HETATM    2  N   UNK N   1      34.841  17.143  10.111  0.00  0.00    -0.344 N 
ATOM      3  HN  UNK N   1      34.683  18.027  10.594  1.00  0.00     0.167 HD
HETATM    4  C   UNK N   1      34.753  16.895   8.775  0.00  0.00     0.088 A 
HETATM    5  C   UNK N   1      35.313  15.029   9.670  0.00  0.00     0.062 A 
HETATM    6  C   UNK N   1      35.183  15.964  10.647  0.00  0.00     0.063 A 
HETATM    7  C   UNK N   1      35.623  13.701   9.958  0.00  0.00     0.034 A 
HETATM    8  C   UNK N   1      35.327  15.659  11.994  0.00  0.00     0.068 A 
HETATM    9  C   UNK N   1      35.618  14.320  12.339  0.00  0.00     0.105 A 
HETATM   10  C   UNK N   1      35.774  13.350  11.314  0.00  0.00     0.038 A 
ENDROOT
BRANCH   4  11
HETATM   11  C   UNK N   1      34.277  17.932   7.788  0.00  0.00     0.115 C 
BRANCH  11  12
HETATM   12  C   UNK N   1      32.895  17.651   7.263  0.00  0.00    -0.051 A 
HETATM   13  C   UNK N   1      32.679  17.505   5.888  0.00  0.00     0.010 A 
HETATM   14  C   UNK N   1      31.389  17.253   5.403  0.00  0.00     0.037 A 
HETATM   15  C   UNK N   1      30.302  17.159   6.294  0.00  0.00     0.068 A 
HETATM   16  C   UNK N   1      30.527  17.299   7.665  0.00  0.00     0.037 A 
HETATM   17  C   UNK N   1      31.814  17.530   8.148  0.00  0.00     0.010 A 
BRANCH  15  18
HETATM   18  O   UNK N   1      29.038  16.939   5.863  0.00  0.00    -0.352 OA
BRANCH  18  19
HETATM   19  C   UNK N   1      27.959  17.707   6.236  0.00  0.00     0.171 C 
HETATM   20  C   UNK N   1      28.019  19.032   5.502  0.00  0.00     0.034 C 
ENDBRANCH  18  19
ENDBRANCH  15  18
ENDBRANCH  11  12
ENDBRANCH   4  11
BRANCH   1  21
HETATM   21  C   UNK N   1      35.049  14.850   7.213  0.00  0.00     0.161 C 
BRANCH  21  22
HETATM   22  C   UNK N   1      33.816  13.990   6.954  0.00  0.00     0.292 C 
BRANCH  22  23
HETATM   23  N   UNK N   1      33.254  14.228   5.625  0.00  0.00     0.089 N 
BRANCH  23  24
HETATM   24  C   UNK N   1      32.359  13.115   5.322  0.00  0.00     0.268 C 
HETATM   25  C   UNK N   1      30.946  13.611   5.073  0.00  0.00     0.037 C 
ENDBRANCH  23  24
BRANCH  23  26
HETATM   26  C   UNK N   1      34.311  14.325   4.602  0.00  0.00     0.268 C 
HETATM   27  C   UNK N   1      33.845  14.986   3.306  0.00  0.00     0.037 C 
ENDBRANCH  23  26
ENDBRANCH  22  23
ENDBRANCH  21  22
ENDBRANCH   1  21
BRANCH   9  28
HETATM   28  N   UNK N   1      35.710  13.939  13.706  0.00  0.00    -0.116 N 
HETATM   29  O   UNK N   1      34.740  13.246  14.266  0.00  0.00    -0.532 OA
HETATM   30  O   UNK N   1      36.634  14.299  14.371  0.00  0.00    -0.532 OA
ENDBRANCH   9  28
TORSDOF 10
ENDMDL
MODEL 2
REMARK VINA RESULT:      -6.2      3.718      6.617
REMARK  10 active torsions:
REMARK  status: ('A' for Active; 'I' for Inactive)
REMARK    1  A    between atoms: O_1  and  C_28 
REMARK    2  A    between atoms: O_1  and  C_29 
REMARK    3  A    between atoms: N_4  and  C_9 
REMARK    4  A    between atoms: N_5  and  C_10 
REMARK    5  A    between atoms: N_5  and  C_15 
REMARK    6  A    between atoms: N_5  and  C_16 
REMARK    7  A    between atoms: N_8  and  C_20 
REMARK    8  A    between atoms: C_9  and  C_10 
REMARK    9  A    between atoms: C_11  and  C_14 
REMARK   10  A    between atoms: C_14  and  C_18 
ROOT
HETATM    1  N   UNK N   1      35.709  12.344  13.136  0.00  0.00    -0.333 N 
HETATM    2  N   UNK N   1      36.804  14.232  13.724  0.00  0.00    -0.344 N 
ATOM      3  HN  UNK N   1      37.369  15.080  13.676  1.00  0.00     0.167 HD
HETATM    4  C   UNK N   1      36.464  13.398  12.703  0.00  0.00     0.088 A 
HETATM    5  C   UNK N   1      35.573  12.549  14.458  0.00  0.00     0.062 A 
HETATM    6  C   UNK N   1      36.231  13.686  14.805  0.00  0.00     0.063 A 
HETATM    7  C   UNK N   1      34.852  11.802  15.389  0.00  0.00     0.034 A 
HETATM    8  C   UNK N   1      36.212  14.193  16.097  0.00  0.00     0.068 A 
HETATM    9  C   UNK N   1      35.474  13.485  17.072  0.00  0.00     0.105 A 
HETATM   10  C   UNK N   1      34.805  12.285  16.711  0.00  0.00     0.038 A 
ENDROOT
BRANCH   4  11
HETATM   11  C   UNK N   1      36.808  13.696  11.264  0.00  0.00     0.115 C 
BRANCH  11  12
HETATM   12  C   UNK N   1      35.825  14.627  10.607  0.00  0.00    -0.051 A 
HETATM   13  C   UNK N   1      34.736  14.114   9.895  0.00  0.00     0.010 A 
HETATM   14  C   UNK N   1      33.829  14.984   9.276  0.00  0.00     0.037 A 
HETATM   15  C   UNK N   1      34.016  16.378   9.356  0.00  0.00     0.068 A 
HETATM   16  C   UNK N   1      35.103  16.882  10.074  0.00  0.00     0.037 A 
HETATM   17  C   UNK N   1      35.994  16.016  10.706  0.00  0.00     0.010 A 
BRANCH  15  18
HETATM   18  O   UNK N   1      33.176  17.251   8.753  0.00  0.00    -0.352 OA
BRANCH  18  19
HETATM   19  C   UNK N   1      33.581  18.195   7.838  0.00  0.00     0.171 C 
HETATM   20  C   UNK N   1      33.800  17.522   6.498  0.00  0.00     0.034 C 
ENDBRANCH  18  19
ENDBRANCH  15  18
ENDBRANCH  11  12
ENDBRANCH   4  11
BRANCH   1  21
HETATM   21  C   UNK N   1      35.076  11.229  12.421  0.00  0.00     0.161 C 
BRANCH  21  22
HETATM   22  C   UNK N   1      35.907   9.953  12.318  0.00  0.00     0.292 C 
BRANCH  22  23
HETATM   23  N   UNK N   1      37.342  10.233  12.348  0.00  0.00     0.089 N 
BRANCH  23  24
HETATM   24  C   UNK N   1      37.892   9.837  11.056  0.00  0.00     0.268 C 
HETATM   25  C   UNK N   1      38.806   8.634  11.203  0.00  0.00     0.037 C 
ENDBRANCH  23  24
BRANCH  23  26
HETATM   26  C   UNK N   1      38.012   9.496  13.435  0.00  0.00     0.268 C 
HETATM   27  C   UNK N   1      38.477  10.391  14.582  0.00  0.00     0.037 C 
ENDBRANCH  23  26
ENDBRANCH  22  23
ENDBRANCH  21  22
ENDBRANCH   1  21
BRANCH   9  28
HETATM   28  N   UNK N   1      35.366  13.995  18.396  0.00  0.00    -0.116 N 
HETATM   29  O   UNK N   1      35.429  15.292  18.611  0.00  0.00    -0.532 OA
HETATM   30  O   UNK N   1      35.283  13.249  19.324  0.00  0.00    -0.532 OA
ENDBRANCH   9  28
TORSDOF 10
ENDMDL
MODEL 3
REMARK VINA RESULT:      -6.1      3.730      8.387
REMARK  10 active torsions:
REMARK  status: ('A' for Active; 'I' for Inactive)
REMARK    1  A    between atoms: O_1  and  C_28 
REMARK    2  A    between atoms: O_1  and  C_29 
REMARK    3  A    between atoms: N_4  and  C_9 
REMARK    4  A    between atoms: N_5  and  C_10 
REMARK    5  A    between atoms: N_5  and  C_15 
REMARK    6  A    between atoms: N_5  and  C_16 
REMARK    7  A    between atoms: N_8  and  C_20 
REMARK    8  A    between atoms: C_9  and  C_10 
REMARK    9  A    between atoms: C_11  and  C_14 
REMARK   10  A    between atoms: C_14  and  C_18 
ROOT
HETATM    1  N   UNK N   1      35.932  13.225  10.150  0.00  0.00    -0.333 N 
HETATM    2  N   UNK N   1      36.452  14.994  11.456  0.00  0.00    -0.344 N 
ATOM      3  HN  UNK N   1      36.823  15.560  12.219  1.00  0.00     0.167 HD
HETATM    4  C   UNK N   1      36.574  13.650  11.279  0.00  0.00     0.088 A 
HETATM    5  C   UNK N   1      35.416  14.345   9.615  0.00  0.00     0.062 A 
HETATM    6  C   UNK N   1      35.734  15.405  10.403  0.00  0.00     0.063 A 
HETATM    7  C   UNK N   1      34.704  14.499   8.426  0.00  0.00     0.034 A 
HETATM    8  C   UNK N   1      35.395  16.709  10.070  0.00  0.00     0.068 A 
HETATM    9  C   UNK N   1      34.693  16.920   8.861  0.00  0.00     0.105 A 
HETATM   10  C   UNK N   1      34.343  15.808   8.050  0.00  0.00     0.038 A 
ENDROOT
BRANCH   4  11
HETATM   11  C   UNK N   1      37.416  12.786  12.185  0.00  0.00     0.115 C 
BRANCH  11  12
HETATM   12  C   UNK N   1      36.791  12.572  13.537  0.00  0.00    -0.051 A 
HETATM   13  C   UNK N   1      35.688  13.336  13.932  0.00  0.00     0.010 A 
HETATM   14  C   UNK N   1      35.115  13.140  15.196  0.00  0.00     0.037 A 
HETATM   15  C   UNK N   1      35.655  12.185  16.079  0.00  0.00     0.068 A 
HETATM   16  C   UNK N   1      36.753  11.423  15.675  0.00  0.00     0.037 A 
HETATM   17  C   UNK N   1      37.309  11.604  14.410  0.00  0.00     0.010 A 
BRANCH  15  18
HETATM   18  O   UNK N   1      35.145  11.983  17.317  0.00  0.00    -0.352 OA
BRANCH  18  19
HETATM   19  C   UNK N   1      35.119  12.945  18.300  0.00  0.00     0.171 C 
HETATM   20  C   UNK N   1      35.328  12.281  19.646  0.00  0.00     0.034 C 
ENDBRANCH  18  19
ENDBRANCH  15  18
ENDBRANCH  11  12
ENDBRANCH   4  11
BRANCH   1  21
HETATM   21  C   UNK N   1      35.819  11.903   9.521  0.00  0.00     0.161 C 
BRANCH  21  22
HETATM   22  C   UNK N   1      35.269  10.793  10.412  0.00  0.00     0.292 C 
BRANCH  22  23
HETATM   23  N   UNK N   1      33.810  10.712  10.343  0.00  0.00     0.089 N 
BRANCH  23  24
HETATM   24  C   UNK N   1      33.368   9.845  11.431  0.00  0.00     0.268 C 
HETATM   25  C   UNK N   1      34.207  10.070  12.676  0.00  0.00     0.037 C 
ENDBRANCH  23  24
BRANCH  23  26
HETATM   26  C   UNK N   1      33.360  10.173   9.047  0.00  0.00     0.268 C 
HETATM   27  C   UNK N   1      32.113   9.297   9.152  0.00  0.00     0.037 C 
ENDBRANCH  23  26
ENDBRANCH  22  23
ENDBRANCH  21  22
ENDBRANCH   1  21
BRANCH   9  28
HETATM   28  N   UNK N   1      34.379  18.242   8.439  0.00  0.00    -0.116 N 
HETATM   29  O   UNK N   1      35.281  19.197   8.529  0.00  0.00    -0.532 OA
HETATM   30  O   UNK N   1      33.278  18.508   8.061  0.00  0.00    -0.532 OA
ENDBRANCH   9  28
TORSDOF 10
ENDMDL
MODEL 4
REMARK VINA RESULT:      -6.0      3.826      7.041
REMARK  10 active torsions:
REMARK  status: ('A' for Active; 'I' for Inactive)
REMARK    1  A    between atoms: O_1  and  C_28 
REMARK    2  A    between atoms: O_1  and  C_29 
REMARK    3  A    between atoms: N_4  and  C_9 
REMARK    4  A    between atoms: N_5  and  C_10 
REMARK    5  A    between atoms: N_5  and  C_15 
REMARK    6  A    between atoms: N_5  and  C_16 
REMARK    7  A    between atoms: N_8  and  C_20 
REMARK    8  A    between atoms: C_9  and  C_10 
REMARK    9  A    between atoms: C_11  and  C_14 
REMARK   10  A    between atoms: C_14  and  C_18 
ROOT
HETATM    1  N   UNK N   1      29.880  16.933   5.629  0.00  0.00    -0.333 N 
HETATM    2  N   UNK N   1      31.841  17.080   4.515  0.00  0.00    -0.344 N 
ATOM      3  HN  UNK N   1      32.531  17.086   3.764  1.00  0.00     0.167 HD
HETATM    4  C   UNK N   1      30.495  16.899   4.409  0.00  0.00     0.088 A 
HETATM    5  C   UNK N   1      30.876  17.156   6.502  0.00  0.00     0.062 A 
HETATM    6  C   UNK N   1      32.052  17.246   5.827  0.00  0.00     0.063 A 
HETATM    7  C   UNK N   1      30.805  17.333   7.884  0.00  0.00     0.034 A 
HETATM    8  C   UNK N   1      33.253  17.541   6.458  0.00  0.00     0.068 A 
HETATM    9  C   UNK N   1      33.229  17.752   7.855  0.00  0.00     0.105 A 
HETATM   10  C   UNK N   1      32.002  17.637   8.561  0.00  0.00     0.038 A 
ENDROOT
BRANCH   4  11
HETATM   11  C   UNK N   1      29.795  16.786   3.077  0.00  0.00     0.115 C 
BRANCH  11  12
HETATM   12  C   UNK N   1      29.135  15.450   2.874  0.00  0.00    -0.051 A 
HETATM   13  C   UNK N   1      27.768  15.376   2.582  0.00  0.00     0.010 A 
HETATM   14  C   UNK N   1      27.155  14.129   2.404  0.00  0.00     0.037 A 
HETATM   15  C   UNK N   1      27.907  12.944   2.532  0.00  0.00     0.068 A 
HETATM   16  C   UNK N   1      29.271  13.026   2.817  0.00  0.00     0.037 A 
HETATM   17  C   UNK N   1      29.884  14.268   2.974  0.00  0.00     0.010 A 
BRANCH  15  18
HETATM   18  O   UNK N   1      27.346  11.720   2.390  0.00  0.00    -0.352 OA
BRANCH  18  19
HETATM   19  C   UNK N   1      27.101  11.127   1.174  0.00  0.00     0.171 C 
HETATM   20  C   UNK N   1      25.604  11.052   0.953  0.00  0.00     0.034 C 
ENDBRANCH  18  19
ENDBRANCH  15  18
ENDBRANCH  11  12
ENDBRANCH   4  11
BRANCH   1  21
HETATM   21  C   UNK N   1      28.467  16.837   6.020  0.00  0.00     0.161 C 
BRANCH  21  22
HETATM   22  C   UNK N   1      27.723  18.163   6.138  0.00  0.00     0.292 C 
BRANCH  22  23
HETATM   23  N   UNK N   1      27.329  18.686   4.830  0.00  0.00     0.089 N 
BRANCH  23  24
HETATM   24  C   UNK N   1      27.954  19.996   4.677  0.00  0.00     0.268 C 
HETATM   25  C   UNK N   1      27.477  20.952   5.755  0.00  0.00     0.037 C 
ENDBRANCH  23  24
BRANCH  23  26
HETATM   26  C   UNK N   1      25.864  18.804   4.715  0.00  0.00     0.268 C 
HETATM   27  C   UNK N   1      25.255  17.845   3.694  0.00  0.00     0.037 C 
ENDBRANCH  23  26
ENDBRANCH  22  23
ENDBRANCH  21  22
ENDBRANCH   1  21
BRANCH   9  28
HETATM   28  N   UNK N   1      34.419  18.122   8.542  0.00  0.00    -0.116 N 
HETATM   29  O   UNK N   1      34.821  17.431   9.587  0.00  0.00    -0.532 OA
HETATM   30  O   UNK N   1      35.024  19.098   8.215  0.00  0.00    -0.532 OA
ENDBRANCH   9  28
TORSDOF 10
ENDMDL
MODEL 5
REMARK VINA RESULT:      -5.9      7.759     10.764
REMARK  10 active torsions:
REMARK  status: ('A' for Active; 'I' for Inactive)
REMARK    1  A    between atoms: O_1  and  C_28 
REMARK    2  A    between atoms: O_1  and  C_29 
REMARK    3  A    between atoms: N_4  and  C_9 
REMARK    4  A    between atoms: N_5  and  C_10 
REMARK    5  A    between atoms: N_5  and  C_15 
REMARK    6  A    between atoms: N_5  and  C_16 
REMARK    7  A    between atoms: N_8  and  C_20 
REMARK    8  A    between atoms: C_9  and  C_10 
REMARK    9  A    between atoms: C_11  and  C_14 
REMARK   10  A    between atoms: C_14  and  C_18 
ROOT
HETATM    1  N   UNK N   1      23.183  14.112   6.873  0.00  0.00    -0.333 N 
HETATM    2  N   UNK N   1      25.121  13.153   7.529  0.00  0.00    -0.344 N 
ATOM      3  HN  UNK N   1      26.083  12.815   7.530  1.00  0.00     0.167 HD
HETATM    4  C   UNK N   1      24.479  13.833   6.539  0.00  0.00     0.088 A 
HETATM    5  C   UNK N   1      23.036  13.602   8.107  0.00  0.00     0.062 A 
HETATM    6  C   UNK N   1      24.205  13.028   8.497  0.00  0.00     0.063 A 
HETATM    7  C   UNK N   1      21.924  13.649   8.947  0.00  0.00     0.034 A 
HETATM    8  C   UNK N   1      24.379  12.475   9.758  0.00  0.00     0.068 A 
HETATM    9  C   UNK N   1      23.288  12.520  10.654  0.00  0.00     0.105 A 
HETATM   10  C   UNK N   1      22.061  13.100  10.237  0.00  0.00     0.038 A 
ENDROOT
BRANCH   4  11
HETATM   11  C   UNK N   1      25.180  14.297   5.286  0.00  0.00     0.115 C 
BRANCH  11  12
HETATM   12  C   UNK N   1      25.845  15.636   5.448  0.00  0.00    -0.051 A 
HETATM   13  C   UNK N   1      25.327  16.763   4.802  0.00  0.00     0.010 A 
HETATM   14  C   UNK N   1      25.956  18.007   4.947  0.00  0.00     0.037 A 
HETATM   15  C   UNK N   1      27.119  18.126   5.733  0.00  0.00     0.068 A 
HETATM   16  C   UNK N   1      27.627  16.997   6.380  0.00  0.00     0.037 A 
HETATM   17  C   UNK N   1      26.989  15.764   6.250  0.00  0.00     0.010 A 
BRANCH  15  18
HETATM   18  O   UNK N   1      27.769  19.304   5.879  0.00  0.00    -0.352 OA
BRANCH  18  19
HETATM   19  C   UNK N   1      27.449  20.240   6.835  0.00  0.00     0.171 C 
HETATM   20  C   UNK N   1      26.963  21.501   6.149  0.00  0.00     0.034 C 
ENDBRANCH  18  19
ENDBRANCH  15  18
ENDBRANCH  11  12
ENDBRANCH   4  11
BRANCH   1  21
HETATM   21  C   UNK N   1      22.125  14.850   6.172  0.00  0.00     0.161 C 
BRANCH  21  22
HETATM   22  C   UNK N   1      22.023  16.336   6.505  0.00  0.00     0.292 C 
BRANCH  22  23
HETATM   23  N   UNK N   1      20.667  16.848   6.305  0.00  0.00     0.089 N 
BRANCH  23  24
HETATM   24  C   UNK N   1      19.818  16.248   7.330  0.00  0.00     0.268 C 
HETATM   25  C   UNK N   1      20.063  16.895   8.681  0.00  0.00     0.037 C 
ENDBRANCH  23  24
BRANCH  23  26
HETATM   26  C   UNK N   1      20.158  16.516   4.962  0.00  0.00     0.268 C 
HETATM   27  C   UNK N   1      18.796  15.824   4.982  0.00  0.00     0.037 C 
ENDBRANCH  23  26
ENDBRANCH  22  23
ENDBRANCH  21  22
ENDBRANCH   1  21
BRANCH   9  28
HETATM   28  N   UNK N   1      23.433  12.027  11.981  0.00  0.00    -0.116 N 
HETATM   29  O   UNK N   1      22.368  11.721  12.692  0.00  0.00    -0.532 OA
HETATM   30  O   UNK N   1      24.515  11.948  12.480  0.00  0.00    -0.532 OA
ENDBRANCH   9  28
TORSDOF 10
ENDMDL
MODEL 6
REMARK VINA RESULT:      -5.9      3.401      5.734
REMARK  10 active torsions:
REMARK  status: ('A' for Active; 'I' for Inactive)
REMARK    1  A    between atoms: O_1  and  C_28 
REMARK    2  A    between atoms: O_1  and  C_29 
REMARK    3  A    between atoms: N_4  and  C_9 
REMARK    4  A    between atoms: N_5  and  C_10 
REMARK    5  A    between atoms: N_5  and  C_15 
REMARK    6  A    between atoms: N_5  and  C_16 
REMARK    7  A    between atoms: N_8  and  C_20 
REMARK    8  A    between atoms: C_9  and  C_10 
REMARK    9  A    between atoms: C_11  and  C_14 
REMARK   10  A    between atoms: C_14  and  C_18 
ROOT
HETATM    1  N   UNK N   1      35.586  12.374  13.042  0.00  0.00    -0.333 N 
HETATM    2  N   UNK N   1      36.813  14.202  13.551  0.00  0.00    -0.344 N 
ATOM      3  HN  UNK N   1      37.428  15.011  13.466  1.00  0.00     0.167 HD
HETATM    4  C   UNK N   1      36.390  13.369  12.560  0.00  0.00     0.088 A 
HETATM    5  C   UNK N   1      35.505  12.615  14.361  0.00  0.00     0.062 A 
HETATM    6  C   UNK N   1      36.243  13.716  14.661  0.00  0.00     0.063 A 
HETATM    7  C   UNK N   1      34.769  11.935  15.331  0.00  0.00     0.034 A 
HETATM    8  C   UNK N   1      36.296  14.251  15.941  0.00  0.00     0.068 A 
HETATM    9  C   UNK N   1      35.548  13.612  16.954  0.00  0.00     0.105 A 
HETATM   10  C   UNK N   1      34.795  12.448  16.643  0.00  0.00     0.038 A 
ENDROOT
BRANCH   4  11
HETATM   11  C   UNK N   1      36.705  13.614  11.105  0.00  0.00     0.115 C 
BRANCH  11  12
HETATM   12  C   UNK N   1      35.739  14.561  10.447  0.00  0.00    -0.051 A 
HETATM   13  C   UNK N   1      35.955  15.942  10.505  0.00  0.00     0.010 A 
HETATM   14  C   UNK N   1      35.047  16.821   9.900  0.00  0.00     0.037 A 
HETATM   15  C   UNK N   1      33.907  16.319   9.242  0.00  0.00     0.068 A 
HETATM   16  C   UNK N   1      33.701  14.940   9.183  0.00  0.00     0.037 A 
HETATM   17  C   UNK N   1      34.616  14.065   9.768  0.00  0.00     0.010 A 
BRANCH  15  18
HETATM   18  O   UNK N   1      32.994  17.136   8.665  0.00  0.00    -0.352 OA
BRANCH  18  19
HETATM   19  C   UNK N   1      32.577  17.016   7.360  0.00  0.00     0.171 C 
HETATM   20  C   UNK N   1      33.675  17.516   6.442  0.00  0.00     0.034 C 
ENDBRANCH  18  19
ENDBRANCH  15  18
ENDBRANCH  11  12
ENDBRANCH   4  11
BRANCH   1  21
HETATM   21  C   UNK N   1      34.862  11.285  12.372  0.00  0.00     0.161 C 
BRANCH  21  22
HETATM   22  C   UNK N   1      35.703  10.072  11.986  0.00  0.00     0.292 C 
BRANCH  22  23
HETATM   23  N   UNK N   1      35.505   9.694  10.587  0.00  0.00     0.089 N 
BRANCH  23  24
HETATM   24  C   UNK N   1      36.713  10.066   9.857  0.00  0.00     0.268 C 
HETATM   25  C   UNK N   1      37.921  10.063  10.776  0.00  0.00     0.037 C 
ENDBRANCH  23  24
BRANCH  23  26
HETATM   26  C   UNK N   1      34.331  10.371  10.007  0.00  0.00     0.268 C 
HETATM   27  C   UNK N   1      34.448  10.610   8.503  0.00  0.00     0.037 C 
ENDBRANCH  23  26
ENDBRANCH  22  23
ENDBRANCH  21  22
ENDBRANCH   1  21
BRANCH   9  28
HETATM   28  N   UNK N   1      35.514  14.156  18.269  0.00  0.00    -0.116 N 
HETATM   29  O   UNK N   1      35.917  15.391  18.483  0.00  0.00    -0.532 OA
HETATM   30  O   UNK N   1      35.182  13.477  19.193  0.00  0.00    -0.532 OA
ENDBRANCH   9  28
TORSDOF 10
ENDMDL
MODEL 7
REMARK VINA RESULT:      -5.8      4.723      9.696
REMARK  10 active torsions:
REMARK  status: ('A' for Active; 'I' for Inactive)
REMARK    1  A    between atoms: O_1  and  C_28 
REMARK    2  A    between atoms: O_1  and  C_29 
REMARK    3  A    between atoms: N_4  and  C_9 
REMARK    4  A    between atoms: N_5  and  C_10 
REMARK    5  A    between atoms: N_5  and  C_15 
REMARK    6  A    between atoms: N_5  and  C_16 
REMARK    7  A    between atoms: N_8  and  C_20 
REMARK    8  A    between atoms: C_9  and  C_10 
REMARK    9  A    between atoms: C_11  and  C_14 
REMARK   10  A    between atoms: C_14  and  C_18 
ROOT
HETATM    1  N   UNK N   1      35.799  12.251  12.342  0.00  0.00    -0.333 N 
HETATM    2  N   UNK N   1      36.795  14.106  13.161  0.00  0.00    -0.344 N 
ATOM      3  HN  UNK N   1      37.371  14.726  13.732  1.00  0.00     0.167 HD
HETATM    4  C   UNK N   1      36.677  12.754  13.261  0.00  0.00     0.088 A 
HETATM    5  C   UNK N   1      35.382  13.327  11.652  0.00  0.00     0.062 A 
HETATM    6  C   UNK N   1      35.986  14.438  12.148  0.00  0.00     0.063 A 
HETATM    7  C   UNK N   1      34.516  13.384  10.560  0.00  0.00     0.034 A 
HETATM    8  C   UNK N   1      35.803  15.697  11.591  0.00  0.00     0.068 A 
HETATM    9  C   UNK N   1      34.953  15.803  10.467  0.00  0.00     0.105 A 
HETATM   10  C   UNK N   1      34.306  14.643   9.965  0.00  0.00     0.038 A 
ENDROOT
BRANCH   4  11
HETATM   11  C   UNK N   1      37.512  11.934  14.214  0.00  0.00     0.115 C 
BRANCH  11  12
HETATM   12  C   UNK N   1      36.747  11.490  15.430  0.00  0.00    -0.051 A 
HETATM   13  C   UNK N   1      36.886  10.184  15.912  0.00  0.00     0.010 A 
HETATM   14  C   UNK N   1      36.163   9.771  17.040  0.00  0.00     0.037 A 
HETATM   15  C   UNK N   1      35.285  10.663  17.685  0.00  0.00     0.068 A 
HETATM   16  C   UNK N   1      35.156  11.967  17.201  0.00  0.00     0.037 A 
HETATM   17  C   UNK N   1      35.890  12.382  16.091  0.00  0.00     0.010 A 
BRANCH  15  18
HETATM   18  O   UNK N   1      34.552  10.296  18.762  0.00  0.00    -0.352 OA
BRANCH  18  19
HETATM   19  C   UNK N   1      34.010   9.043  18.927  0.00  0.00     0.171 C 
HETATM   20  C   UNK N   1      33.276   8.992  20.252  0.00  0.00     0.034 C 
ENDBRANCH  18  19
ENDBRANCH  15  18
ENDBRANCH  11  12
ENDBRANCH   4  11
BRANCH   1  21
HETATM   21  C   UNK N   1      35.380  10.879  12.030  0.00  0.00     0.161 C 
BRANCH  21  22
HETATM   22  C   UNK N   1      36.200  10.165  10.960  0.00  0.00     0.292 C 
BRANCH  22  23
HETATM   23  N   UNK N   1      36.773   8.914  11.455  0.00  0.00     0.089 N 
BRANCH  23  24
HETATM   24  C   UNK N   1      36.117   8.604  12.722  0.00  0.00     0.268 C 
HETATM   25  C   UNK N   1      35.453   7.240  12.666  0.00  0.00     0.037 C 
ENDBRANCH  23  24
BRANCH  23  26
HETATM   26  C   UNK N   1      38.230   9.027  11.650  0.00  0.00     0.268 C 
HETATM   27  C   UNK N   1      38.691   8.615  13.046  0.00  0.00     0.037 C 
ENDBRANCH  23  26
ENDBRANCH  22  23
ENDBRANCH  21  22
ENDBRANCH   1  21
BRANCH   9  28
HETATM   28  N   UNK N   1      34.782  17.057   9.817  0.00  0.00    -0.116 N 
HETATM   29  O   UNK N   1      33.757  17.251   9.015  0.00  0.00    -0.532 OA
HETATM   30  O   UNK N   1      35.600  17.918   9.944  0.00  0.00    -0.532 OA
ENDBRANCH   9  28
TORSDOF 10
ENDMDL
MODEL 8
REMARK VINA RESULT:      -5.8     14.387     19.680
REMARK  10 active torsions:
REMARK  status: ('A' for Active; 'I' for Inactive)
REMARK    1  A    between atoms: O_1  and  C_28 
REMARK    2  A    between atoms: O_1  and  C_29 
REMARK    3  A    between atoms: N_4  and  C_9 
REMARK    4  A    between atoms: N_5  and  C_10 
REMARK    5  A    between atoms: N_5  and  C_15 
REMARK    6  A    between atoms: N_5  and  C_16 
REMARK    7  A    between atoms: N_8  and  C_20 
REMARK    8  A    between atoms: C_9  and  C_10 
REMARK    9  A    between atoms: C_11  and  C_14 
REMARK   10  A    between atoms: C_14  and  C_18 
ROOT
HETATM    1  N   UNK N   1      27.511  26.392  -6.357  0.00  0.00    -0.333 N 
HETATM    2  N   UNK N   1      26.217  24.543  -6.242  0.00  0.00    -0.344 N 
ATOM      3  HN  UNK N   1      25.713  23.733  -5.879  1.00  0.00     0.167 HD
HETATM    4  C   UNK N   1      26.960  25.443  -5.541  0.00  0.00     0.088 A 
HETATM    5  C   UNK N   1      27.078  26.070  -7.588  0.00  0.00     0.062 A 
HETATM    6  C   UNK N   1      26.300  24.958  -7.512  0.00  0.00     0.063 A 
HETATM    7  C   UNK N   1      27.297  26.734  -8.794  0.00  0.00     0.034 A 
HETATM    8  C   UNK N   1      25.653  24.425  -8.618  0.00  0.00     0.068 A 
HETATM    9  C   UNK N   1      25.824  25.077  -9.860  0.00  0.00     0.105 A 
HETATM   10  C   UNK N   1      26.656  26.226  -9.940  0.00  0.00     0.038 A 
ENDROOT
BRANCH   4  11
HETATM   11  C   UNK N   1      27.052  25.423  -4.035  0.00  0.00     0.115 C 
BRANCH  11  12
HETATM   12  C   UNK N   1      28.215  24.614  -3.530  0.00  0.00    -0.051 A 
HETATM   13  C   UNK N   1      29.504  24.850  -4.019  0.00  0.00     0.010 A 
HETATM   14  C   UNK N   1      30.583  24.087  -3.553  0.00  0.00     0.037 A 
HETATM   15  C   UNK N   1      30.373  23.071  -2.601  0.00  0.00     0.068 A 
HETATM   16  C   UNK N   1      29.085  22.845  -2.112  0.00  0.00     0.037 A 
HETATM   17  C   UNK N   1      28.015  23.618  -2.562  0.00  0.00     0.010 A 
BRANCH  15  18
HETATM   18  O   UNK N   1      31.386  22.297  -2.143  0.00  0.00    -0.352 OA
BRANCH  18  19
HETATM   19  C   UNK N   1      32.268  21.631  -2.960  0.00  0.00     0.171 C 
HETATM   20  C   UNK N   1      31.496  20.675  -3.847  0.00  0.00     0.034 C 
ENDBRANCH  18  19
ENDBRANCH  15  18
ENDBRANCH  11  12
ENDBRANCH   4  11
BRANCH   1  21
HETATM   21  C   UNK N   1      28.334  27.575  -6.073  0.00  0.00     0.161 C 
BRANCH  21  22
HETATM   22  C   UNK N   1      27.567  28.837  -5.688  0.00  0.00     0.292 C 
BRANCH  22  23
HETATM   23  N   UNK N   1      27.996  29.361  -4.392  0.00  0.00     0.089 N 
BRANCH  23  24
HETATM   24  C   UNK N   1      29.110  28.537  -3.933  0.00  0.00     0.268 C 
HETATM   25  C   UNK N   1      29.707  29.099  -2.656  0.00  0.00     0.037 C 
ENDBRANCH  23  24
BRANCH  23  26
HETATM   26  C   UNK N   1      26.899  29.329  -3.408  0.00  0.00     0.268 C 
HETATM   27  C   UNK N   1      25.666  28.570  -3.894  0.00  0.00     0.037 C 
ENDBRANCH  23  26
ENDBRANCH  22  23
ENDBRANCH  21  22
ENDBRANCH   1  21
BRANCH   9  28
HETATM   28  N   UNK N   1      25.132  24.612 -11.012  0.00  0.00    -0.116 N 
HETATM   29  O   UNK N   1      24.090  25.273 -11.470  0.00  0.00    -0.532 OA
HETATM   30  O   UNK N   1      25.451  23.586 -11.534  0.00  0.00    -0.532 OA
ENDBRANCH   9  28
TORSDOF 10
ENDMDL
MODEL 9
REMARK VINA RESULT:      -5.7      5.090      8.495
REMARK  10 active torsions:
REMARK  status: ('A' for Active; 'I' for Inactive)
REMARK    1  A    between atoms: O_1  and  C_28 
REMARK    2  A    between atoms: O_1  and  C_29 
REMARK    3  A    between atoms: N_4  and  C_9 
REMARK    4  A    between atoms: N_5  and  C_10 
REMARK    5  A    between atoms: N_5  and  C_15 
REMARK    6  A    between atoms: N_5  and  C_16 
REMARK    7  A    between atoms: N_8  and  C_20 
REMARK    8  A    between atoms: C_9  and  C_10 
REMARK    9  A    between atoms: C_11  and  C_14 
REMARK   10  A    between atoms: C_14  and  C_18 
ROOT
HETATM    1  N   UNK N   1      29.338  16.567   5.127  0.00  0.00    -0.333 N 
HETATM    2  N   UNK N   1      28.556  17.989   3.555  0.00  0.00    -0.344 N 
ATOM      3  HN  UNK N   1      28.315  18.399   2.652  1.00  0.00     0.167 HD
HETATM    4  C   UNK N   1      29.149  16.786   3.792  0.00  0.00     0.088 A 
HETATM    5  C   UNK N   1      28.832  17.661   5.723  0.00  0.00     0.062 A 
HETATM    6  C   UNK N   1      28.362  18.510   4.773  0.00  0.00     0.063 A 
HETATM    7  C   UNK N   1      28.718  17.942   7.084  0.00  0.00     0.034 A 
HETATM    8  C   UNK N   1      27.717  19.699   5.089  0.00  0.00     0.068 A 
HETATM    9  C   UNK N   1      27.555  20.017   6.456  0.00  0.00     0.105 A 
HETATM   10  C   UNK N   1      28.068  19.138   7.447  0.00  0.00     0.038 A 
ENDROOT
BRANCH   4  11
HETATM   11  C   UNK N   1      29.447  15.798   2.691  0.00  0.00     0.115 C 
BRANCH  11  12
HETATM   12  C   UNK N   1      28.294  14.876   2.403  0.00  0.00    -0.051 A 
HETATM   13  C   UNK N   1      28.508  13.500   2.271  0.00  0.00     0.010 A 
HETATM   14  C   UNK N   1      27.433  12.646   1.992  0.00  0.00     0.037 A 
HETATM   15  C   UNK N   1      26.135  13.169   1.830  0.00  0.00     0.068 A 
HETATM   16  C   UNK N   1      25.929  14.543   1.970  0.00  0.00     0.037 A 
HETATM   17  C   UNK N   1      26.996  15.389   2.266  0.00  0.00     0.010 A 
BRANCH  15  18
HETATM   18  O   UNK N   1      25.074  12.380   1.538  0.00  0.00    -0.352 OA
BRANCH  18  19
HETATM   19  C   UNK N   1      23.909  12.844   0.973  0.00  0.00     0.171 C 
HETATM   20  C   UNK N   1      23.637  12.072  -0.303  0.00  0.00     0.034 C 
ENDBRANCH  18  19
ENDBRANCH  15  18
ENDBRANCH  11  12
ENDBRANCH   4  11
BRANCH   1  21
HETATM   21  C   UNK N   1      29.884  15.422   5.868  0.00  0.00     0.161 C 
BRANCH  21  22
HETATM   22  C   UNK N   1      31.406  15.323   5.904  0.00  0.00     0.292 C 
BRANCH  22  23
HETATM   23  N   UNK N   1      32.027  16.596   6.268  0.00  0.00     0.089 N 
BRANCH  23  24
HETATM   24  C   UNK N   1      33.149  16.812   5.359  0.00  0.00     0.268 C 
HETATM   25  C   UNK N   1      32.712  17.606   4.141  0.00  0.00     0.037 C 
ENDBRANCH  23  24
BRANCH  23  26
HETATM   26  C   UNK N   1      32.499  16.585   7.665  0.00  0.00     0.268 C 
HETATM   27  C   UNK N   1      32.732  17.981   8.239  0.00  0.00     0.037 C 
ENDBRANCH  23  26
ENDBRANCH  22  23
ENDBRANCH  21  22
ENDBRANCH   1  21
BRANCH   9  28
HETATM   28  N   UNK N   1      26.845  21.189   6.837  0.00  0.00    -0.116 N 
HETATM   29  O   UNK N   1      27.055  22.325   6.204  0.00  0.00    -0.532 OA
HETATM   30  O   UNK N   1      26.102  21.167   7.771  0.00  0.00    -0.532 OA
ENDBRANCH   9  28
TORSDOF 10
ENDMDL
