MODEL 1
REMARK VINA RESULT:      -6.3      0.000      0.000
REMARK  9 active torsions:
REMARK  status: ('A' for Active; 'I' for Inactive)
REMARK    1  A    between atoms: O_1  and  C_13 
REMARK    2  A    between atoms: O_1  and  C_25 
REMARK    3  A    between atoms: O_2  and  C_14 
REMARK    4  A    between atoms: O_2  and  C_19 
REMARK    5  A    between atoms: N_5  and  C_12 
REMARK    6  A    between atoms: C_6  and  C_11 
REMARK    7  A    between atoms: C_6  and  C_13 
REMARK    8  A    between atoms: C_12  and  C_14 
REMARK    9  A    between atoms: C_17  and  C_19 
ROOT
HETATM    1  N   UNK N   1      34.733  16.425   8.941  0.00  0.00    -0.410 N 
HETATM    2  C   UNK N   1      32.086  17.024   7.760  0.00  0.00     0.078 C 
HETATM    3  C   UNK N   1      32.320  15.827   8.693  0.00  0.00     0.044 C 
HETATM    4  C   UNK N   1      33.084  18.127   8.154  0.00  0.00     0.044 C 
HETATM    5  C   UNK N   1      33.774  15.342   8.687  0.00  0.00     0.118 C 
HETATM    6  C   UNK N   1      34.537  17.650   8.154  0.00  0.00     0.118 C 
ENDROOT
BRANCH   2   7
HETATM    7  C   UNK N   1      32.258  16.614   6.283  0.00  0.00    -0.040 A 
HETATM    8  C   UNK N   1      32.048  15.287   5.859  0.00  0.00     0.008 A 
HETATM    9  C   UNK N   1      32.232  14.925   4.521  0.00  0.00     0.001 A 
HETATM   10  C   UNK N   1      32.631  15.881   3.585  0.00  0.00     0.000 A 
HETATM   11  C   UNK N   1      32.839  17.201   3.983  0.00  0.00     0.001 A 
HETATM   12  C   UNK N   1      32.654  17.562   5.319  0.00  0.00     0.008 A 
ENDBRANCH   2   7
BRANCH   2  13
HETATM   13  C   UNK N   1      30.675  17.524   8.053  0.00  0.00     0.272 C 
HETATM   14  O   UNK N   1      30.498  18.361   8.928  0.00  0.00    -0.264 OA
BRANCH  13  15
HETATM   15  O   UNK N   1      29.623  17.077   7.314  0.00  0.00    -0.321 OA
BRANCH  15  16
HETATM   16  C   UNK N   1      28.729  17.931   6.709  0.00  0.00     0.174 C 
HETATM   17  C   UNK N   1      28.960  17.939   5.213  0.00  0.00     0.034 C 
ENDBRANCH  15  16
ENDBRANCH  13  15
ENDBRANCH   2  13
BRANCH   1  18
HETATM   18  C   UNK N   1      35.022  16.663  10.354  0.00  0.00     0.143 C 
BRANCH  18  19
HETATM   19  C   UNK N   1      35.890  15.590  11.004  0.00  0.00     0.187 C 
BRANCH  19  20
HETATM   20  O   UNK N   1      35.161  15.010  12.049  0.00  0.00    -0.387 OA
BRANCH  20  21
HETATM   21  C   UNK N   1      36.090  14.480  12.956  0.00  0.00     0.199 C 
BRANCH  21  22
HETATM   22  C   UNK N   1      35.751  13.033  13.344  0.00  0.00     0.145 C 
HETATM   23  O   UNK N   1      34.564  12.958  14.092  0.00  0.00    -0.384 OA
HETATM   24  C   UNK N   1      34.938  13.062  15.443  0.00  0.00     0.168 C 
HETATM   25  C   UNK N   1      36.403  12.706  15.585  0.00  0.00     0.029 C 
HETATM   26  C   UNK N   1      36.855  12.439  14.180  0.00  0.00     0.036 C 
ENDBRANCH  21  22
ENDBRANCH  20  21
ENDBRANCH  19  20
ENDBRANCH  18  19
ENDBRANCH   1  18
TORSDOF 9
ENDMDL
MODEL 2
REMARK VINA RESULT:      -6.2      1.822      3.208
REMARK  9 active torsions:
REMARK  status: ('A' for Active; 'I' for Inactive)
REMARK    1  A    between atoms: O_1  and  C_13 
REMARK    2  A    between atoms: O_1  and  C_25 
REMARK    3  A    between atoms: O_2  and  C_14 
REMARK    4  A    between atoms: O_2  and  C_19 
REMARK    5  A    between atoms: N_5  and  C_12 
REMARK    6  A    between atoms: C_6  and  C_11 
REMARK    7  A    between atoms: C_6  and  C_13 
REMARK    8  A    between atoms: C_12  and  C_14 
REMARK    9  A    between atoms: C_17  and  C_19 
ROOT
HETATM    1  N   UNK N   1      33.648  14.885   9.816  0.00  0.00    -0.410 N 
HETATM    2  C   UNK N   1      33.007  16.512   7.427  0.00  0.00     0.078 C 
HETATM    3  C   UNK N   1      34.060  16.943   8.460  0.00  0.00     0.044 C 
HETATM    4  C   UNK N   1      32.966  14.974   7.416  0.00  0.00     0.044 C 
HETATM    5  C   UNK N   1      33.812  16.345   9.849  0.00  0.00     0.118 C 
HETATM    6  C   UNK N   1      32.723  14.369   8.800  0.00  0.00     0.118 C 
ENDROOT
BRANCH   2   7
HETATM    7  C   UNK N   1      31.626  17.107   7.767  0.00  0.00    -0.040 A 
HETATM    8  C   UNK N   1      30.455  16.658   7.127  0.00  0.00     0.008 A 
HETATM    9  C   UNK N   1      29.212  17.226   7.428  0.00  0.00     0.001 A 
HETATM   10  C   UNK N   1      29.119  18.251   8.371  0.00  0.00     0.000 A 
HETATM   11  C   UNK N   1      30.267  18.706   9.019  0.00  0.00     0.001 A 
HETATM   12  C   UNK N   1      31.507  18.139   8.720  0.00  0.00     0.008 A 
ENDBRANCH   2   7
BRANCH   2  13
HETATM   13  C   UNK N   1      33.519  16.990   6.072  0.00  0.00     0.272 C 
HETATM   14  O   UNK N   1      34.283  17.943   6.014  0.00  0.00    -0.264 OA
BRANCH  13  15
HETATM   15  O   UNK N   1      33.164  16.329   4.936  0.00  0.00    -0.321 OA
BRANCH  15  16
HETATM   16  C   UNK N   1      32.876  16.984   3.759  0.00  0.00     0.174 C 
HETATM   17  C   UNK N   1      31.407  16.822   3.430  0.00  0.00     0.034 C 
ENDBRANCH  15  16
ENDBRANCH  13  15
ENDBRANCH   2  13
BRANCH   1  18
HETATM   18  C   UNK N   1      34.896  14.131   9.927  0.00  0.00     0.143 C 
BRANCH  18  19
HETATM   19  C   UNK N   1      34.960  13.203  11.135  0.00  0.00     0.187 C 
BRANCH  19  20
HETATM   20  O   UNK N   1      34.551  13.923  12.264  0.00  0.00    -0.387 OA
BRANCH  20  21
HETATM   21  C   UNK N   1      35.661  14.023  13.115  0.00  0.00     0.199 C 
BRANCH  21  22
HETATM   22  C   UNK N   1      35.844  12.761  13.971  0.00  0.00     0.145 C 
HETATM   23  O   UNK N   1      34.626  12.316  14.511  0.00  0.00    -0.384 OA
HETATM   24  C   UNK N   1      34.493  12.947  15.761  0.00  0.00     0.168 C 
HETATM   25  C   UNK N   1      35.854  13.409  16.237  0.00  0.00     0.029 C 
HETATM   26  C   UNK N   1      36.781  13.034  15.119  0.00  0.00     0.036 C 
ENDBRANCH  21  22
ENDBRANCH  20  21
ENDBRANCH  19  20
ENDBRANCH  18  19
ENDBRANCH   1  18
TORSDOF 9
ENDMDL
MODEL 3
REMARK VINA RESULT:      -5.9     10.858     12.584
REMARK  9 active torsions:
REMARK  status: ('A' for Active; 'I' for Inactive)
REMARK    1  A    between atoms: O_1  and  C_13 
REMARK    2  A    between atoms: O_1  and  C_25 
REMARK    3  A    between atoms: O_2  and  C_14 
REMARK    4  A    between atoms: O_2  and  C_19 
REMARK    5  A    between atoms: N_5  and  C_12 
REMARK    6  A    between atoms: C_6  and  C_11 
REMARK    7  A    between atoms: C_6  and  C_13 
REMARK    8  A    between atoms: C_12  and  C_14 
REMARK    9  A    between atoms: C_17  and  C_19 
ROOT
HETATM    1  N   UNK N   1      23.054  14.854   4.466  0.00  0.00    -0.410 N 
HETATM    2  C   UNK N   1      21.431  17.059   5.589  0.00  0.00     0.078 C 
HETATM    3  C   UNK N   1      20.886  15.631   5.434  0.00  0.00     0.044 C 
HETATM    4  C   UNK N   1      22.951  16.959   5.803  0.00  0.00     0.044 C 
HETATM    5  C   UNK N   1      21.591  14.841   4.327  0.00  0.00     0.118 C 
HETATM    6  C   UNK N   1      23.663  16.168   4.704  0.00  0.00     0.118 C 
ENDROOT
BRANCH   2   7
HETATM    7  C   UNK N   1      21.094  17.915   4.351  0.00  0.00    -0.040 A 
HETATM    8  C   UNK N   1      21.936  18.962   3.930  0.00  0.00     0.008 A 
HETATM    9  C   UNK N   1      21.605  19.745   2.820  0.00  0.00     0.001 A 
HETATM   10  C   UNK N   1      20.427  19.497   2.113  0.00  0.00     0.000 A 
HETATM   11  C   UNK N   1      19.583  18.461   2.510  0.00  0.00     0.001 A 
HETATM   12  C   UNK N   1      19.914  17.678   3.619  0.00  0.00     0.008 A 
ENDBRANCH   2   7
BRANCH   2  13
HETATM   13  C   UNK N   1      20.801  17.620   6.860  0.00  0.00     0.272 C 
HETATM   14  O   UNK N   1      20.926  18.807   7.125  0.00  0.00    -0.264 OA
BRANCH  13  15
HETATM   15  O   UNK N   1      20.063  16.813   7.671  0.00  0.00    -0.321 OA
BRANCH  15  16
HETATM   16  C   UNK N   1      19.632  17.211   8.917  0.00  0.00     0.174 C 
HETATM   17  C   UNK N   1      18.130  17.055   9.013  0.00  0.00     0.034 C 
ENDBRANCH  15  16
ENDBRANCH  13  15
ENDBRANCH   2  13
BRANCH   1  18
HETATM   18  C   UNK N   1      23.594  13.784   5.304  0.00  0.00     0.143 C 
BRANCH  18  19
HETATM   19  C   UNK N   1      22.591  12.687   5.642  0.00  0.00     0.187 C 
BRANCH  19  20
HETATM   20  O   UNK N   1      22.756  12.342   6.989  0.00  0.00    -0.387 OA
BRANCH  20  21
HETATM   21  C   UNK N   1      21.585  12.725   7.660  0.00  0.00     0.199 C 
BRANCH  21  22
HETATM   22  C   UNK N   1      21.877  13.685   8.822  0.00  0.00     0.145 C 
HETATM   23  O   UNK N   1      23.040  13.319   9.521  0.00  0.00    -0.384 OA
HETATM   24  C   UNK N   1      22.629  12.455  10.551  0.00  0.00     0.168 C 
HETATM   25  C   UNK N   1      21.152  12.659  10.817  0.00  0.00     0.029 C 
HETATM   26  C   UNK N   1      20.735  13.685   9.806  0.00  0.00     0.036 C 
ENDBRANCH  21  22
ENDBRANCH  20  21
ENDBRANCH  19  20
ENDBRANCH  18  19
ENDBRANCH   1  18
TORSDOF 9
ENDMDL
MODEL 4
REMARK VINA RESULT:      -5.8     10.835     12.760
REMARK  9 active torsions:
REMARK  status: ('A' for Active; 'I' for Inactive)
REMARK    1  A    between atoms: O_1  and  C_13 
REMARK    2  A    between atoms: O_1  and  C_25 
REMARK    3  A    between atoms: O_2  and  C_14 
REMARK    4  A    between atoms: O_2  and  C_19 
REMARK    5  A    between atoms: N_5  and  C_12 
REMARK    6  A    between atoms: C_6  and  C_11 
REMARK    7  A    between atoms: C_6  and  C_13 
REMARK    8  A    between atoms: C_12  and  C_14 
REMARK    9  A    between atoms: C_17  and  C_19 
ROOT
HETATM    1  N   UNK N   1      20.400  15.998   6.837  0.00  0.00    -0.410 N 
HETATM    2  C   UNK N   1      21.432  16.090   4.065  0.00  0.00     0.078 C 
HETATM    3  C   UNK N   1      22.360  16.077   5.290  0.00  0.00     0.044 C 
HETATM    4  C   UNK N   1      20.147  15.334   4.444  0.00  0.00     0.044 C 
HETATM    5  C   UNK N   1      21.691  16.638   6.549  0.00  0.00     0.118 C 
HETATM    6  C   UNK N   1      19.475  15.885   5.703  0.00  0.00     0.118 C 
ENDROOT
BRANCH   2   7
HETATM    7  C   UNK N   1      21.124  17.534   3.622  0.00  0.00    -0.040 A 
HETATM    8  C   UNK N   1      19.861  17.892   3.111  0.00  0.00     0.008 A 
HETATM    9  C   UNK N   1      19.605  19.201   2.689  0.00  0.00     0.001 A 
HETATM   10  C   UNK N   1      20.604  20.172   2.770  0.00  0.00     0.000 A 
HETATM   11  C   UNK N   1      21.859  19.839   3.278  0.00  0.00     0.001 A 
HETATM   12  C   UNK N   1      22.115  18.532   3.699  0.00  0.00     0.008 A 
ENDBRANCH   2   7
BRANCH   2  13
HETATM   13  C   UNK N   1      22.152  15.299   2.977  0.00  0.00     0.272 C 
HETATM   14  O   UNK N   1      23.355  15.453   2.811  0.00  0.00    -0.264 OA
BRANCH  13  15
HETATM   15  O   UNK N   1      21.470  14.391   2.227  0.00  0.00    -0.321 OA
BRANCH  15  16
HETATM   16  C   UNK N   1      21.158  14.610   0.904  0.00  0.00     0.174 C 
HETATM   17  C   UNK N   1      19.677  14.891   0.766  0.00  0.00     0.034 C 
ENDBRANCH  15  16
ENDBRANCH  13  15
ENDBRANCH   2  13
BRANCH   1  18
HETATM   18  C   UNK N   1      20.489  14.791   7.658  0.00  0.00     0.143 C 
BRANCH  18  19
HETATM   19  C   UNK N   1      20.149  15.007   9.128  0.00  0.00     0.187 C 
BRANCH  19  20
HETATM   20  O   UNK N   1      20.270  13.781   9.792  0.00  0.00    -0.387 OA
BRANCH  20  21
HETATM   21  C   UNK N   1      21.625  13.620  10.117  0.00  0.00     0.199 C 
BRANCH  21  22
HETATM   22  C   UNK N   1      22.028  12.140  10.183  0.00  0.00     0.145 C 
HETATM   23  O   UNK N   1      22.679  11.829  11.389  0.00  0.00    -0.384 OA
HETATM   24  C   UNK N   1      24.053  12.025  11.160  0.00  0.00     0.168 C 
HETATM   25  C   UNK N   1      24.323  11.982   9.670  0.00  0.00     0.029 C 
HETATM   26  C   UNK N   1      22.967  11.798   9.055  0.00  0.00     0.036 C 
ENDBRANCH  21  22
ENDBRANCH  20  21
ENDBRANCH  19  20
ENDBRANCH  18  19
ENDBRANCH   1  18
TORSDOF 9
ENDMDL
MODEL 5
REMARK VINA RESULT:      -5.8      4.316      7.206
REMARK  9 active torsions:
REMARK  status: ('A' for Active; 'I' for Inactive)
REMARK    1  A    between atoms: O_1  and  C_13 
REMARK    2  A    between atoms: O_1  and  C_25 
REMARK    3  A    between atoms: O_2  and  C_14 
REMARK    4  A    between atoms: O_2  and  C_19 
REMARK    5  A    between atoms: N_5  and  C_12 
REMARK    6  A    between atoms: C_6  and  C_11 
REMARK    7  A    between atoms: C_6  and  C_13 
REMARK    8  A    between atoms: C_12  and  C_14 
REMARK    9  A    between atoms: C_17  and  C_19 
ROOT
HETATM    1  N   UNK N   1      28.332  15.875   4.191  0.00  0.00    -0.410 N 
HETATM    2  C   UNK N   1      27.624  18.362   5.631  0.00  0.00     0.078 C 
HETATM    3  C   UNK N   1      27.123  16.980   6.077  0.00  0.00     0.044 C 
HETATM    4  C   UNK N   1      28.986  18.165   4.941  0.00  0.00     0.044 C 
HETATM    5  C   UNK N   1      27.065  15.968   4.928  0.00  0.00     0.118 C 
HETATM    6  C   UNK N   1      28.937  17.153   3.795  0.00  0.00     0.118 C 
ENDROOT
BRANCH   2   7
HETATM    7  C   UNK N   1      26.610  19.039   4.687  0.00  0.00    -0.040 A 
HETATM    8  C   UNK N   1      27.018  19.978   3.721  0.00  0.00     0.008 A 
HETATM    9  C   UNK N   1      26.082  20.603   2.890  0.00  0.00     0.001 A 
HETATM   10  C   UNK N   1      24.725  20.299   3.010  0.00  0.00     0.000 A 
HETATM   11  C   UNK N   1      24.302  19.368   3.956  0.00  0.00     0.001 A 
HETATM   12  C   UNK N   1      25.235  18.744   4.787  0.00  0.00     0.008 A 
ENDBRANCH   2   7
BRANCH   2  13
HETATM   13  C   UNK N   1      27.844  19.168   6.907  0.00  0.00     0.272 C 
HETATM   14  O   UNK N   1      27.655  20.376   6.902  0.00  0.00    -0.264 OA
BRANCH  13  15
HETATM   15  O   UNK N   1      28.203  18.538   8.060  0.00  0.00    -0.321 OA
BRANCH  15  16
HETATM   16  C   UNK N   1      29.518  18.344   8.418  0.00  0.00     0.174 C 
HETATM   17  C   UNK N   1      29.708  18.686   9.880  0.00  0.00     0.034 C 
ENDBRANCH  15  16
ENDBRANCH  13  15
ENDBRANCH   2  13
BRANCH   1  18
HETATM   18  C   UNK N   1      29.283  14.908   4.736  0.00  0.00     0.143 C 
BRANCH  18  19
HETATM   19  C   UNK N   1      30.677  14.984   4.122  0.00  0.00     0.187 C 
BRANCH  19  20
HETATM   20  O   UNK N   1      31.613  14.680   5.117  0.00  0.00    -0.387 OA
BRANCH  20  21
HETATM   21  C   UNK N   1      31.716  15.807   5.945  0.00  0.00     0.199 C 
BRANCH  21  22
HETATM   22  C   UNK N   1      33.141  15.993   6.486  0.00  0.00     0.145 C 
HETATM   23  O   UNK N   1      33.235  15.636   7.842  0.00  0.00    -0.384 OA
HETATM   24  C   UNK N   1      32.977  16.805   8.579  0.00  0.00     0.168 C 
HETATM   25  C   UNK N   1      33.206  18.014   7.697  0.00  0.00     0.029 C 
HETATM   26  C   UNK N   1      33.569  17.433   6.362  0.00  0.00     0.036 C 
ENDBRANCH  21  22
ENDBRANCH  20  21
ENDBRANCH  19  20
ENDBRANCH  18  19
ENDBRANCH   1  18
TORSDOF 9
ENDMDL
MODEL 6
REMARK VINA RESULT:      -5.8      2.219      2.949
REMARK  9 active torsions:
REMARK  status: ('A' for Active; 'I' for Inactive)
REMARK    1  A    between atoms: O_1  and  C_13 
REMARK    2  A    between atoms: O_1  and  C_25 
REMARK    3  A    between atoms: O_2  and  C_14 
REMARK    4  A    between atoms: O_2  and  C_19 
REMARK    5  A    between atoms: N_5  and  C_12 
REMARK    6  A    between atoms: C_6  and  C_11 
REMARK    7  A    between atoms: C_6  and  C_13 
REMARK    8  A    between atoms: C_12  and  C_14 
REMARK    9  A    between atoms: C_17  and  C_19 
ROOT
HETATM    1  N   UNK N   1      34.768  16.505   8.932  0.00  0.00    -0.410 N 
HETATM    2  C   UNK N   1      32.114  17.056   7.743  0.00  0.00     0.078 C 
HETATM    3  C   UNK N   1      32.364  15.871   8.688  0.00  0.00     0.044 C 
HETATM    4  C   UNK N   1      33.096  18.176   8.128  0.00  0.00     0.044 C 
HETATM    5  C   UNK N   1      33.824  15.406   8.688  0.00  0.00     0.118 C 
HETATM    6  C   UNK N   1      34.556  17.719   8.134  0.00  0.00     0.118 C 
ENDROOT
BRANCH   2   7
HETATM    7  C   UNK N   1      32.294  16.633   6.270  0.00  0.00    -0.040 A 
HETATM    8  C   UNK N   1      32.041  15.314   5.848  0.00  0.00     0.008 A 
HETATM    9  C   UNK N   1      32.233  14.941   4.514  0.00  0.00     0.001 A 
HETATM   10  C   UNK N   1      32.680  15.877   3.581  0.00  0.00     0.000 A 
HETATM   11  C   UNK N   1      32.931  17.190   3.978  0.00  0.00     0.001 A 
HETATM   12  C   UNK N   1      32.739  17.564   5.310  0.00  0.00     0.008 A 
ENDBRANCH   2   7
BRANCH   2  13
HETATM   13  C   UNK N   1      30.696  17.539   8.031  0.00  0.00     0.272 C 
HETATM   14  O   UNK N   1      30.499  18.332   8.941  0.00  0.00    -0.264 OA
BRANCH  13  15
HETATM   15  O   UNK N   1      29.661  17.126   7.248  0.00  0.00    -0.321 OA
BRANCH  15  16
HETATM   16  C   UNK N   1      28.858  18.007   6.559  0.00  0.00     0.174 C 
HETATM   17  C   UNK N   1      29.013  17.785   5.070  0.00  0.00     0.034 C 
ENDBRANCH  15  16
ENDBRANCH  13  15
ENDBRANCH   2  13
BRANCH   1  18
HETATM   18  C   UNK N   1      35.052  16.760  10.344  0.00  0.00     0.143 C 
BRANCH  18  19
HETATM   19  C   UNK N   1      35.897  15.684  11.016  0.00  0.00     0.187 C 
BRANCH  19  20
HETATM   20  O   UNK N   1      37.048  15.483  10.245  0.00  0.00    -0.387 OA
BRANCH  20  21
HETATM   21  C   UNK N   1      37.325  14.109  10.267  0.00  0.00     0.199 C 
BRANCH  21  22
HETATM   22  C   UNK N   1      37.861  13.610   8.917  0.00  0.00     0.145 C 
HETATM   23  O   UNK N   1      36.933  13.808   7.881  0.00  0.00    -0.384 OA
HETATM   24  C   UNK N   1      36.153  12.639   7.819  0.00  0.00     0.168 C 
HETATM   25  C   UNK N   1      36.901  11.502   8.482  0.00  0.00     0.029 C 
HETATM   26  C   UNK N   1      38.165  12.135   8.983  0.00  0.00     0.036 C 
ENDBRANCH  21  22
ENDBRANCH  20  21
ENDBRANCH  19  20
ENDBRANCH  18  19
ENDBRANCH   1  18
TORSDOF 9
ENDMDL
MODEL 7
REMARK VINA RESULT:      -5.8     15.044     18.584
REMARK  9 active torsions:
REMARK  status: ('A' for Active; 'I' for Inactive)
REMARK    1  A    between atoms: O_1  and  C_13 
REMARK    2  A    between atoms: O_1  and  C_25 
REMARK    3  A    between atoms: O_2  and  C_14 
REMARK    4  A    between atoms: O_2  and  C_19 
REMARK    5  A    between atoms: N_5  and  C_12 
REMARK    6  A    between atoms: C_6  and  C_11 
REMARK    7  A    between atoms: C_6  and  C_13 
REMARK    8  A    between atoms: C_12  and  C_14 
REMARK    9  A    between atoms: C_17  and  C_19 
ROOT
HETATM    1  N   UNK N   1      26.764  24.333  -7.478  0.00  0.00    -0.410 N 
HETATM    2  C   UNK N   1      27.397  24.847  -4.632  0.00  0.00     0.078 C 
HETATM    3  C   UNK N   1      26.111  24.132  -5.075  0.00  0.00     0.044 C 
HETATM    4  C   UNK N   1      28.483  24.546  -5.680  0.00  0.00     0.044 C 
HETATM    5  C   UNK N   1      25.682  24.503  -6.498  0.00  0.00     0.118 C 
HETATM    6  C   UNK N   1      28.061  24.910  -7.105  0.00  0.00     0.118 C 
ENDROOT
BRANCH   2   7
HETATM    7  C   UNK N   1      27.162  26.365  -4.488  0.00  0.00    -0.040 A 
HETATM    8  C   UNK N   1      28.226  27.284  -4.564  0.00  0.00     0.008 A 
HETATM    9  C   UNK N   1      28.000  28.655  -4.406  0.00  0.00     0.001 A 
HETATM   10  C   UNK N   1      26.710  29.130  -4.168  0.00  0.00     0.000 A 
HETATM   11  C   UNK N   1      25.642  28.237  -4.094  0.00  0.00     0.001 A 
HETATM   12  C   UNK N   1      25.867  26.868  -4.253  0.00  0.00     0.008 A 
ENDBRANCH   2   7
BRANCH   2  13
HETATM   13  C   UNK N   1      27.810  24.204  -3.313  0.00  0.00     0.272 C 
HETATM   14  O   UNK N   1      26.953  23.877  -2.503  0.00  0.00    -0.264 OA
BRANCH  13  15
HETATM   15  O   UNK N   1      29.123  23.952  -3.056  0.00  0.00    -0.321 OA
BRANCH  15  16
HETATM   16  C   UNK N   1      29.543  22.820  -2.394  0.00  0.00     0.174 C 
HETATM   17  C   UNK N   1      30.215  21.876  -3.368  0.00  0.00     0.034 C 
ENDBRANCH  15  16
ENDBRANCH  13  15
ENDBRANCH   2  13
BRANCH   1  18
HETATM   18  C   UNK N   1      26.851  22.996  -8.061  0.00  0.00     0.143 C 
BRANCH  18  19
HETATM   19  C   UNK N   1      28.084  22.770  -8.930  0.00  0.00     0.187 C 
BRANCH  19  20
HETATM   20  O   UNK N   1      28.555  21.473  -8.695  0.00  0.00    -0.387 OA
BRANCH  20  21
HETATM   21  C   UNK N   1      29.604  21.576  -7.770  0.00  0.00     0.199 C 
BRANCH  21  22
HETATM   22  C   UNK N   1      29.872  20.244  -7.054  0.00  0.00     0.145 C 
HETATM   23  O   UNK N   1      31.243  19.938  -7.019  0.00  0.00    -0.384 OA
HETATM   24  C   UNK N   1      31.511  19.184  -8.176  0.00  0.00     0.168 C 
HETATM   25  C   UNK N   1      30.219  18.589  -8.696  0.00  0.00     0.029 C 
HETATM   26  C   UNK N   1      29.169  19.115  -7.762  0.00  0.00     0.036 C 
ENDBRANCH  21  22
ENDBRANCH  20  21
ENDBRANCH  19  20
ENDBRANCH  18  19
ENDBRANCH   1  18
TORSDOF 9
ENDMDL
MODEL 8
REMARK VINA RESULT:      -5.8     15.536     18.413
REMARK  9 active torsions:
REMARK  status: ('A' for Active; 'I' for Inactive)
REMARK    1  A    between atoms: O_1  and  C_13 
REMARK    2  A    between atoms: O_1  and  C_25 
REMARK    3  A    between atoms: O_2  and  C_14 
REMARK    4  A    between atoms: O_2  and  C_19 
REMARK    5  A    between atoms: N_5  and  C_12 
REMARK    6  A    between atoms: C_6  and  C_11 
REMARK    7  A    between atoms: C_6  and  C_13 
REMARK    8  A    between atoms: C_12  and  C_14 
REMARK    9  A    between atoms: C_17  and  C_19 
ROOT
HETATM    1  N   UNK N   1      29.270  24.145  -3.673  0.00  0.00    -0.410 N 
HETATM    2  C   UNK N   1      26.885  24.803  -5.298  0.00  0.00     0.078 C 
HETATM    3  C   UNK N   1      28.245  24.466  -5.929  0.00  0.00     0.044 C 
HETATM    4  C   UNK N   1      26.792  24.050  -3.959  0.00  0.00     0.044 C 
HETATM    5  C   UNK N   1      29.424  24.764  -4.997  0.00  0.00     0.118 C 
HETATM    6  C   UNK N   1      27.967  24.339  -3.024  0.00  0.00     0.118 C 
ENDROOT
BRANCH   2   7
HETATM    7  C   UNK N   1      26.731  26.324  -5.099  0.00  0.00    -0.040 A 
HETATM    8  C   UNK N   1      27.421  27.245  -5.911  0.00  0.00     0.008 A 
HETATM    9  C   UNK N   1      27.291  28.622  -5.702  0.00  0.00     0.001 A 
HETATM   10  C   UNK N   1      26.472  29.101  -4.678  0.00  0.00     0.000 A 
HETATM   11  C   UNK N   1      25.777  28.205  -3.866  0.00  0.00     0.001 A 
HETATM   12  C   UNK N   1      25.906  26.831  -4.075  0.00  0.00     0.008 A 
ENDBRANCH   2   7
BRANCH   2  13
HETATM   13  C   UNK N   1      25.827  24.240  -6.242  0.00  0.00     0.272 C 
HETATM   14  O   UNK N   1      25.374  23.120  -6.046  0.00  0.00    -0.264 OA
BRANCH  13  15
HETATM   15  O   UNK N   1      25.354  24.998  -7.269  0.00  0.00    -0.321 OA
BRANCH  15  16
HETATM   16  C   UNK N   1      25.697  24.762  -8.581  0.00  0.00     0.174 C 
HETATM   17  C   UNK N   1      26.116  26.058  -9.242  0.00  0.00     0.034 C 
ENDBRANCH  15  16
ENDBRANCH  13  15
ENDBRANCH   2  13
BRANCH   1  18
HETATM   18  C   UNK N   1      29.789  22.782  -3.575  0.00  0.00     0.143 C 
BRANCH  18  19
HETATM   19  C   UNK N   1      31.205  22.611  -4.114  0.00  0.00     0.187 C 
BRANCH  19  20
HETATM   20  O   UNK N   1      31.335  21.304  -4.598  0.00  0.00    -0.387 OA
BRANCH  20  21
HETATM   21  C   UNK N   1      30.194  21.033  -5.368  0.00  0.00     0.199 C 
BRANCH  21  22
HETATM   22  C   UNK N   1      30.531  20.875  -6.858  0.00  0.00     0.145 C 
HETATM   23  O   UNK N   1      29.908  21.861  -7.642  0.00  0.00    -0.384 OA
HETATM   24  C   UNK N   1      28.666  21.330  -8.033  0.00  0.00     0.168 C 
HETATM   25  C   UNK N   1      28.706  19.821  -7.913  0.00  0.00     0.029 C 
HETATM   26  C   UNK N   1      30.071  19.532  -7.363  0.00  0.00     0.036 C 
ENDBRANCH  21  22
ENDBRANCH  20  21
ENDBRANCH  19  20
ENDBRANCH  18  19
ENDBRANCH   1  18
TORSDOF 9
ENDMDL
MODEL 9
REMARK VINA RESULT:      -5.7      9.019     12.809
REMARK  9 active torsions:
REMARK  status: ('A' for Active; 'I' for Inactive)
REMARK    1  A    between atoms: O_1  and  C_13 
REMARK    2  A    between atoms: O_1  and  C_25 
REMARK    3  A    between atoms: O_2  and  C_14 
REMARK    4  A    between atoms: O_2  and  C_19 
REMARK    5  A    between atoms: N_5  and  C_12 
REMARK    6  A    between atoms: C_6  and  C_11 
REMARK    7  A    between atoms: C_6  and  C_13 
REMARK    8  A    between atoms: C_12  and  C_14 
REMARK    9  A    between atoms: C_17  and  C_19 
ROOT
HETATM    1  N   UNK N   1      22.705  15.820   6.808  0.00  0.00    -0.410 N 
HETATM    2  C   UNK N   1      22.200  12.922   7.130  0.00  0.00     0.078 C 
HETATM    3  C   UNK N   1      21.063  13.950   7.023  0.00  0.00     0.044 C 
HETATM    4  C   UNK N   1      23.401  13.469   6.338  0.00  0.00     0.044 C 
HETATM    5  C   UNK N   1      21.483  15.352   7.476  0.00  0.00     0.118 C 
HETATM    6  C   UNK N   1      23.824  14.871   6.782  0.00  0.00     0.118 C 
ENDROOT
BRANCH   2   7
HETATM    7  C   UNK N   1      22.571  12.661   8.604  0.00  0.00    -0.040 A 
HETATM    8  C   UNK N   1      23.907  12.455   9.000  0.00  0.00     0.008 A 
HETATM    9  C   UNK N   1      24.225  12.194  10.337  0.00  0.00     0.001 A 
HETATM   10  C   UNK N   1      23.216  12.135  11.299  0.00  0.00     0.000 A 
HETATM   11  C   UNK N   1      21.888  12.342  10.928  0.00  0.00     0.001 A 
HETATM   12  C   UNK N   1      21.570  12.602   9.593  0.00  0.00     0.008 A 
ENDBRANCH   2   7
BRANCH   2  13
HETATM   13  C   UNK N   1      21.700  11.660   6.434  0.00  0.00     0.272 C 
HETATM   14  O   UNK N   1      20.499  11.432   6.380  0.00  0.00    -0.264 OA
BRANCH  13  15
HETATM   15  O   UNK N   1      22.582  10.814   5.834  0.00  0.00    -0.321 OA
BRANCH  15  16
HETATM   16  C   UNK N   1      22.662   9.478   6.157  0.00  0.00     0.174 C 
HETATM   17  C   UNK N   1      23.738   9.266   7.201  0.00  0.00     0.034 C 
ENDBRANCH  15  16
ENDBRANCH  13  15
ENDBRANCH   2  13
BRANCH   1  18
HETATM   18  C   UNK N   1      22.477  16.510   5.539  0.00  0.00     0.143 C 
BRANCH  18  19
HETATM   19  C   UNK N   1      22.383  18.027   5.659  0.00  0.00     0.187 C 
BRANCH  19  20
HETATM   20  O   UNK N   1      23.086  18.597   4.590  0.00  0.00    -0.387 OA
BRANCH  20  21
HETATM   21  C   UNK N   1      24.450  18.382   4.833  0.00  0.00     0.199 C 
BRANCH  21  22
HETATM   22  C   UNK N   1      25.280  18.452   3.543  0.00  0.00     0.145 C 
HETATM   23  O   UNK N   1      26.534  17.836   3.695  0.00  0.00    -0.384 OA
HETATM   24  C   UNK N   1      27.420  18.839   4.126  0.00  0.00     0.168 C 
HETATM   25  C   UNK N   1      26.848  20.197   3.775  0.00  0.00     0.029 C 
HETATM   26  C   UNK N   1      25.521  19.886   3.147  0.00  0.00     0.036 C 
ENDBRANCH  21  22
ENDBRANCH  20  21
ENDBRANCH  19  20
ENDBRANCH  18  19
ENDBRANCH   1  18
TORSDOF 9
ENDMDL
