MODEL 1
REMARK VINA RESULT:      -5.2      0.000      0.000
REMARK  5 active torsions:
REMARK  status: ('A' for Active; 'I' for Inactive)
REMARK    1  A    between atoms: O_1  and  C_7 
REMARK    2  A    between atoms: O_2  and  C_10 
REMARK    3  A    between atoms: N_3  and  C_5 
REMARK    4  A    between atoms: C_4  and  C_5 
REMARK    5  A    between atoms: C_4  and  C_6 
ROOT
HETATM    1  C   UNK N   1      26.264  25.337  -4.049  0.00  0.00    -0.020 A 
HETATM    2  C   UNK N   1      25.552  25.346  -5.287  0.00  0.00     0.074 A 
HETATM    3  C   UNK N   1      26.422  26.539  -3.344  0.00  0.00     0.046 A 
HETATM    4  C   UNK N   1      25.889  27.735  -3.817  0.00  0.00     0.068 A 
HETATM    5  C   UNK N   1      25.030  26.560  -5.755  0.00  0.00     0.040 A 
HETATM    6  C   UNK N   1      25.191  27.742  -5.032  0.00  0.00     0.039 A 
ENDROOT
BRANCH   1   7
HETATM    7  C   UNK N   1      26.886  24.093  -3.473  0.00  0.00     0.065 C 
BRANCH   7   8
HETATM    8  C   UNK N   1      28.412  24.093  -3.540  0.00  0.00     0.074 C 
HETATM    9  C   UNK N   1      28.875  23.556  -4.883  0.00  0.00     0.032 C 
BRANCH   8  10
HETATM   10  N   UNK N   1      28.938  23.236  -2.493  0.00  0.00    -0.426 N 
HETATM   11  H   UNK N   1      29.827  23.464  -2.047  0.00  0.00     0.150 HD
HETATM   12  H   UNK N   1      28.419  22.408  -2.203  0.00  0.00     0.150 HD
ENDBRANCH   8  10
ENDBRANCH   7   8
ENDBRANCH   1   7
BRANCH   2  13
HETATM   13  O   UNK N   1      25.346  24.249  -6.065  0.00  0.00    -0.355 OA
HETATM   14  C   UNK N   1      25.949  23.975  -7.270  0.00  0.00     0.210 C 
ENDBRANCH   2  13
BRANCH   4  15
HETATM   15  O   UNK N   1      26.059  28.863  -3.087  0.00  0.00    -0.356 OA
HETATM   16  C   UNK N   1      26.504  30.050  -3.623  0.00  0.00     0.210 C 
ENDBRANCH   4  15
TORSDOF 5
ENDMDL
MODEL 2
REMARK VINA RESULT:      -4.9     13.097     15.034
REMARK  5 active torsions:
REMARK  status: ('A' for Active; 'I' for Inactive)
REMARK    1  A    between atoms: O_1  and  C_7 
REMARK    2  A    between atoms: O_2  and  C_10 
REMARK    3  A    between atoms: N_3  and  C_5 
REMARK    4  A    between atoms: C_4  and  C_5 
REMARK    5  A    between atoms: C_4  and  C_6 
ROOT
HETATM    1  C   UNK N   1      30.954  17.221   6.820  0.00  0.00    -0.020 A 
HETATM    2  C   UNK N   1      30.752  17.152   5.408  0.00  0.00     0.074 A 
HETATM    3  C   UNK N   1      32.244  17.460   7.314  0.00  0.00     0.046 A 
HETATM    4  C   UNK N   1      33.328  17.643   6.459  0.00  0.00     0.068 A 
HETATM    5  C   UNK N   1      31.854  17.328   4.561  0.00  0.00     0.040 A 
HETATM    6  C   UNK N   1      33.127  17.574   5.074  0.00  0.00     0.039 A 
ENDROOT
BRANCH   1   7
HETATM    7  C   UNK N   1      29.842  17.019   7.816  0.00  0.00     0.065 C 
BRANCH   7   8
HETATM    8  C   UNK N   1      29.221  18.327   8.302  0.00  0.00     0.074 C 
HETATM    9  C   UNK N   1      29.626  18.592   9.742  0.00  0.00     0.032 C 
BRANCH   8  10
HETATM   10  N   UNK N   1      27.775  18.223   8.240  0.00  0.00    -0.426 N 
HETATM   11  H   UNK N   1      27.306  17.405   8.629  0.00  0.00     0.150 HD
HETATM   12  H   UNK N   1      27.228  18.968   7.808  0.00  0.00     0.150 HD
ENDBRANCH   8  10
ENDBRANCH   7   8
ENDBRANCH   1   7
BRANCH   2  13
HETATM   13  O   UNK N   1      29.552  16.914   4.813  0.00  0.00    -0.355 OA
HETATM   14  C   UNK N   1      28.625  17.855   4.433  0.00  0.00     0.210 C 
ENDBRANCH   2  13
BRANCH   4  15
HETATM   15  O   UNK N   1      34.549  17.885   6.991  0.00  0.00    -0.356 OA
HETATM   16  C   UNK N   1      34.735  18.422   8.245  0.00  0.00     0.210 C 
ENDBRANCH   4  15
TORSDOF 5
ENDMDL
MODEL 3
REMARK VINA RESULT:      -4.6     25.083     26.941
REMARK  5 active torsions:
REMARK  status: ('A' for Active; 'I' for Inactive)
REMARK    1  A    between atoms: O_1  and  C_7 
REMARK    2  A    between atoms: O_2  and  C_10 
REMARK    3  A    between atoms: N_3  and  C_5 
REMARK    4  A    between atoms: C_4  and  C_5 
REMARK    5  A    between atoms: C_4  and  C_6 
ROOT
HETATM    1  C   UNK N   1      35.536  12.082  16.562  0.00  0.00    -0.020 A 
HETATM    2  C   UNK N   1      35.483  11.048  17.547  0.00  0.00     0.074 A 
HETATM    3  C   UNK N   1      35.435  13.419  16.970  0.00  0.00     0.046 A 
HETATM    4  C   UNK N   1      35.299  13.762  18.313  0.00  0.00     0.068 A 
HETATM    5  C   UNK N   1      35.335  11.409  18.893  0.00  0.00     0.040 A 
HETATM    6  C   UNK N   1      35.246  12.747  19.277  0.00  0.00     0.039 A 
ENDROOT
BRANCH   1   7
HETATM    7  C   UNK N   1      35.666  11.800  15.089  0.00  0.00     0.065 C 
BRANCH   7   8
HETATM    8  C   UNK N   1      34.347  11.931  14.329  0.00  0.00     0.074 C 
HETATM    9  C   UNK N   1      33.578  10.622  14.391  0.00  0.00     0.032 C 
BRANCH   8  10
HETATM   10  N   UNK N   1      34.623  12.240  12.938  0.00  0.00    -0.426 N 
HETATM   11  H   UNK N   1      35.403  11.787  12.462  0.00  0.00     0.150 HD
HETATM   12  H   UNK N   1      34.038  12.909  12.438  0.00  0.00     0.150 HD
ENDBRANCH   8  10
ENDBRANCH   7   8
ENDBRANCH   1   7
BRANCH   2  13
HETATM   13  O   UNK N   1      35.556   9.718  17.272  0.00  0.00    -0.355 OA
HETATM   14  C   UNK N   1      35.004   8.698  18.010  0.00  0.00     0.210 C 
ENDBRANCH   2  13
BRANCH   4  15
HETATM   15  O   UNK N   1      35.222  15.070  18.651  0.00  0.00    -0.356 OA
HETATM   16  C   UNK N   1      36.076  16.031  18.158  0.00  0.00     0.210 C 
ENDBRANCH   4  15
TORSDOF 5
ENDMDL
MODEL 4
REMARK VINA RESULT:      -4.5      9.967     11.424
REMARK  5 active torsions:
REMARK  status: ('A' for Active; 'I' for Inactive)
REMARK    1  A    between atoms: O_1  and  C_7 
REMARK    2  A    between atoms: O_2  and  C_10 
REMARK    3  A    between atoms: N_3  and  C_5 
REMARK    4  A    between atoms: C_4  and  C_5 
REMARK    5  A    between atoms: C_4  and  C_6 
ROOT
HETATM    1  C   UNK N   1      24.491  19.470   3.879  0.00  0.00    -0.020 A 
HETATM    2  C   UNK N   1      23.841  18.282   4.332  0.00  0.00     0.074 A 
HETATM    3  C   UNK N   1      23.760  20.407   3.135  0.00  0.00     0.046 A 
HETATM    4  C   UNK N   1      22.413  20.210   2.840  0.00  0.00     0.068 A 
HETATM    5  C   UNK N   1      22.489  18.093   4.018  0.00  0.00     0.040 A 
HETATM    6  C   UNK N   1      21.778  19.042   3.284  0.00  0.00     0.039 A 
ENDROOT
BRANCH   1   7
HETATM    7  C   UNK N   1      25.947  19.756   4.139  0.00  0.00     0.065 C 
BRANCH   7   8
HETATM    8  C   UNK N   1      26.244  20.097   5.598  0.00  0.00     0.074 C 
HETATM    9  C   UNK N   1      27.212  21.265   5.672  0.00  0.00     0.032 C 
BRANCH   8  10
HETATM   10  N   UNK N   1      26.854  18.949   6.244  0.00  0.00    -0.426 N 
HETATM   11  H   UNK N   1      26.390  18.042   6.214  0.00  0.00     0.150 HD
HETATM   12  H   UNK N   1      27.747  19.051   6.727  0.00  0.00     0.150 HD
ENDBRANCH   8  10
ENDBRANCH   7   8
ENDBRANCH   1   7
BRANCH   2  13
HETATM   13  O   UNK N   1      24.449  17.298   5.048  0.00  0.00    -0.355 OA
HETATM   14  C   UNK N   1      23.833  16.229   5.656  0.00  0.00     0.210 C 
ENDBRANCH   2  13
BRANCH   4  15
HETATM   15  O   UNK N   1      21.752  21.154   2.130  0.00  0.00    -0.356 OA
HETATM   16  C   UNK N   1      20.707  20.869   1.282  0.00  0.00     0.210 C 
ENDBRANCH   4  15
TORSDOF 5
ENDMDL
MODEL 5
REMARK VINA RESULT:      -4.5     13.359     15.588
REMARK  5 active torsions:
REMARK  status: ('A' for Active; 'I' for Inactive)
REMARK    1  A    between atoms: O_1  and  C_7 
REMARK    2  A    between atoms: O_2  and  C_10 
REMARK    3  A    between atoms: N_3  and  C_5 
REMARK    4  A    between atoms: C_4  and  C_5 
REMARK    5  A    between atoms: C_4  and  C_6 
ROOT
HETATM    1  C   UNK N   1      31.260  17.141   7.086  0.00  0.00    -0.020 A 
HETATM    2  C   UNK N   1      32.620  17.378   7.452  0.00  0.00     0.074 A 
HETATM    3  C   UNK N   1      30.919  17.077   5.728  0.00  0.00     0.046 A 
HETATM    4  C   UNK N   1      31.879  17.225   4.729  0.00  0.00     0.068 A 
HETATM    5  C   UNK N   1      33.572  17.536   6.436  0.00  0.00     0.040 A 
HETATM    6  C   UNK N   1      33.212  17.459   5.090  0.00  0.00     0.039 A 
ENDROOT
BRANCH   1   7
HETATM    7  C   UNK N   1      30.157  16.984   8.099  0.00  0.00     0.065 C 
BRANCH   7   8
HETATM    8  C   UNK N   1      29.401  18.282   8.376  0.00  0.00     0.074 C 
HETATM    9  C   UNK N   1      29.752  18.806   9.758  0.00  0.00     0.032 C 
BRANCH   8  10
HETATM   10  N   UNK N   1      27.973  18.025   8.328  0.00  0.00    -0.426 N 
HETATM   11  H   UNK N   1      27.322  18.683   8.757  0.00  0.00     0.150 HD
HETATM   12  H   UNK N   1      27.621  17.186   7.866  0.00  0.00     0.150 HD
ENDBRANCH   8  10
ENDBRANCH   7   8
ENDBRANCH   1   7
BRANCH   2  13
HETATM   13  O   UNK N   1      33.067  17.474   8.733  0.00  0.00    -0.355 OA
HETATM   14  C   UNK N   1      34.350  17.244   9.171  0.00  0.00     0.210 C 
ENDBRANCH   2  13
BRANCH   4  15
HETATM   15  O   UNK N   1      31.496  17.140   3.434  0.00  0.00    -0.356 OA
HETATM   16  C   UNK N   1      30.477  16.323   2.999  0.00  0.00     0.210 C 
ENDBRANCH   4  15
TORSDOF 5
ENDMDL
MODEL 6
REMARK VINA RESULT:      -4.5      1.291      3.900
REMARK  5 active torsions:
REMARK  status: ('A' for Active; 'I' for Inactive)
REMARK    1  A    between atoms: O_1  and  C_7 
REMARK    2  A    between atoms: O_2  and  C_10 
REMARK    3  A    between atoms: N_3  and  C_5 
REMARK    4  A    between atoms: C_4  and  C_5 
REMARK    5  A    between atoms: C_4  and  C_6 
ROOT
HETATM    1  C   UNK N   1      26.546  24.997  -4.198  0.00  0.00    -0.020 A 
HETATM    2  C   UNK N   1      26.191  26.376  -4.083  0.00  0.00     0.074 A 
HETATM    3  C   UNK N   1      26.249  24.312  -5.384  0.00  0.00     0.046 A 
HETATM    4  C   UNK N   1      25.629  24.949  -6.456  0.00  0.00     0.068 A 
HETATM    5  C   UNK N   1      25.559  27.000  -5.167  0.00  0.00     0.040 A 
HETATM    6  C   UNK N   1      25.281  26.301  -6.342  0.00  0.00     0.039 A 
ENDROOT
BRANCH   1   7
HETATM    7  C   UNK N   1      27.203  24.227  -3.083  0.00  0.00     0.065 C 
BRANCH   7   8
HETATM    8  C   UNK N   1      28.621  23.770  -3.418  0.00  0.00     0.074 C 
HETATM    9  C   UNK N   1      29.215  23.012  -2.243  0.00  0.00     0.032 C 
BRANCH   8  10
HETATM   10  N   UNK N   1      29.449  24.932  -3.685  0.00  0.00    -0.426 N 
HETATM   11  H   UNK N   1      30.333  24.824  -4.182  0.00  0.00     0.150 HD
HETATM   12  H   UNK N   1      29.147  25.855  -3.375  0.00  0.00     0.150 HD
ENDBRANCH   8  10
ENDBRANCH   7   8
ENDBRANCH   1   7
BRANCH   2  13
HETATM   13  O   UNK N   1      26.416  27.139  -2.980  0.00  0.00    -0.355 OA
HETATM   14  C   UNK N   1      27.052  28.358  -2.944  0.00  0.00     0.210 C 
ENDBRANCH   2  13
BRANCH   4  15
HETATM   15  O   UNK N   1      25.380  24.242  -7.584  0.00  0.00    -0.356 OA
HETATM   16  C   UNK N   1      25.597  22.887  -7.691  0.00  0.00     0.210 C 
ENDBRANCH   4  15
TORSDOF 5
ENDMDL
MODEL 7
REMARK VINA RESULT:      -4.5     13.269     15.292
REMARK  5 active torsions:
REMARK  status: ('A' for Active; 'I' for Inactive)
REMARK    1  A    between atoms: O_1  and  C_7 
REMARK    2  A    between atoms: O_2  and  C_10 
REMARK    3  A    between atoms: N_3  and  C_5 
REMARK    4  A    between atoms: C_4  and  C_5 
REMARK    5  A    between atoms: C_4  and  C_6 
ROOT
HETATM    1  C   UNK N   1      32.602  17.461   5.851  0.00  0.00    -0.020 A 
HETATM    2  C   UNK N   1      31.270  17.217   6.303  0.00  0.00     0.074 A 
HETATM    3  C   UNK N   1      33.619  17.655   6.796  0.00  0.00     0.046 A 
HETATM    4  C   UNK N   1      33.361  17.601   8.164  0.00  0.00     0.068 A 
HETATM    5  C   UNK N   1      31.024  17.176   7.682  0.00  0.00     0.040 A 
HETATM    6  C   UNK N   1      32.053  17.363   8.605  0.00  0.00     0.039 A 
ENDROOT
BRANCH   1   7
HETATM    7  C   UNK N   1      32.966  17.551   4.392  0.00  0.00     0.065 C 
BRANCH   7   8
HETATM    8  C   UNK N   1      32.380  16.417   3.553  0.00  0.00     0.074 C 
HETATM    9  C   UNK N   1      33.489  15.697   2.805  0.00  0.00     0.032 C 
BRANCH   8  10
HETATM   10  N   UNK N   1      31.452  16.969   2.583  0.00  0.00    -0.426 N 
HETATM   11  H   UNK N   1      31.174  16.417   1.772  0.00  0.00     0.150 HD
HETATM   12  H   UNK N   1      31.078  17.909   2.714  0.00  0.00     0.150 HD
ENDBRANCH   8  10
ENDBRANCH   7   8
ENDBRANCH   1   7
BRANCH   2  13
HETATM   13  O   UNK N   1      30.201  17.027   5.484  0.00  0.00    -0.355 OA
HETATM   14  C   UNK N   1      29.164  17.906   5.274  0.00  0.00     0.210 C 
ENDBRANCH   2  13
BRANCH   4  15
HETATM   15  O   UNK N   1      34.385  17.781   9.031  0.00  0.00    -0.356 OA
HETATM   16  C   UNK N   1      34.942  16.760   9.766  0.00  0.00     0.210 C 
ENDBRANCH   4  15
TORSDOF 5
ENDMDL
MODEL 8
REMARK VINA RESULT:      -4.4     25.381     27.303
REMARK  5 active torsions:
REMARK  status: ('A' for Active; 'I' for Inactive)
REMARK    1  A    between atoms: O_1  and  C_7 
REMARK    2  A    between atoms: O_2  and  C_10 
REMARK    3  A    between atoms: N_3  and  C_5 
REMARK    4  A    between atoms: C_4  and  C_5 
REMARK    5  A    between atoms: C_4  and  C_6 
ROOT
HETATM    1  C   UNK N   1      35.267  12.156  16.737  0.00  0.00    -0.020 A 
HETATM    2  C   UNK N   1      35.075  10.915  16.056  0.00  0.00     0.074 A 
HETATM    3  C   UNK N   1      35.278  12.171  18.139  0.00  0.00     0.046 A 
HETATM    4  C   UNK N   1      35.119  11.002  18.880  0.00  0.00     0.068 A 
HETATM    5  C   UNK N   1      34.906   9.750  16.816  0.00  0.00     0.040 A 
HETATM    6  C   UNK N   1      34.929   9.786  18.210  0.00  0.00     0.039 A 
ENDROOT
BRANCH   1   7
HETATM    7  C   UNK N   1      35.431  13.467  16.015  0.00  0.00     0.065 C 
BRANCH   7   8
HETATM    8  C   UNK N   1      36.846  13.692  15.484  0.00  0.00     0.074 C 
HETATM    9  C   UNK N   1      37.257  15.139  15.695  0.00  0.00     0.032 C 
BRANCH   8  10
HETATM   10  N   UNK N   1      36.874  13.406  14.061  0.00  0.00    -0.426 N 
HETATM   11  H   UNK N   1      37.140  12.477  13.734  0.00  0.00     0.150 HD
HETATM   12  H   UNK N   1      36.628  14.133  13.390  0.00  0.00     0.150 HD
ENDBRANCH   8  10
ENDBRANCH   7   8
ENDBRANCH   1   7
BRANCH   2  13
HETATM   13  O   UNK N   1      35.032  10.778  14.703  0.00  0.00    -0.355 OA
HETATM   14  C   UNK N   1      33.903  10.655  13.928  0.00  0.00     0.210 C 
ENDBRANCH   2  13
BRANCH   4  15
HETATM   15  O   UNK N   1      35.153  11.073  20.231  0.00  0.00    -0.356 OA
HETATM   16  C   UNK N   1      34.744  10.048  21.053  0.00  0.00     0.210 C 
ENDBRANCH   4  15
TORSDOF 5
ENDMDL
MODEL 9
REMARK VINA RESULT:      -4.4     11.990     13.413
REMARK  5 active torsions:
REMARK  status: ('A' for Active; 'I' for Inactive)
REMARK    1  A    between atoms: O_1  and  C_7 
REMARK    2  A    between atoms: O_2  and  C_10 
REMARK    3  A    between atoms: N_3  and  C_5 
REMARK    4  A    between atoms: C_4  and  C_5 
REMARK    5  A    between atoms: C_4  and  C_6 
ROOT
HETATM    1  C   UNK N   1      28.454  18.522   6.897  0.00  0.00    -0.020 A 
HETATM    2  C   UNK N   1      28.658  18.188   5.524  0.00  0.00     0.074 A 
HETATM    3  C   UNK N   1      27.756  19.695   7.218  0.00  0.00     0.046 A 
HETATM    4  C   UNK N   1      27.246  20.532   6.228  0.00  0.00     0.068 A 
HETATM    5  C   UNK N   1      28.148  19.045   4.539  0.00  0.00     0.040 A 
HETATM    6  C   UNK N   1      27.449  20.202   4.881  0.00  0.00     0.039 A 
ENDROOT
BRANCH   1   7
HETATM    7  C   UNK N   1      28.984  17.683   8.030  0.00  0.00     0.065 C 
BRANCH   7   8
HETATM    8  C   UNK N   1      30.079  18.378   8.836  0.00  0.00     0.074 C 
HETATM    9  C   UNK N   1      31.439  17.815   8.462  0.00  0.00     0.032 C 
BRANCH   8  10
HETATM   10  N   UNK N   1      29.855  18.143  10.251  0.00  0.00    -0.426 N 
HETATM   11  H   UNK N   1      30.286  17.339  10.708  0.00  0.00     0.150 HD
HETATM   12  H   UNK N   1      29.267  18.781  10.787  0.00  0.00     0.150 HD
ENDBRANCH   8  10
ENDBRANCH   7   8
ENDBRANCH   1   7
BRANCH   2  13
HETATM   13  O   UNK N   1      29.330  17.087   5.091  0.00  0.00    -0.355 OA
HETATM   14  C   UNK N   1      30.635  17.040   4.662  0.00  0.00     0.210 C 
ENDBRANCH   2  13
BRANCH   4  15
HETATM   15  O   UNK N   1      26.567  21.644   6.595  0.00  0.00    -0.356 OA
HETATM   16  C   UNK N   1      25.845  21.737   7.763  0.00  0.00     0.210 C 
ENDBRANCH   4  15
TORSDOF 5
ENDMDL
