MODEL 1
REMARK VINA RESULT:      -5.1      0.000      0.000
REMARK  6 active torsions:
REMARK  status: ('A' for Active; 'I' for Inactive)
REMARK    1  A    between atoms: O_1  and  C_8 
REMARK    2  A    between atoms: O_2  and  C_10 
REMARK    3  A    between atoms: N_3  and  C_6 
REMARK    4  A    between atoms: C_4  and  C_5 
REMARK    5  A    between atoms: C_4  and  C_6 
REMARK    6  A    between atoms: C_7  and  C_12 
ROOT
HETATM    1  C   UNK N   1      32.291  17.311   5.723  0.00  0.00    -0.020 A 
HETATM    2  C   UNK N   1      30.767  17.272   8.112  0.00  0.00    -0.022 A 
HETATM    3  C   UNK N   1      32.901  17.656   6.962  0.00  0.00     0.075 A 
HETATM    4  C   UNK N   1      30.935  16.962   5.714  0.00  0.00     0.047 A 
HETATM    5  C   UNK N   1      30.159  16.931   6.872  0.00  0.00     0.075 A 
HETATM    6  C   UNK N   1      32.123  17.629   8.124  0.00  0.00     0.047 A 
ENDROOT
BRANCH   1   7
HETATM    7  C   UNK N   1      33.072  17.272   4.427  0.00  0.00     0.065 C 
BRANCH   7   8
HETATM    8  C   UNK N   1      32.546  16.354   3.320  0.00  0.00     0.074 C 
HETATM    9  C   UNK N   1      33.641  15.494   2.713  0.00  0.00     0.032 C 
BRANCH   8  10
HETATM   10  N   UNK N   1      31.972  17.173   2.268  0.00  0.00    -0.426 N 
HETATM   11  H   UNK N   1      32.401  17.189   1.342  0.00  0.00     0.150 HD
HETATM   12  H   UNK N   1      31.141  17.734   2.455  0.00  0.00     0.150 HD
ENDBRANCH   8  10
ENDBRANCH   7   8
ENDBRANCH   1   7
BRANCH   3  13
HETATM   13  O   UNK N   1      34.205  18.017   7.105  0.00  0.00    -0.355 OA
HETATM   14  C   UNK N   1      34.800  18.514   8.241  0.00  0.00     0.210 C 
ENDBRANCH   3  13
BRANCH   5  15
HETATM   15  O   UNK N   1      28.857  16.563   6.725  0.00  0.00    -0.355 OA
HETATM   16  C   UNK N   1      27.807  17.374   6.362  0.00  0.00     0.210 C 
ENDBRANCH   5  15
BRANCH   2  17
HETATM   17  C   UNK N   1      29.993  17.255   9.409  0.00  0.00     0.037 C 
HETATM   18  C   UNK N   1      29.487  18.616   9.871  0.00  0.00     0.010 C 
ENDBRANCH   2  17
TORSDOF 6
ENDMDL
MODEL 2
REMARK VINA RESULT:      -5.0      2.396      5.922
REMARK  6 active torsions:
REMARK  status: ('A' for Active; 'I' for Inactive)
REMARK    1  A    between atoms: O_1  and  C_8 
REMARK    2  A    between atoms: O_2  and  C_10 
REMARK    3  A    between atoms: N_3  and  C_6 
REMARK    4  A    between atoms: C_4  and  C_5 
REMARK    5  A    between atoms: C_4  and  C_6 
REMARK    6  A    between atoms: C_7  and  C_12 
ROOT
HETATM    1  C   UNK N   1      30.071  17.266   6.676  0.00  0.00    -0.020 A 
HETATM    2  C   UNK N   1      31.961  17.189   4.567  0.00  0.00    -0.022 A 
HETATM    3  C   UNK N   1      29.631  17.319   5.323  0.00  0.00     0.075 A 
HETATM    4  C   UNK N   1      31.445  17.181   6.934  0.00  0.00     0.047 A 
HETATM    5  C   UNK N   1      32.399  17.139   5.919  0.00  0.00     0.075 A 
HETATM    6  C   UNK N   1      30.587  17.280   4.303  0.00  0.00     0.047 A 
ENDROOT
BRANCH   1   7
HETATM    7  C   UNK N   1      29.099  17.258   7.837  0.00  0.00     0.065 C 
BRANCH   7   8
HETATM    8  C   UNK N   1      28.878  18.583   8.573  0.00  0.00     0.074 C 
HETATM    9  C   UNK N   1      29.714  18.688   9.837  0.00  0.00     0.032 C 
BRANCH   8  10
HETATM   10  N   UNK N   1      27.478  18.682   8.942  0.00  0.00    -0.426 N 
HETATM   11  H   UNK N   1      27.153  18.290   9.826  0.00  0.00     0.150 HD
HETATM   12  H   UNK N   1      26.818  19.144   8.317  0.00  0.00     0.150 HD
ENDBRANCH   8  10
ENDBRANCH   7   8
ENDBRANCH   1   7
BRANCH   3  13
HETATM   13  O   UNK N   1      28.328  17.406   4.940  0.00  0.00    -0.355 OA
HETATM   14  C   UNK N   1      27.632  18.556   4.647  0.00  0.00     0.210 C 
ENDBRANCH   3  13
BRANCH   5  15
HETATM   15  O   UNK N   1      33.700  17.045   6.307  0.00  0.00    -0.355 OA
HETATM   16  C   UNK N   1      34.274  17.621   7.416  0.00  0.00     0.210 C 
ENDBRANCH   5  15
BRANCH   2  17
HETATM   17  C   UNK N   1      32.934  17.141   3.413  0.00  0.00     0.037 C 
HETATM   18  C   UNK N   1      33.338  15.740   2.972  0.00  0.00     0.010 C 
ENDBRANCH   2  17
TORSDOF 6
ENDMDL
MODEL 3
REMARK VINA RESULT:      -5.0      2.781      4.292
REMARK  6 active torsions:
REMARK  status: ('A' for Active; 'I' for Inactive)
REMARK    1  A    between atoms: O_1  and  C_8 
REMARK    2  A    between atoms: O_2  and  C_10 
REMARK    3  A    between atoms: N_3  and  C_6 
REMARK    4  A    between atoms: C_4  and  C_5 
REMARK    5  A    between atoms: C_4  and  C_6 
REMARK    6  A    between atoms: C_7  and  C_12 
ROOT
HETATM    1  C   UNK N   1      33.107  17.577   7.814  0.00  0.00    -0.020 A 
HETATM    2  C   UNK N   1      30.695  17.193   6.376  0.00  0.00    -0.022 A 
HETATM    3  C   UNK N   1      33.144  17.082   6.480  0.00  0.00     0.075 A 
HETATM    4  C   UNK N   1      31.863  17.861   8.392  0.00  0.00     0.047 A 
HETATM    5  C   UNK N   1      30.659  17.684   7.711  0.00  0.00     0.075 A 
HETATM    6  C   UNK N   1      31.938  16.901   5.796  0.00  0.00     0.047 A 
ENDROOT
BRANCH   1   7
HETATM    7  C   UNK N   1      34.368  17.843   8.607  0.00  0.00     0.065 C 
BRANCH   7   8
HETATM    8  C   UNK N   1      34.948  16.675   9.411  0.00  0.00     0.074 C 
HETATM    9  C   UNK N   1      34.040  15.457   9.398  0.00  0.00     0.032 C 
BRANCH   8  10
HETATM   10  N   UNK N   1      35.126  17.098  10.787  0.00  0.00    -0.426 N 
HETATM   11  H   UNK N   1      34.557  17.856  11.166  0.00  0.00     0.150 HD
HETATM   12  H   UNK N   1      35.821  16.640  11.376  0.00  0.00     0.150 HD
ENDBRANCH   8  10
ENDBRANCH   7   8
ENDBRANCH   1   7
BRANCH   3  13
HETATM   13  O   UNK N   1      34.284  16.765   5.807  0.00  0.00    -0.355 OA
HETATM   14  C   UNK N   1      34.846  15.516   5.686  0.00  0.00     0.210 C 
ENDBRANCH   3  13
BRANCH   5  15
HETATM   15  O   UNK N   1      29.522  18.009   8.385  0.00  0.00    -0.355 OA
HETATM   16  C   UNK N   1      29.430  18.430   9.690  0.00  0.00     0.210 C 
ENDBRANCH   5  15
BRANCH   2  17
HETATM   17  C   UNK N   1      29.434  16.982   5.572  0.00  0.00     0.037 C 
HETATM   18  C   UNK N   1      28.926  18.219   4.841  0.00  0.00     0.010 C 
ENDBRANCH   2  17
TORSDOF 6
ENDMDL
MODEL 4
REMARK VINA RESULT:      -4.9      2.198      4.618
REMARK  6 active torsions:
REMARK  status: ('A' for Active; 'I' for Inactive)
REMARK    1  A    between atoms: O_1  and  C_8 
REMARK    2  A    between atoms: O_2  and  C_10 
REMARK    3  A    between atoms: N_3  and  C_6 
REMARK    4  A    between atoms: C_4  and  C_5 
REMARK    5  A    between atoms: C_4  and  C_6 
REMARK    6  A    between atoms: C_7  and  C_12 
ROOT
HETATM    1  C   UNK N   1      29.734  17.204   6.426  0.00  0.00    -0.020 A 
HETATM    2  C   UNK N   1      32.541  17.432   6.743  0.00  0.00    -0.022 A 
HETATM    3  C   UNK N   1      30.288  17.434   7.717  0.00  0.00     0.075 A 
HETATM    4  C   UNK N   1      30.600  17.089   5.332  0.00  0.00     0.047 A 
HETATM    5  C   UNK N   1      31.985  17.198   5.454  0.00  0.00     0.075 A 
HETATM    6  C   UNK N   1      31.677  17.541   7.842  0.00  0.00     0.047 A 
ENDROOT
BRANCH   1   7
HETATM    7  C   UNK N   1      28.240  17.121   6.197  0.00  0.00     0.065 C 
BRANCH   7   8
HETATM    8  C   UNK N   1      27.497  18.435   5.939  0.00  0.00     0.074 C 
HETATM    9  C   UNK N   1      28.191  19.297   4.897  0.00  0.00     0.032 C 
BRANCH   8  10
HETATM   10  N   UNK N   1      27.429  19.184   7.180  0.00  0.00    -0.426 N 
HETATM   11  H   UNK N   1      26.740  18.935   7.890  0.00  0.00     0.150 HD
HETATM   12  H   UNK N   1      28.070  19.961   7.342  0.00  0.00     0.150 HD
ENDBRANCH   8  10
ENDBRANCH   7   8
ENDBRANCH   1   7
BRANCH   3  13
HETATM   13  O   UNK N   1      29.558  17.561   8.858  0.00  0.00    -0.355 OA
HETATM   14  C   UNK N   1      29.708  18.524   9.828  0.00  0.00     0.210 C 
ENDBRANCH   3  13
BRANCH   5  15
HETATM   15  O   UNK N   1      32.711  17.078   4.310  0.00  0.00    -0.355 OA
HETATM   16  C   UNK N   1      32.220  16.926   3.034  0.00  0.00     0.210 C 
ENDBRANCH   5  15
BRANCH   2  17
HETATM   17  C   UNK N   1      34.030  17.568   6.954  0.00  0.00     0.037 C 
HETATM   18  C   UNK N   1      34.432  18.318   8.218  0.00  0.00     0.010 C 
ENDBRANCH   2  17
TORSDOF 6
ENDMDL
MODEL 5
REMARK VINA RESULT:      -4.9      3.528      5.856
REMARK  6 active torsions:
REMARK  status: ('A' for Active; 'I' for Inactive)
REMARK    1  A    between atoms: O_1  and  C_8 
REMARK    2  A    between atoms: O_2  and  C_10 
REMARK    3  A    between atoms: N_3  and  C_6 
REMARK    4  A    between atoms: C_4  and  C_5 
REMARK    5  A    between atoms: C_4  and  C_6 
REMARK    6  A    between atoms: C_7  and  C_12 
ROOT
HETATM    1  C   UNK N   1      28.582  18.232   6.758  0.00  0.00    -0.020 A 
HETATM    2  C   UNK N   1      27.392  19.679   4.631  0.00  0.00    -0.022 A 
HETATM    3  C   UNK N   1      28.663  17.736   5.426  0.00  0.00     0.075 A 
HETATM    4  C   UNK N   1      27.902  19.435   6.988  0.00  0.00     0.047 A 
HETATM    5  C   UNK N   1      27.308  20.171   5.963  0.00  0.00     0.075 A 
HETATM    6  C   UNK N   1      28.065  18.471   4.397  0.00  0.00     0.047 A 
ENDROOT
BRANCH   1   7
HETATM    7  C   UNK N   1      29.239  17.522   7.921  0.00  0.00     0.065 C 
BRANCH   7   8
HETATM    8  C   UNK N   1      30.208  18.338   8.783  0.00  0.00     0.074 C 
HETATM    9  C   UNK N   1      31.655  17.925   8.575  0.00  0.00     0.032 C 
BRANCH   8  10
HETATM   10  N   UNK N   1      29.871  18.136  10.180  0.00  0.00    -0.426 N 
HETATM   11  H   UNK N   1      30.549  17.707  10.812  0.00  0.00     0.150 HD
HETATM   12  H   UNK N   1      28.957  18.421  10.531  0.00  0.00     0.150 HD
ENDBRANCH   8  10
ENDBRANCH   7   8
ENDBRANCH   1   7
BRANCH   3  13
HETATM   13  O   UNK N   1      29.289  16.582   5.071  0.00  0.00    -0.355 OA
HETATM   14  C   UNK N   1      30.490  16.467   4.411  0.00  0.00     0.210 C 
ENDBRANCH   3  13
BRANCH   5  15
HETATM   15  O   UNK N   1      26.689  21.329   6.322  0.00  0.00    -0.355 OA
HETATM   16  C   UNK N   1      26.039  21.583   7.506  0.00  0.00     0.210 C 
ENDBRANCH   5  15
BRANCH   2  17
HETATM   17  C   UNK N   1      26.780  20.423   3.468  0.00  0.00     0.037 C 
HETATM   18  C   UNK N   1      25.334  20.054   3.161  0.00  0.00     0.010 C 
ENDBRANCH   2  17
TORSDOF 6
ENDMDL
MODEL 6
REMARK VINA RESULT:      -4.8      9.207     10.771
REMARK  6 active torsions:
REMARK  status: ('A' for Active; 'I' for Inactive)
REMARK    1  A    between atoms: O_1  and  C_8 
REMARK    2  A    between atoms: O_2  and  C_10 
REMARK    3  A    between atoms: N_3  and  C_6 
REMARK    4  A    between atoms: C_4  and  C_5 
REMARK    5  A    between atoms: C_4  and  C_6 
REMARK    6  A    between atoms: C_7  and  C_12 
ROOT
HETATM    1  C   UNK N   1      35.695  13.085  13.510  0.00  0.00    -0.020 A 
HETATM    2  C   UNK N   1      35.357  13.040  16.323  0.00  0.00    -0.022 A 
HETATM    3  C   UNK N   1      34.784  12.165  14.103  0.00  0.00     0.075 A 
HETATM    4  C   UNK N   1      36.414  13.951  14.342  0.00  0.00     0.047 A 
HETATM    5  C   UNK N   1      36.269  13.955  15.729  0.00  0.00     0.075 A 
HETATM    6  C   UNK N   1      34.639  12.166  15.494  0.00  0.00     0.047 A 
ENDROOT
BRANCH   1   7
HETATM    7  C   UNK N   1      35.878  13.179  12.011  0.00  0.00     0.065 C 
BRANCH   7   8
HETATM    8  C   UNK N   1      37.089  12.461  11.407  0.00  0.00     0.074 C 
HETATM    9  C   UNK N   1      37.644  11.388  12.329  0.00  0.00     0.032 C 
BRANCH   8  10
HETATM   10  N   UNK N   1      38.134  13.437  11.159  0.00  0.00    -0.426 N 
HETATM   11  H   UNK N   1      38.875  13.233  10.488  0.00  0.00     0.150 HD
HETATM   12  H   UNK N   1      38.129  14.327  11.657  0.00  0.00     0.150 HD
ENDBRANCH   8  10
ENDBRANCH   7   8
ENDBRANCH   1   7
BRANCH   3  13
HETATM   13  O   UNK N   1      34.030  11.270  13.409  0.00  0.00    -0.355 OA
HETATM   14  C   UNK N   1      34.335   9.951  13.168  0.00  0.00     0.210 C 
ENDBRANCH   3  13
BRANCH   5  15
HETATM   15  O   UNK N   1      37.020  14.856  16.419  0.00  0.00    -0.355 OA
HETATM   16  C   UNK N   1      37.515  16.049  15.949  0.00  0.00     0.210 C 
ENDBRANCH   5  15
BRANCH   2  17
HETATM   17  C   UNK N   1      35.140  12.990  17.817  0.00  0.00     0.037 C 
HETATM   18  C   UNK N   1      35.334  11.616  18.447  0.00  0.00     0.010 C 
ENDBRANCH   2  17
TORSDOF 6
ENDMDL
MODEL 7
REMARK VINA RESULT:      -4.8      7.262     10.365
REMARK  6 active torsions:
REMARK  status: ('A' for Active; 'I' for Inactive)
REMARK    1  A    between atoms: O_1  and  C_8 
REMARK    2  A    between atoms: O_2  and  C_10 
REMARK    3  A    between atoms: N_3  and  C_6 
REMARK    4  A    between atoms: C_4  and  C_5 
REMARK    5  A    between atoms: C_4  and  C_6 
REMARK    6  A    between atoms: C_7  and  C_12 
ROOT
HETATM    1  C   UNK N   1      22.169  19.007   3.689  0.00  0.00    -0.020 A 
HETATM    2  C   UNK N   1      24.895  19.763   3.526  0.00  0.00    -0.022 A 
HETATM    3  C   UNK N   1      22.532  20.227   3.051  0.00  0.00     0.075 A 
HETATM    4  C   UNK N   1      23.179  18.204   4.232  0.00  0.00     0.047 A 
HETATM    5  C   UNK N   1      24.529  18.547   4.167  0.00  0.00     0.075 A 
HETATM    6  C   UNK N   1      23.885  20.574   2.987  0.00  0.00     0.047 A 
ENDROOT
BRANCH   1   7
HETATM    7  C   UNK N   1      20.732  18.537   3.762  0.00  0.00     0.065 C 
BRANCH   7   8
HETATM    8  C   UNK N   1      20.409  17.175   3.137  0.00  0.00     0.074 C 
HETATM    9  C   UNK N   1      20.134  17.274   1.646  0.00  0.00     0.032 C 
BRANCH   8  10
HETATM   10  N   UNK N   1      19.229  16.634   3.785  0.00  0.00    -0.426 N 
HETATM   11  H   UNK N   1      19.325  15.929   4.517  0.00  0.00     0.150 HD
HETATM   12  H   UNK N   1      18.302  16.957   3.508  0.00  0.00     0.150 HD
ENDBRANCH   8  10
ENDBRANCH   7   8
ENDBRANCH   1   7
BRANCH   3  13
HETATM   13  O   UNK N   1      21.649  21.096   2.489  0.00  0.00    -0.355 OA
HETATM   14  C   UNK N   1      20.947  20.914   1.320  0.00  0.00     0.210 C 
ENDBRANCH   3  13
BRANCH   5  15
HETATM   15  O   UNK N   1      25.410  17.672   4.724  0.00  0.00    -0.355 OA
HETATM   16  C   UNK N   1      25.120  16.439   5.259  0.00  0.00     0.210 C 
ENDBRANCH   5  15
BRANCH   2  17
HETATM   17  C   UNK N   1      26.336  20.199   3.410  0.00  0.00     0.037 C 
HETATM   18  C   UNK N   1      26.963  20.694   4.708  0.00  0.00     0.010 C 
ENDBRANCH   2  17
TORSDOF 6
ENDMDL
MODEL 8
REMARK VINA RESULT:      -4.8      9.266     11.242
REMARK  6 active torsions:
REMARK  status: ('A' for Active; 'I' for Inactive)
REMARK    1  A    between atoms: O_1  and  C_8 
REMARK    2  A    between atoms: O_2  and  C_10 
REMARK    3  A    between atoms: N_3  and  C_6 
REMARK    4  A    between atoms: C_4  and  C_5 
REMARK    5  A    between atoms: C_4  and  C_6 
REMARK    6  A    between atoms: C_7  and  C_12 
ROOT
HETATM    1  C   UNK N   1      21.610  13.742   8.885  0.00  0.00    -0.020 A 
HETATM    2  C   UNK N   1      21.418  16.129   7.371  0.00  0.00    -0.022 A 
HETATM    3  C   UNK N   1      22.403  13.909   7.715  0.00  0.00     0.075 A 
HETATM    4  C   UNK N   1      20.739  14.773   9.261  0.00  0.00     0.047 A 
HETATM    5  C   UNK N   1      20.623  15.960   8.538  0.00  0.00     0.075 A 
HETATM    6  C   UNK N   1      22.286  15.097   6.987  0.00  0.00     0.047 A 
ENDROOT
BRANCH   1   7
HETATM    7  C   UNK N   1      21.709  12.506   9.753  0.00  0.00     0.065 C 
BRANCH   7   8
HETATM    8  C   UNK N   1      22.640  12.577  10.968  0.00  0.00     0.074 C 
HETATM    9  C   UNK N   1      24.054  12.129  10.639  0.00  0.00     0.032 C 
BRANCH   8  10
HETATM   10  N   UNK N   1      22.117  11.711  12.008  0.00  0.00    -0.426 N 
HETATM   11  H   UNK N   1      21.310  12.006  12.560  0.00  0.00     0.150 HD
HETATM   12  H   UNK N   1      22.555  10.808  12.188  0.00  0.00     0.150 HD
ENDBRANCH   8  10
ENDBRANCH   7   8
ENDBRANCH   1   7
BRANCH   3  13
HETATM   13  O   UNK N   1      23.282  12.984   7.242  0.00  0.00    -0.355 OA
HETATM   14  C   UNK N   1      24.645  13.128   7.129  0.00  0.00     0.210 C 
ENDBRANCH   3  13
BRANCH   5  15
HETATM   15  O   UNK N   1      19.748  16.884   9.019  0.00  0.00    -0.355 OA
HETATM   16  C   UNK N   1      18.381  16.882   8.870  0.00  0.00     0.210 C 
ENDBRANCH   5  15
BRANCH   2  17
HETATM   17  C   UNK N   1      21.352  17.389   6.540  0.00  0.00     0.037 C 
HETATM   18  C   UNK N   1      22.551  17.618   5.628  0.00  0.00     0.010 C 
ENDBRANCH   2  17
TORSDOF 6
ENDMDL
MODEL 9
REMARK VINA RESULT:      -4.7     11.045     12.506
REMARK  6 active torsions:
REMARK  status: ('A' for Active; 'I' for Inactive)
REMARK    1  A    between atoms: O_1  and  C_8 
REMARK    2  A    between atoms: O_2  and  C_10 
REMARK    3  A    between atoms: N_3  and  C_6 
REMARK    4  A    between atoms: C_4  and  C_5 
REMARK    5  A    between atoms: C_4  and  C_6 
REMARK    6  A    between atoms: C_7  and  C_12 
ROOT
HETATM    1  C   UNK N   1      34.958  10.965  16.102  0.00  0.00    -0.020 A 
HETATM    2  C   UNK N   1      35.152  13.342  17.632  0.00  0.00    -0.022 A 
HETATM    3  C   UNK N   1      34.773  12.230  15.478  0.00  0.00     0.075 A 
HETATM    4  C   UNK N   1      35.229  10.925  17.476  0.00  0.00     0.047 A 
HETATM    5  C   UNK N   1      35.332  12.076  18.255  0.00  0.00     0.075 A 
HETATM    6  C   UNK N   1      34.873  13.386  16.258  0.00  0.00     0.047 A 
ENDROOT
BRANCH   1   7
HETATM    7  C   UNK N   1      34.910   9.669  15.321  0.00  0.00     0.065 C 
BRANCH   7   8
HETATM    8  C   UNK N   1      36.133   9.322  14.466  0.00  0.00     0.074 C 
HETATM    9  C   UNK N   1      37.395  10.011  14.956  0.00  0.00     0.032 C 
BRANCH   8  10
HETATM   10  N   UNK N   1      35.882   9.744  13.101  0.00  0.00    -0.426 N 
HETATM   11  H   UNK N   1      35.859  10.738  12.869  0.00  0.00     0.150 HD
HETATM   12  H   UNK N   1      35.726   9.048  12.372  0.00  0.00     0.150 HD
ENDBRANCH   8  10
ENDBRANCH   7   8
ENDBRANCH   1   7
BRANCH   3  13
HETATM   13  O   UNK N   1      34.501  12.405  14.156  0.00  0.00    -0.355 OA
HETATM   14  C   UNK N   1      35.166  13.234  13.283  0.00  0.00     0.210 C 
ENDBRANCH   3  13
BRANCH   5  15
HETATM   15  O   UNK N   1      35.611  11.898  19.575  0.00  0.00    -0.355 OA
HETATM   16  C   UNK N   1      35.833  10.702  20.216  0.00  0.00     0.210 C 
ENDBRANCH   5  15
BRANCH   2  17
HETATM   17  C   UNK N   1      35.255  14.633  18.409  0.00  0.00     0.037 C 
HETATM   18  C   UNK N   1      36.302  15.611  17.890  0.00  0.00     0.010 C 
ENDBRANCH   2  17
TORSDOF 6
ENDMDL
