MODEL 1
REMARK VINA RESULT:      -5.1      0.000      0.000
REMARK  5 active torsions:
REMARK  status: ('A' for Active; 'I' for Inactive)
REMARK    1  A    between atoms: N_3  and  C_4 
REMARK    2  A    between atoms: N_3  and  C_6 
REMARK    3  A    between atoms: C_4  and  C_5 
REMARK    4  A    between atoms: C_8  and  C_11 
REMARK    5  A    between atoms: C_8  and  C_12 
ROOT
HETATM    1  C   UNK N   1      32.496  15.995   8.170  0.00  0.00     0.022 C 
HETATM    2  C   UNK N   1      31.686  16.647   7.310  0.00  0.00    -0.004 C 
ENDROOT
BRANCH   2   3
HETATM    3  C   UNK N   1      31.908  16.651   5.820  0.00  0.00     0.016 A 
HETATM    4  S   UNK N   1      31.216  15.631   4.710  0.00  0.00    -0.101 SA
HETATM    5  C   UNK N   1      31.906  16.190   3.310  0.00  0.00     0.050 A 
HETATM    6  C   UNK N   1      32.735  17.249   3.693  0.00  0.00     0.008 A 
HETATM    7  C   UNK N   1      32.739  17.510   5.094  0.00  0.00     0.020 A 
ENDBRANCH   2   3
BRANCH   2   8
HETATM    8  C   UNK N   1      30.542  17.393   7.911  0.00  0.00     0.016 A 
HETATM    9  S   UNK N   1      28.964  17.325   7.392  0.00  0.00    -0.101 SA
HETATM   10  C   UNK N   1      28.246  18.336   8.492  0.00  0.00     0.050 A 
HETATM   11  C   UNK N   1      29.274  18.775   9.337  0.00  0.00     0.008 A 
HETATM   12  C   UNK N   1      30.556  18.246   9.014  0.00  0.00     0.020 A 
ENDBRANCH   2   8
BRANCH   1  13
HETATM   13  C   UNK N   1      33.714  15.150   7.871  0.00  0.00     0.242 C 
HETATM   14  C   UNK N   1      33.517  13.772   8.499  0.00  0.00     0.047 C 
BRANCH  13  15
HETATM   15  N   UNK N   1      34.923  15.768   8.441  0.00  0.00     0.091 N 
HETATM   16  C   UNK N   1      35.726  14.769   9.140  0.00  0.00     0.310 C 
BRANCH  15  17
HETATM   17  C   UNK N   1      34.520  16.746   9.446  0.00  0.00     0.268 C 
HETATM   18  C   UNK N   1      35.339  16.562  10.711  0.00  0.00     0.037 C 
ENDBRANCH  15  17
ENDBRANCH  13  15
ENDBRANCH   1  13
TORSDOF 5
ENDMDL
MODEL 2
REMARK VINA RESULT:      -5.1      2.065      3.984
REMARK  5 active torsions:
REMARK  status: ('A' for Active; 'I' for Inactive)
REMARK    1  A    between atoms: N_3  and  C_4 
REMARK    2  A    between atoms: N_3  and  C_6 
REMARK    3  A    between atoms: C_4  and  C_5 
REMARK    4  A    between atoms: C_8  and  C_11 
REMARK    5  A    between atoms: C_8  and  C_12 
ROOT
HETATM    1  C   UNK N   1      31.453  16.856   5.779  0.00  0.00     0.022 C 
HETATM    2  C   UNK N   1      31.515  17.178   7.088  0.00  0.00    -0.004 C 
ENDROOT
BRANCH   2   3
HETATM    3  C   UNK N   1      32.812  17.244   7.853  0.00  0.00     0.016 A 
HETATM    4  S   UNK N   1      33.405  16.108   8.906  0.00  0.00    -0.101 SA
HETATM    5  C   UNK N   1      34.824  16.829   9.367  0.00  0.00     0.050 A 
HETATM    6  C   UNK N   1      34.878  18.040   8.669  0.00  0.00     0.008 A 
HETATM    7  C   UNK N   1      33.756  18.275   7.821  0.00  0.00     0.020 A 
ENDBRANCH   2   3
BRANCH   2   8
HETATM    8  C   UNK N   1      30.216  17.459   7.766  0.00  0.00     0.016 A 
HETATM    9  S   UNK N   1      28.712  17.090   7.162  0.00  0.00    -0.101 SA
HETATM   10  C   UNK N   1      27.755  17.630   8.403  0.00  0.00     0.050 A 
HETATM   11  C   UNK N   1      28.632  18.137   9.371  0.00  0.00     0.008 A 
HETATM   12  C   UNK N   1      30.007  18.039   9.016  0.00  0.00     0.020 A 
ENDBRANCH   2   8
BRANCH   1  13
HETATM   13  C   UNK N   1      32.583  16.534   4.826  0.00  0.00     0.242 C 
HETATM   14  C   UNK N   1      32.366  17.317   3.533  0.00  0.00     0.047 C 
BRANCH  13  15
HETATM   15  N   UNK N   1      32.603  15.095   4.517  0.00  0.00     0.091 N 
HETATM   16  C   UNK N   1      31.298  14.496   4.785  0.00  0.00     0.310 C 
BRANCH  15  17
HETATM   17  C   UNK N   1      33.548  14.436   5.412  0.00  0.00     0.268 C 
HETATM   18  C   UNK N   1      34.848  15.218   5.469  0.00  0.00     0.037 C 
ENDBRANCH  15  17
ENDBRANCH  13  15
ENDBRANCH   1  13
TORSDOF 5
ENDMDL
MODEL 3
REMARK VINA RESULT:      -5.0      3.517      5.633
REMARK  5 active torsions:
REMARK  status: ('A' for Active; 'I' for Inactive)
REMARK    1  A    between atoms: N_3  and  C_4 
REMARK    2  A    between atoms: N_3  and  C_6 
REMARK    3  A    between atoms: C_4  and  C_5 
REMARK    4  A    between atoms: C_8  and  C_11 
REMARK    5  A    between atoms: C_8  and  C_12 
ROOT
HETATM    1  C   UNK N   1      29.983  16.835   4.374  0.00  0.00     0.022 C 
HETATM    2  C   UNK N   1      28.717  17.297   4.317  0.00  0.00    -0.004 C 
ENDROOT
BRANCH   2   3
HETATM    3  C   UNK N   1      28.259  18.521   5.066  0.00  0.00     0.016 A 
HETATM    4  S   UNK N   1      27.892  18.619   6.681  0.00  0.00    -0.101 SA
HETATM    5  C   UNK N   1      27.465  20.216   6.802  0.00  0.00     0.050 A 
HETATM    6  C   UNK N   1      27.611  20.746   5.515  0.00  0.00     0.008 A 
HETATM    7  C   UNK N   1      28.055  19.802   4.543  0.00  0.00     0.020 A 
ENDBRANCH   2   3
BRANCH   2   8
HETATM    8  C   UNK N   1      27.763  16.521   3.471  0.00  0.00     0.016 A 
HETATM    9  S   UNK N   1      26.118  16.758   3.404  0.00  0.00    -0.101 SA
HETATM   10  C   UNK N   1      25.701  15.615   2.279  0.00  0.00     0.050 A 
HETATM   11  C   UNK N   1      26.897  14.988   1.907  0.00  0.00     0.008 A 
HETATM   12  C   UNK N   1      28.050  15.497   2.571  0.00  0.00     0.020 A 
ENDBRANCH   2   8
BRANCH   1  13
HETATM   13  C   UNK N   1      31.168  17.402   5.123  0.00  0.00     0.242 C 
HETATM   14  C   UNK N   1      32.299  17.651   4.127  0.00  0.00     0.047 C 
BRANCH  13  15
HETATM   15  N   UNK N   1      31.633  16.452   6.148  0.00  0.00     0.091 N 
HETATM   16  C   UNK N   1      31.115  15.114   5.876  0.00  0.00     0.310 C 
BRANCH  15  17
HETATM   17  C   UNK N   1      31.083  16.849   7.439  0.00  0.00     0.268 C 
HETATM   18  C   UNK N   1      32.086  17.701   8.195  0.00  0.00     0.037 C 
ENDBRANCH  15  17
ENDBRANCH  13  15
ENDBRANCH   1  13
TORSDOF 5
ENDMDL
MODEL 4
REMARK VINA RESULT:      -4.9     13.521     16.489
REMARK  5 active torsions:
REMARK  status: ('A' for Active; 'I' for Inactive)
REMARK    1  A    between atoms: N_3  and  C_4 
REMARK    2  A    between atoms: N_3  and  C_6 
REMARK    3  A    between atoms: C_4  and  C_5 
REMARK    4  A    between atoms: C_8  and  C_11 
REMARK    5  A    between atoms: C_8  and  C_12 
ROOT
HETATM    1  C   UNK N   1      28.188  25.986  -4.919  0.00  0.00     0.022 C 
HETATM    2  C   UNK N   1      28.243  24.641  -5.012  0.00  0.00    -0.004 C 
ENDROOT
BRANCH   2   3
HETATM    3  C   UNK N   1      27.410  23.855  -5.990  0.00  0.00     0.016 A 
HETATM    4  S   UNK N   1      27.902  23.245  -7.451  0.00  0.00    -0.101 SA
HETATM    5  C   UNK N   1      26.502  22.528  -7.972  0.00  0.00     0.050 A 
HETATM    6  C   UNK N   1      25.562  22.753  -6.960  0.00  0.00     0.008 A 
HETATM    7  C   UNK N   1      26.066  23.493  -5.851  0.00  0.00     0.020 A 
ENDBRANCH   2   3
BRANCH   2   8
HETATM    8  C   UNK N   1      29.176  23.948  -4.077  0.00  0.00     0.016 A 
HETATM    9  S   UNK N   1      30.784  23.641  -4.367  0.00  0.00    -0.101 SA
HETATM   10  C   UNK N   1      31.206  22.901  -2.945  0.00  0.00     0.050 A 
HETATM   11  C   UNK N   1      30.041  22.875  -2.167  0.00  0.00     0.008 A 
HETATM   12  C   UNK N   1      28.908  23.463  -2.798  0.00  0.00     0.020 A 
ENDBRANCH   2   8
BRANCH   1  13
HETATM   13  C   UNK N   1      27.361  26.961  -5.728  0.00  0.00     0.242 C 
HETATM   14  C   UNK N   1      28.249  27.575  -6.807  0.00  0.00     0.047 C 
BRANCH  13  15
HETATM   15  N   UNK N   1      26.841  28.035  -4.867  0.00  0.00     0.091 N 
HETATM   16  C   UNK N   1      27.585  28.088  -3.611  0.00  0.00     0.310 C 
BRANCH  15  17
HETATM   17  C   UNK N   1      25.460  27.726  -4.512  0.00  0.00     0.268 C 
HETATM   18  C   UNK N   1      24.744  27.098  -5.694  0.00  0.00     0.037 C 
ENDBRANCH  15  17
ENDBRANCH  13  15
ENDBRANCH   1  13
TORSDOF 5
ENDMDL
MODEL 5
REMARK VINA RESULT:      -4.8     13.264     15.763
REMARK  5 active torsions:
REMARK  status: ('A' for Active; 'I' for Inactive)
REMARK    1  A    between atoms: N_3  and  C_4 
REMARK    2  A    between atoms: N_3  and  C_6 
REMARK    3  A    between atoms: C_4  and  C_5 
REMARK    4  A    between atoms: C_8  and  C_11 
REMARK    5  A    between atoms: C_8  and  C_12 
ROOT
HETATM    1  C   UNK N   1      28.435  24.865  -3.768  0.00  0.00     0.022 C 
HETATM    2  C   UNK N   1      27.554  25.301  -4.691  0.00  0.00    -0.004 C 
ENDROOT
BRANCH   2   3
HETATM    3  C   UNK N   1      27.027  24.423  -5.796  0.00  0.00     0.016 A 
HETATM    4  S   UNK N   1      27.548  24.384  -7.370  0.00  0.00    -0.101 SA
HETATM    5  C   UNK N   1      26.541  23.228  -7.999  0.00  0.00     0.050 A 
HETATM    6  C   UNK N   1      25.730  22.814  -6.936  0.00  0.00     0.008 A 
HETATM    7  C   UNK N   1      25.999  23.479  -5.704  0.00  0.00     0.020 A 
ENDBRANCH   2   3
BRANCH   2   8
HETATM    8  C   UNK N   1      27.122  26.724  -4.578  0.00  0.00     0.016 A 
HETATM    9  S   UNK N   1      26.191  27.358  -3.356  0.00  0.00    -0.101 SA
HETATM   10  C   UNK N   1      26.126  28.946  -3.825  0.00  0.00     0.050 A 
HETATM   11  C   UNK N   1      26.870  29.026  -5.010  0.00  0.00     0.008 A 
HETATM   12  C   UNK N   1      27.430  27.785  -5.429  0.00  0.00     0.020 A 
ENDBRANCH   2   8
BRANCH   1  13
HETATM   13  C   UNK N   1      29.043  23.488  -3.610  0.00  0.00     0.242 C 
HETATM   14  C   UNK N   1      28.913  23.064  -2.148  0.00  0.00     0.047 C 
BRANCH  13  15
HETATM   15  N   UNK N   1      30.468  23.508  -3.978  0.00  0.00     0.091 N 
HETATM   16  C   UNK N   1      31.000  24.866  -3.890  0.00  0.00     0.310 C 
BRANCH  15  17
HETATM   17  C   UNK N   1      30.598  23.107  -5.375  0.00  0.00     0.268 C 
HETATM   18  C   UNK N   1      29.791  21.848  -5.634  0.00  0.00     0.037 C 
ENDBRANCH  15  17
ENDBRANCH  13  15
ENDBRANCH   1  13
TORSDOF 5
ENDMDL
MODEL 6
REMARK VINA RESULT:      -4.8      3.182      4.723
REMARK  5 active torsions:
REMARK  status: ('A' for Active; 'I' for Inactive)
REMARK    1  A    between atoms: N_3  and  C_4 
REMARK    2  A    between atoms: N_3  and  C_6 
REMARK    3  A    between atoms: C_4  and  C_5 
REMARK    4  A    between atoms: C_8  and  C_11 
REMARK    5  A    between atoms: C_8  and  C_12 
ROOT
HETATM    1  C   UNK N   1      30.500  16.394   5.754  0.00  0.00     0.022 C 
HETATM    2  C   UNK N   1      29.174  16.637   5.702  0.00  0.00    -0.004 C 
ENDROOT
BRANCH   2   3
HETATM    3  C   UNK N   1      28.591  18.021   5.818  0.00  0.00     0.016 A 
HETATM    4  S   UNK N   1      28.177  18.812   7.216  0.00  0.00    -0.101 SA
HETATM    5  C   UNK N   1      27.607  20.242   6.601  0.00  0.00     0.050 A 
HETATM    6  C   UNK N   1      27.738  20.136   5.212  0.00  0.00     0.008 A 
HETATM    7  C   UNK N   1      28.287  18.897   4.771  0.00  0.00     0.020 A 
ENDBRANCH   2   3
BRANCH   2   8
HETATM    8  C   UNK N   1      28.287  15.449   5.535  0.00  0.00     0.016 A 
HETATM    9  S   UNK N   1      26.719  15.330   6.075  0.00  0.00    -0.101 SA
HETATM   10  C   UNK N   1      26.336  13.809   5.539  0.00  0.00     0.050 A 
HETATM   11  C   UNK N   1      27.481  13.331   4.890  0.00  0.00     0.008 A 
HETATM   12  C   UNK N   1      28.571  14.249   4.885  0.00  0.00     0.020 A 
ENDBRANCH   2   8
BRANCH   1  13
HETATM   13  C   UNK N   1      31.640  17.377   5.901  0.00  0.00     0.242 C 
HETATM   14  C   UNK N   1      32.496  17.323   4.637  0.00  0.00     0.047 C 
BRANCH  13  15
HETATM   15  N   UNK N   1      32.476  17.027   7.061  0.00  0.00     0.091 N 
HETATM   16  C   UNK N   1      31.956  17.654   8.273  0.00  0.00     0.310 C 
BRANCH  15  17
HETATM   17  C   UNK N   1      33.813  17.576   6.858  0.00  0.00     0.268 C 
HETATM   18  C   UNK N   1      34.276  18.300   8.109  0.00  0.00     0.037 C 
ENDBRANCH  15  17
ENDBRANCH  13  15
ENDBRANCH   1  13
TORSDOF 5
ENDMDL
MODEL 7
REMARK VINA RESULT:      -4.8     13.277     16.416
REMARK  5 active torsions:
REMARK  status: ('A' for Active; 'I' for Inactive)
REMARK    1  A    between atoms: N_3  and  C_4 
REMARK    2  A    between atoms: N_3  and  C_6 
REMARK    3  A    between atoms: C_4  and  C_5 
REMARK    4  A    between atoms: C_8  and  C_11 
REMARK    5  A    between atoms: C_8  and  C_12 
ROOT
HETATM    1  C   UNK N   1      27.686  23.366  -5.920  0.00  0.00     0.022 C 
HETATM    2  C   UNK N   1      28.201  23.992  -4.841  0.00  0.00    -0.004 C 
ENDROOT
BRANCH   2   3
HETATM    3  C   UNK N   1      27.684  25.316  -4.342  0.00  0.00     0.016 A 
HETATM    4  S   UNK N   1      28.416  26.795  -4.508  0.00  0.00    -0.101 SA
HETATM    5  C   UNK N   1      27.322  27.768  -3.732  0.00  0.00     0.050 A 
HETATM    6  C   UNK N   1      26.297  26.917  -3.303  0.00  0.00     0.008 A 
HETATM    7  C   UNK N   1      26.495  25.547  -3.642  0.00  0.00     0.020 A 
ENDBRANCH   2   3
BRANCH   2   8
HETATM    8  C   UNK N   1      29.336  23.309  -4.155  0.00  0.00     0.016 A 
HETATM    9  S   UNK N   1      30.374  22.217  -4.858  0.00  0.00    -0.101 SA
HETATM   10  C   UNK N   1      31.378  21.897  -3.578  0.00  0.00     0.050 A 
HETATM   11  C   UNK N   1      30.904  22.677  -2.515  0.00  0.00     0.008 A 
HETATM   12  C   UNK N   1      29.765  23.468  -2.838  0.00  0.00     0.020 A 
ENDBRANCH   2   8
BRANCH   1  13
HETATM   13  C   UNK N   1      26.538  23.792  -6.808  0.00  0.00     0.242 C 
HETATM   14  C   UNK N   1      25.610  22.596  -7.011  0.00  0.00     0.047 C 
BRANCH  13  15
HETATM   15  N   UNK N   1      27.037  24.239  -8.118  0.00  0.00     0.091 N 
HETATM   16  C   UNK N   1      28.337  23.637  -8.402  0.00  0.00     0.310 C 
BRANCH  15  17
HETATM   17  C   UNK N   1      27.255  25.681  -8.070  0.00  0.00     0.268 C 
HETATM   18  C   UNK N   1      26.027  26.377  -7.512  0.00  0.00     0.037 C 
ENDBRANCH  15  17
ENDBRANCH  13  15
ENDBRANCH   1  13
TORSDOF 5
ENDMDL
MODEL 8
REMARK VINA RESULT:      -4.8      8.147     10.542
REMARK  5 active torsions:
REMARK  status: ('A' for Active; 'I' for Inactive)
REMARK    1  A    between atoms: N_3  and  C_4 
REMARK    2  A    between atoms: N_3  and  C_6 
REMARK    3  A    between atoms: C_4  and  C_5 
REMARK    4  A    between atoms: C_8  and  C_11 
REMARK    5  A    between atoms: C_8  and  C_12 
ROOT
HETATM    1  C   UNK N   1      23.738  17.584   4.974  0.00  0.00     0.022 C 
HETATM    2  C   UNK N   1      22.397  17.472   5.078  0.00  0.00    -0.004 C 
ENDROOT
BRANCH   2   3
HETATM    3  C   UNK N   1      21.447  18.058   4.067  0.00  0.00     0.016 A 
HETATM    4  S   UNK N   1      20.717  17.260   2.810  0.00  0.00    -0.101 SA
HETATM    5  C   UNK N   1      19.844  18.494   2.130  0.00  0.00     0.050 A 
HETATM    6  C   UNK N   1      20.109  19.622   2.913  0.00  0.00     0.008 A 
HETATM    7  C   UNK N   1      21.004  19.382   3.996  0.00  0.00     0.020 A 
ENDBRANCH   2   3
BRANCH   2   8
HETATM    8  C   UNK N   1      21.883  16.737   6.270  0.00  0.00     0.016 A 
HETATM    9  S   UNK N   1      22.427  15.259   6.804  0.00  0.00    -0.101 SA
HETATM   10  C   UNK N   1      21.475  15.060   8.146  0.00  0.00     0.050 A 
HETATM   11  C   UNK N   1      20.667  16.203   8.216  0.00  0.00     0.008 A 
HETATM   12  C   UNK N   1      20.897  17.141   7.169  0.00  0.00     0.020 A 
ENDBRANCH   2   8
BRANCH   1  13
HETATM   13  C   UNK N   1      24.553  18.250   3.888  0.00  0.00     0.242 C 
HETATM   14  C   UNK N   1      25.908  17.551   3.798  0.00  0.00     0.047 C 
BRANCH  13  15
HETATM   15  N   UNK N   1      24.768  19.672   4.203  0.00  0.00     0.091 N 
HETATM   16  C   UNK N   1      24.425  20.507   3.054  0.00  0.00     0.310 C 
BRANCH  15  17
HETATM   17  C   UNK N   1      26.189  19.887   4.455  0.00  0.00     0.268 C 
HETATM   18  C   UNK N   1      26.375  20.793   5.659  0.00  0.00     0.037 C 
ENDBRANCH  15  17
ENDBRANCH  13  15
ENDBRANCH   1  13
TORSDOF 5
ENDMDL
MODEL 9
REMARK VINA RESULT:      -4.8     12.902     16.080
REMARK  5 active torsions:
REMARK  status: ('A' for Active; 'I' for Inactive)
REMARK    1  A    between atoms: N_3  and  C_4 
REMARK    2  A    between atoms: N_3  and  C_6 
REMARK    3  A    between atoms: C_4  and  C_5 
REMARK    4  A    between atoms: C_8  and  C_11 
REMARK    5  A    between atoms: C_8  and  C_12 
ROOT
HETATM    1  C   UNK N   1      27.833  23.864  -5.480  0.00  0.00     0.022 C 
HETATM    2  C   UNK N   1      28.733  22.893  -5.743  0.00  0.00    -0.004 C 
ENDROOT
BRANCH   2   3
HETATM    3  C   UNK N   1      29.950  22.653  -4.888  0.00  0.00     0.016 A 
HETATM    4  S   UNK N   1      31.474  23.257  -5.137  0.00  0.00    -0.101 SA
HETATM    5  C   UNK N   1      32.281  22.593  -3.852  0.00  0.00     0.050 A 
HETATM    6  C   UNK N   1      31.328  21.845  -3.152  0.00  0.00     0.008 A 
HETATM    7  C   UNK N   1      30.025  21.877  -3.727  0.00  0.00     0.020 A 
ENDBRANCH   2   3
BRANCH   2   8
HETATM    8  C   UNK N   1      28.473  22.054  -6.949  0.00  0.00     0.016 A 
HETATM    9  S   UNK N   1      27.323  22.362  -8.110  0.00  0.00    -0.101 SA
HETATM   10  C   UNK N   1      27.598  21.094  -9.142  0.00  0.00     0.050 A 
HETATM   11  C   UNK N   1      28.651  20.361  -8.577  0.00  0.00     0.008 A 
HETATM   12  C   UNK N   1      29.142  20.900  -7.353  0.00  0.00     0.020 A 
ENDBRANCH   2   8
BRANCH   1  13
HETATM   13  C   UNK N   1      27.812  24.855  -4.338  0.00  0.00     0.242 C 
HETATM   14  C   UNK N   1      27.102  24.213  -3.149  0.00  0.00     0.047 C 
BRANCH  13  15
HETATM   15  N   UNK N   1      27.086  26.075  -4.728  0.00  0.00     0.091 N 
HETATM   16  C   UNK N   1      26.493  26.714  -3.556  0.00  0.00     0.310 C 
BRANCH  15  17
HETATM   17  C   UNK N   1      25.975  25.703  -5.597  0.00  0.00     0.268 C 
HETATM   18  C   UNK N   1      24.959  26.830  -5.659  0.00  0.00     0.037 C 
ENDBRANCH  15  17
ENDBRANCH  13  15
ENDBRANCH   1  13
TORSDOF 5
ENDMDL
