MODEL 1
REMARK VINA RESULT:      -7.7      0.000      0.000
REMARK  1 active torsions:
REMARK  status: ('A' for Active; 'I' for Inactive)
REMARK    1  A    between atoms: C_7  and  O_1 
ROOT
HETATM    1  O   UNK N   1      34.344   8.899  22.247  0.00  0.00    -0.293 OA
HETATM    2  C   UNK N   1      35.575  12.511  15.402  0.00  0.00     0.001 C 
HETATM    3  C   UNK N   1      36.159  11.502  14.411  0.00  0.00    -0.009 C 
HETATM    4  C   UNK N   1      35.732  12.040  16.872  0.00  0.00    -0.001 C 
HETATM    5  C   UNK N   1      35.025  10.654  17.015  0.00  0.00     0.003 C 
HETATM    6  C   UNK N   1      36.008  12.263  13.084  0.00  0.00     0.062 C 
HETATM    7  C   UNK N   1      35.223  10.068  18.440  0.00  0.00    -0.016 C 
HETATM    8  C   UNK N   1      35.406  10.176  14.517  0.00  0.00     0.013 C 
HETATM    9  C   UNK N   1      35.513   9.639  15.950  0.00  0.00     0.007 C 
HETATM   10  C   UNK N   1      36.254  13.812  14.978  0.00  0.00     0.009 C 
HETATM   11  C   UNK N   1      35.073  13.021  17.873  0.00  0.00    -0.010 C 
HETATM   12  C   UNK N   1      36.470  13.677  13.456  0.00  0.00     0.038 C 
HETATM   13  C   UNK N   1      35.174  12.534  19.318  0.00  0.00     0.039 C 
HETATM   14  C   UNK N   1      34.826  11.086  19.499  0.00  0.00    -0.067 C 
HETATM   15  C   UNK N   1      37.658  11.242  14.682  0.00  0.00     0.018 C 
HETATM   16  C   UNK N   1      34.354   8.807  18.597  0.00  0.00     0.022 C 
HETATM   17  C   UNK N   1      34.563  12.336  12.597  0.00  0.00     0.046 C 
HETATM   18  C   UNK N   1      36.692   9.697  18.660  0.00  0.00     0.020 C 
HETATM   19  C   UNK N   1      35.688  14.410  17.828  0.00  0.00     0.010 C 
HETATM   20  C   UNK N   1      34.433   8.194  20.000  0.00  0.00     0.084 C 
HETATM   21  C   UNK N   1      34.556  10.676  20.749  0.00  0.00     0.053 C 
HETATM   22  C   UNK N   1      34.423   9.242  21.079  0.00  0.00     0.149 C 
ENDROOT
BRANCH   6  23
HETATM   23  O   UNK N   1      36.797  11.719  12.067  0.00  0.00    -0.389 OA
HETATM   24  H   UNK N   1      37.765  11.655  12.045  0.00  0.00     0.210 HD
ENDBRANCH   6  23
TORSDOF 1
ENDMDL
MODEL 2
REMARK VINA RESULT:      -7.5      1.318      6.221
REMARK  1 active torsions:
REMARK  status: ('A' for Active; 'I' for Inactive)
REMARK    1  A    between atoms: C_7  and  O_1 
ROOT
HETATM    1  O   UNK N   1      34.912  12.803  11.049  0.00  0.00    -0.293 OA
HETATM    2  C   UNK N   1      35.816  10.761  18.561  0.00  0.00     0.001 C 
HETATM    3  C   UNK N   1      35.475   9.277  18.713  0.00  0.00    -0.009 C 
HETATM    4  C   UNK N   1      35.234  11.361  17.254  0.00  0.00    -0.001 C 
HETATM    5  C   UNK N   1      35.798  10.540  16.051  0.00  0.00     0.003 C 
HETATM    6  C   UNK N   1      36.027   8.984  20.117  0.00  0.00     0.062 C 
HETATM    7  C   UNK N   1      35.183  11.020  14.708  0.00  0.00    -0.016 C 
HETATM    8  C   UNK N   1      36.097   8.483  17.565  0.00  0.00     0.013 C 
HETATM    9  C   UNK N   1      35.570   9.017  16.227  0.00  0.00     0.007 C 
HETATM   10  C   UNK N   1      35.350  11.338  19.898  0.00  0.00     0.009 C 
HETATM   11  C   UNK N   1      35.641  12.843  17.059  0.00  0.00    -0.010 C 
HETATM   12  C   UNK N   1      35.557  10.202  20.921  0.00  0.00     0.038 C 
HETATM   13  C   UNK N   1      35.119  13.423  15.746  0.00  0.00     0.039 C 
HETATM   14  C   UNK N   1      35.326  12.527  14.559  0.00  0.00    -0.067 C 
HETATM   15  C   UNK N   1      33.948   9.042  18.706  0.00  0.00     0.018 C 
HETATM   16  C   UNK N   1      35.906  10.325  13.539  0.00  0.00     0.022 C 
HETATM   17  C   UNK N   1      37.553   8.933  20.162  0.00  0.00     0.046 C 
HETATM   18  C   UNK N   1      33.693  10.673  14.654  0.00  0.00     0.020 C 
HETATM   19  C   UNK N   1      35.139  13.744  18.175  0.00  0.00     0.010 C 
HETATM   20  C   UNK N   1      35.410  10.787  12.166  0.00  0.00     0.084 C 
HETATM   21  C   UNK N   1      35.217  13.091  13.345  0.00  0.00     0.053 C 
HETATM   22  C   UNK N   1      35.177  12.272  12.116  0.00  0.00     0.149 C 
ENDROOT
BRANCH   6  23
HETATM   23  O   UNK N   1      35.522   7.794  20.649  0.00  0.00    -0.389 OA
HETATM   24  H   UNK N   1      34.745   7.300  20.347  0.00  0.00     0.210 HD
ENDBRANCH   6  23
TORSDOF 1
ENDMDL
MODEL 3
REMARK VINA RESULT:      -7.3     23.335     26.250
REMARK  1 active torsions:
REMARK  status: ('A' for Active; 'I' for Inactive)
REMARK    1  A    between atoms: C_7  and  O_1 
ROOT
HETATM    1  O   UNK N   1      33.663  19.264  -4.519  0.00  0.00    -0.293 OA
HETATM    2  C   UNK N   1      27.763  24.243  -5.867  0.00  0.00     0.001 C 
HETATM    3  C   UNK N   1      27.543  25.097  -4.617  0.00  0.00    -0.009 C 
HETATM    4  C   UNK N   1      28.561  22.950  -5.556  0.00  0.00    -0.001 C 
HETATM    5  C   UNK N   1      29.929  23.365  -4.925  0.00  0.00     0.003 C 
HETATM    6  C   UNK N   1      26.629  26.204  -5.166  0.00  0.00     0.062 C 
HETATM    7  C   UNK N   1      30.749  22.118  -4.494  0.00  0.00    -0.016 C 
HETATM    8  C   UNK N   1      28.891  25.552  -4.057  0.00  0.00     0.013 C 
HETATM    9  C   UNK N   1      29.748  24.324  -3.722  0.00  0.00     0.007 C 
HETATM   10  C   UNK N   1      26.344  24.107  -6.420  0.00  0.00     0.009 C 
HETATM   11  C   UNK N   1      28.852  22.121  -6.831  0.00  0.00    -0.010 C 
HETATM   12  C   UNK N   1      25.631  25.416  -6.023  0.00  0.00     0.038 C 
HETATM   13  C   UNK N   1      29.687  20.875  -6.540  0.00  0.00     0.039 C 
HETATM   14  C   UNK N   1      30.864  21.127  -5.643  0.00  0.00    -0.067 C 
HETATM   15  C   UNK N   1      26.792  24.313  -3.518  0.00  0.00     0.018 C 
HETATM   16  C   UNK N   1      32.159  22.560  -4.062  0.00  0.00     0.022 C 
HETATM   17  C   UNK N   1      27.364  27.196  -6.064  0.00  0.00     0.046 C 
HETATM   18  C   UNK N   1      30.063  21.413  -3.321  0.00  0.00     0.020 C 
HETATM   19  C   UNK N   1      27.587  21.654  -7.531  0.00  0.00     0.010 C 
HETATM   20  C   UNK N   1      33.066  21.385  -3.681  0.00  0.00     0.084 C 
HETATM   21  C   UNK N   1      31.824  20.188  -5.619  0.00  0.00     0.053 C 
HETATM   22  C   UNK N   1      32.909  20.219  -4.616  0.00  0.00     0.149 C 
ENDROOT
BRANCH   6  23
HETATM   23  O   UNK N   1      25.982  26.912  -4.148  0.00  0.00    -0.389 OA
HETATM   24  H   UNK N   1      25.251  27.541  -4.245  0.00  0.00     0.210 HD
ENDBRANCH   6  23
TORSDOF 1
ENDMDL
MODEL 4
REMARK VINA RESULT:      -7.2     22.706     26.587
REMARK  1 active torsions:
REMARK  status: ('A' for Active; 'I' for Inactive)
REMARK    1  A    between atoms: C_7  and  O_1 
ROOT
HETATM    1  O   UNK N   1      33.123  21.371  -2.073  0.00  0.00    -0.293 OA
HETATM    2  C   UNK N   1      27.077  23.332  -6.658  0.00  0.00     0.001 C 
HETATM    3  C   UNK N   1      27.386  22.901  -8.093  0.00  0.00    -0.009 C 
HETATM    4  C   UNK N   1      28.359  23.418  -5.787  0.00  0.00    -0.001 C 
HETATM    5  C   UNK N   1      29.050  22.017  -5.804  0.00  0.00     0.003 C 
HETATM    6  C   UNK N   1      26.005  23.038  -8.752  0.00  0.00     0.062 C 
HETATM    7  C   UNK N   1      30.397  22.048  -5.031  0.00  0.00    -0.016 C 
HETATM    8  C   UNK N   1      27.996  21.499  -8.092  0.00  0.00     0.013 C 
HETATM    9  C   UNK N   1      29.276  21.497  -7.246  0.00  0.00     0.007 C 
HETATM   10  C   UNK N   1      26.257  24.604  -6.873  0.00  0.00     0.009 C 
HETATM   11  C   UNK N   1      28.042  23.780  -4.315  0.00  0.00    -0.010 C 
HETATM   12  C   UNK N   1      25.505  24.379  -8.201  0.00  0.00     0.038 C 
HETATM   13  C   UNK N   1      29.293  23.810  -3.439  0.00  0.00     0.039 C 
HETATM   14  C   UNK N   1      30.206  22.636  -3.641  0.00  0.00    -0.067 C 
HETATM   15  C   UNK N   1      28.377  23.869  -8.777  0.00  0.00     0.018 C 
HETATM   16  C   UNK N   1      30.945  20.615  -4.905  0.00  0.00     0.022 C 
HETATM   17  C   UNK N   1      25.028  21.944  -8.328  0.00  0.00     0.046 C 
HETATM   18  C   UNK N   1      31.417  22.912  -5.779  0.00  0.00     0.020 C 
HETATM   19  C   UNK N   1      27.368  25.135  -4.174  0.00  0.00     0.010 C 
HETATM   20  C   UNK N   1      32.244  20.538  -4.096  0.00  0.00     0.084 C 
HETATM   21  C   UNK N   1      31.126  22.410  -2.689  0.00  0.00     0.053 C 
HETATM   22  C   UNK N   1      32.214  21.429  -2.886  0.00  0.00     0.149 C 
ENDROOT
BRANCH   6  23
HETATM   23  O   UNK N   1      26.082  23.056 -10.148  0.00  0.00    -0.389 OA
HETATM   24  H   UNK N   1      26.158  22.293 -10.741  0.00  0.00     0.210 HD
ENDBRANCH   6  23
TORSDOF 1
ENDMDL
MODEL 5
REMARK VINA RESULT:      -7.1      2.247      4.555
REMARK  1 active torsions:
REMARK  status: ('A' for Active; 'I' for Inactive)
REMARK    1  A    between atoms: C_7  and  O_1 
ROOT
HETATM    1  O   UNK N   1      34.943  11.468  19.440  0.00  0.00    -0.293 OA
HETATM    2  C   UNK N   1      37.371  11.813  11.996  0.00  0.00     0.001 C 
HETATM    3  C   UNK N   1      36.550  12.873  11.259  0.00  0.00    -0.009 C 
HETATM    4  C   UNK N   1      36.677  11.345  13.302  0.00  0.00    -0.001 C 
HETATM    5  C   UNK N   1      36.455  12.598  14.209  0.00  0.00     0.003 C 
HETATM    6  C   UNK N   1      37.369  13.043   9.969  0.00  0.00     0.062 C 
HETATM    7  C   UNK N   1      35.674  12.225  15.499  0.00  0.00    -0.016 C 
HETATM    8  C   UNK N   1      36.406  14.118  12.135  0.00  0.00     0.013 C 
HETATM    9  C   UNK N   1      35.724  13.739  13.456  0.00  0.00     0.007 C 
HETATM   10  C   UNK N   1      37.627  10.781  10.898  0.00  0.00     0.009 C 
HETATM   11  C   UNK N   1      37.540  10.328  14.091  0.00  0.00    -0.010 C 
HETATM   12  C   UNK N   1      37.697  11.595   9.589  0.00  0.00     0.038 C 
HETATM   13  C   UNK N   1      36.888   9.907  15.407  0.00  0.00     0.039 C 
HETATM   14  C   UNK N   1      36.334  11.050  16.205  0.00  0.00    -0.067 C 
HETATM   15  C   UNK N   1      35.140  12.353  10.903  0.00  0.00     0.018 C 
HETATM   16  C   UNK N   1      35.648  13.437  16.447  0.00  0.00     0.022 C 
HETATM   17  C   UNK N   1      38.679  13.797  10.187  0.00  0.00     0.046 C 
HETATM   18  C   UNK N   1      34.236  11.828  15.152  0.00  0.00     0.020 C 
HETATM   19  C   UNK N   1      37.818   9.058  13.305  0.00  0.00     0.010 C 
HETATM   20  C   UNK N   1      34.953  13.142  17.781  0.00  0.00     0.084 C 
HETATM   21  C   UNK N   1      36.064  10.814  17.500  0.00  0.00     0.053 C 
HETATM   22  C   UNK N   1      35.312  11.786  18.321  0.00  0.00     0.149 C 
ENDROOT
BRANCH   6  23
HETATM   23  O   UNK N   1      36.644  13.685   8.961  0.00  0.00    -0.389 OA
HETATM   24  H   UNK N   1      36.738  13.565   8.003  0.00  0.00     0.210 HD
ENDBRANCH   6  23
TORSDOF 1
ENDMDL
MODEL 6
REMARK VINA RESULT:      -7.1      1.572      3.180
REMARK  1 active torsions:
REMARK  status: ('A' for Active; 'I' for Inactive)
REMARK    1  A    between atoms: C_7  and  O_1 
ROOT
HETATM    1  O   UNK N   1      36.722   8.421  21.757  0.00  0.00    -0.293 OA
HETATM    2  C   UNK N   1      36.342  11.206  14.441  0.00  0.00     0.001 C 
HETATM    3  C   UNK N   1      35.088  12.072  14.308  0.00  0.00    -0.009 C 
HETATM    4  C   UNK N   1      36.264  10.255  15.664  0.00  0.00    -0.001 C 
HETATM    5  C   UNK N   1      36.061  11.127  16.944  0.00  0.00     0.003 C 
HETATM    6  C   UNK N   1      35.357  12.787  12.974  0.00  0.00     0.062 C 
HETATM    7  C   UNK N   1      35.876  10.239  18.205  0.00  0.00    -0.016 C 
HETATM    8  C   UNK N   1      34.946  12.970  15.537  0.00  0.00     0.013 C 
HETATM    9  C   UNK N   1      34.864  12.102  16.800  0.00  0.00     0.007 C 
HETATM   10  C   UNK N   1      36.458  10.590  13.047  0.00  0.00     0.009 C 
HETATM   11  C   UNK N   1      37.563   9.431  15.847  0.00  0.00    -0.010 C 
HETATM   12  C   UNK N   1      35.882  11.652  12.088  0.00  0.00     0.038 C 
HETATM   13  C   UNK N   1      37.516   8.534  17.083  0.00  0.00     0.039 C 
HETATM   14  C   UNK N   1      37.001   9.221  18.314  0.00  0.00    -0.067 C 
HETATM   15  C   UNK N   1      33.812  11.210  14.176  0.00  0.00     0.018 C 
HETATM   16  C   UNK N   1      35.875  11.130  19.460  0.00  0.00     0.022 C 
HETATM   17  C   UNK N   1      36.438  13.862  13.079  0.00  0.00     0.046 C 
HETATM   18  C   UNK N   1      34.549   9.479  18.127  0.00  0.00     0.020 C 
HETATM   19  C   UNK N   1      37.863   8.533  14.658  0.00  0.00     0.010 C 
HETATM   20  C   UNK N   1      35.763  10.332  20.763  0.00  0.00     0.084 C 
HETATM   21  C   UNK N   1      37.249   8.626  19.493  0.00  0.00     0.053 C 
HETATM   22  C   UNK N   1      36.603   9.085  20.740  0.00  0.00     0.149 C 
ENDROOT
BRANCH   6  23
HETATM   23  O   UNK N   1      34.202  13.363  12.437  0.00  0.00    -0.389 OA
HETATM   24  H   UNK N   1      34.094  14.271  12.115  0.00  0.00     0.210 HD
ENDBRANCH   6  23
TORSDOF 1
ENDMDL
MODEL 7
REMARK VINA RESULT:      -7.0      9.629     13.555
REMARK  1 active torsions:
REMARK  status: ('A' for Active; 'I' for Inactive)
REMARK    1  A    between atoms: C_7  and  O_1 
ROOT
HETATM    1  O   UNK N   1      36.322  14.616   8.222  0.00  0.00    -0.293 OA
HETATM    2  C   UNK N   1      29.832  17.722   5.117  0.00  0.00     0.001 C 
HETATM    3  C   UNK N   1      28.664  17.485   6.077  0.00  0.00    -0.009 C 
HETATM    4  C   UNK N   1      31.021  16.767   5.401  0.00  0.00    -0.001 C 
HETATM    5  C   UNK N   1      31.473  16.984   6.881  0.00  0.00     0.003 C 
HETATM    6  C   UNK N   1      27.600  18.429   5.495  0.00  0.00     0.062 C 
HETATM    7  C   UNK N   1      32.602  15.992   7.274  0.00  0.00    -0.016 C 
HETATM    8  C   UNK N   1      29.107  17.772   7.512  0.00  0.00     0.013 C 
HETATM    9  C   UNK N   1      30.290  16.864   7.875  0.00  0.00     0.007 C 
HETATM   10  C   UNK N   1      29.148  17.646   3.752  0.00  0.00     0.009 C 
HETATM   11  C   UNK N   1      32.234  17.055   4.482  0.00  0.00    -0.010 C 
HETATM   12  C   UNK N   1      27.718  18.175   3.987  0.00  0.00     0.038 C 
HETATM   13  C   UNK N   1      33.430  16.157   4.795  0.00  0.00     0.039 C 
HETATM   14  C   UNK N   1      33.735  16.038   6.260  0.00  0.00    -0.067 C 
HETATM   15  C   UNK N   1      28.151  16.030   6.000  0.00  0.00     0.018 C 
HETATM   16  C   UNK N   1      33.148  16.366   8.663  0.00  0.00     0.022 C 
HETATM   17  C   UNK N   1      27.897  19.903   5.763  0.00  0.00     0.046 C 
HETATM   18  C   UNK N   1      32.057  14.561   7.316  0.00  0.00     0.020 C 
HETATM   19  C   UNK N   1      31.913  16.870   3.008  0.00  0.00     0.010 C 
HETATM   20  C   UNK N   1      34.316  15.478   9.108  0.00  0.00     0.084 C 
HETATM   21  C   UNK N   1      34.947  15.565   6.593  0.00  0.00     0.053 C 
HETATM   22  C   UNK N   1      35.275  15.196   7.985  0.00  0.00     0.149 C 
ENDROOT
BRANCH   6  23
HETATM   23  O   UNK N   1      26.316  18.137   5.964  0.00  0.00    -0.389 OA
HETATM   24  H   UNK N   1      26.083  17.636   6.761  0.00  0.00     0.210 HD
ENDBRANCH   6  23
TORSDOF 1
ENDMDL
MODEL 8
REMARK VINA RESULT:      -6.8     22.878     25.676
REMARK  1 active torsions:
REMARK  status: ('A' for Active; 'I' for Inactive)
REMARK    1  A    between atoms: C_7  and  O_1 
ROOT
HETATM    1  O   UNK N   1      35.261  20.162  -4.062  0.00  0.00    -0.293 OA
HETATM    2  C   UNK N   1      28.093  23.264  -4.706  0.00  0.00     0.001 C 
HETATM    3  C   UNK N   1      27.942  23.871  -6.103  0.00  0.00    -0.009 C 
HETATM    4  C   UNK N   1      29.581  23.053  -4.321  0.00  0.00    -0.001 C 
HETATM    5  C   UNK N   1      30.233  22.126  -5.397  0.00  0.00     0.003 C 
HETATM    6  C   UNK N   1      26.424  24.105  -6.166  0.00  0.00     0.062 C 
HETATM    7  C   UNK N   1      31.753  21.945  -5.134  0.00  0.00    -0.016 C 
HETATM    8  C   UNK N   1      28.521  22.916  -7.147  0.00  0.00     0.013 C 
HETATM    9  C   UNK N   1      30.001  22.652  -6.836  0.00  0.00     0.007 C 
HETATM   10  C   UNK N   1      27.247  24.208  -3.851  0.00  0.00     0.009 C 
HETATM   11  C   UNK N   1      29.737  22.369  -2.940  0.00  0.00    -0.010 C 
HETATM   12  C   UNK N   1      26.120  24.696  -4.785  0.00  0.00     0.038 C 
HETATM   13  C   UNK N   1      31.198  22.106  -2.581  0.00  0.00     0.039 C 
HETATM   14  C   UNK N   1      32.002  21.509  -3.699  0.00  0.00    -0.067 C 
HETATM   15  C   UNK N   1      28.673  25.227  -6.215  0.00  0.00     0.018 C 
HETATM   16  C   UNK N   1      32.312  20.878  -6.093  0.00  0.00     0.022 C 
HETATM   17  C   UNK N   1      25.626  22.813  -6.327  0.00  0.00     0.046 C 
HETATM   18  C   UNK N   1      32.491  23.267  -5.368  0.00  0.00     0.020 C 
HETATM   19  C   UNK N   1      29.140  23.188  -1.807  0.00  0.00     0.010 C 
HETATM   20  C   UNK N   1      33.798  20.583  -5.862  0.00  0.00     0.084 C 
HETATM   21  C   UNK N   1      33.172  20.938  -3.369  0.00  0.00     0.053 C 
HETATM   22  C   UNK N   1      34.145  20.522  -4.401  0.00  0.00     0.149 C 
ENDROOT
BRANCH   6  23
HETATM   23  O   UNK N   1      26.065  24.985  -7.190  0.00  0.00    -0.389 OA
HETATM   24  H   UNK N   1      25.355  25.645  -7.174  0.00  0.00     0.210 HD
ENDBRANCH   6  23
TORSDOF 1
ENDMDL
MODEL 9
REMARK VINA RESULT:      -6.7     24.829     27.381
REMARK  1 active torsions:
REMARK  status: ('A' for Active; 'I' for Inactive)
REMARK    1  A    between atoms: C_7  and  O_1 
ROOT
HETATM    1  O   UNK N   1      31.704  19.874  -6.211  0.00  0.00    -0.293 OA
HETATM    2  C   UNK N   1      26.940  26.064  -5.567  0.00  0.00     0.001 C 
HETATM    3  C   UNK N   1      27.239  26.781  -4.249  0.00  0.00    -0.009 C 
HETATM    4  C   UNK N   1      27.477  24.608  -5.572  0.00  0.00    -0.001 C 
HETATM    5  C   UNK N   1      29.016  24.658  -5.309  0.00  0.00     0.003 C 
HETATM    6  C   UNK N   1      26.492  28.108  -4.452  0.00  0.00     0.062 C 
HETATM    7  C   UNK N   1      29.613  23.228  -5.203  0.00  0.00    -0.016 C 
HETATM    8  C   UNK N   1      28.751  26.883  -4.046  0.00  0.00     0.013 C 
HETATM    9  C   UNK N   1      29.364  25.476  -4.039  0.00  0.00     0.007 C 
HETATM   10  C   UNK N   1      25.436  26.286  -5.722  0.00  0.00     0.009 C 
HETATM   11  C   UNK N   1      27.245  23.904  -6.932  0.00  0.00    -0.010 C 
HETATM   12  C   UNK N   1      25.160  27.651  -5.059  0.00  0.00     0.038 C 
HETATM   13  C   UNK N   1      27.821  22.490  -6.963  0.00  0.00     0.039 C 
HETATM   14  C   UNK N   1      29.210  22.386  -6.404  0.00  0.00    -0.067 C 
HETATM   15  C   UNK N   1      26.629  26.031  -3.044  0.00  0.00     0.018 C 
HETATM   16  C   UNK N   1      31.149  23.320  -5.140  0.00  0.00     0.022 C 
HETATM   17  C   UNK N   1      27.184  29.038  -5.447  0.00  0.00     0.046 C 
HETATM   18  C   UNK N   1      29.100  22.533  -3.938  0.00  0.00     0.020 C 
HETATM   19  C   UNK N   1      25.773  23.792  -7.293  0.00  0.00     0.010 C 
HETATM   20  C   UNK N   1      31.832  21.949  -5.100  0.00  0.00     0.084 C 
HETATM   21  C   UNK N   1      29.907  21.278  -6.705  0.00  0.00     0.053 C 
HETATM   22  C   UNK N   1      31.186  20.965  -6.034  0.00  0.00     0.149 C 
ENDROOT
BRANCH   6  23
HETATM   23  O   UNK N   1      26.298  28.798  -3.253  0.00  0.00    -0.389 OA
HETATM   24  H   UNK N   1      25.858  28.471  -2.452  0.00  0.00     0.210 HD
ENDBRANCH   6  23
TORSDOF 1
ENDMDL
