MODEL 1
REMARK VINA RESULT:      -4.8      0.000      0.000
REMARK  4 active torsions:
REMARK  status: ('A' for Active; 'I' for Inactive)
REMARK    1  A    between atoms: O_1  and  C_11 
REMARK    2  A    between atoms: N_2  and  C_4 
REMARK    3  A    between atoms: C_3  and  C_4 
REMARK    4  A    between atoms: C_3  and  C_5 
ROOT
HETATM    1  C   UNK N   1      25.791  25.034  -5.116  0.00  0.00    -0.056 A 
HETATM    2  C   UNK N   1      26.454  25.195  -3.891  0.00  0.00     0.010 A 
HETATM    3  C   UNK N   1      25.167  26.134  -5.712  0.00  0.00     0.010 A 
HETATM    4  C   UNK N   1      26.497  26.447  -3.272  0.00  0.00     0.037 A 
HETATM    5  C   UNK N   1      25.200  27.385  -5.088  0.00  0.00     0.037 A 
HETATM    6  C   UNK N   1      25.864  27.547  -3.859  0.00  0.00     0.068 A 
ENDROOT
BRANCH   1   7
HETATM    7  C   UNK N   1      25.691  23.688  -5.766  0.00  0.00     0.062 C 
BRANCH   7   8
HETATM    8  C   UNK N   1      26.146  23.683  -7.219  0.00  0.00     0.074 C 
HETATM    9  C   UNK N   1      27.275  22.685  -7.406  0.00  0.00     0.032 C 
BRANCH   8  10
HETATM   10  N   UNK N   1      25.036  23.288  -8.065  0.00  0.00    -0.426 N 
HETATM   11  H   UNK N   1      25.213  22.838  -8.963  0.00  0.00     0.150 HD
HETATM   12  H   UNK N   1      24.077  23.462  -7.762  0.00  0.00     0.150 HD
ENDBRANCH   8  10
ENDBRANCH   7   8
ENDBRANCH   1   7
BRANCH   6  13
HETATM   13  O   UNK N   1      25.899  28.740  -3.220  0.00  0.00    -0.356 OA
HETATM   14  C   UNK N   1      26.425  29.882  -3.781  0.00  0.00     0.210 C 
ENDBRANCH   6  13
TORSDOF 4
ENDMDL
MODEL 2
REMARK VINA RESULT:      -4.8     19.010     20.068
REMARK  4 active torsions:
REMARK  status: ('A' for Active; 'I' for Inactive)
REMARK    1  A    between atoms: O_1  and  C_11 
REMARK    2  A    between atoms: N_2  and  C_4 
REMARK    3  A    between atoms: C_3  and  C_4 
REMARK    4  A    between atoms: C_3  and  C_5 
ROOT
HETATM    1  C   UNK N   1      21.933  12.478   9.566  0.00  0.00    -0.056 A 
HETATM    2  C   UNK N   1      22.017  12.349   8.173  0.00  0.00     0.010 A 
HETATM    3  C   UNK N   1      21.130  13.480  10.120  0.00  0.00     0.010 A 
HETATM    4  C   UNK N   1      21.297  13.212   7.341  0.00  0.00     0.037 A 
HETATM    5  C   UNK N   1      20.418  14.350   9.288  0.00  0.00     0.037 A 
HETATM    6  C   UNK N   1      20.502  14.223   7.890  0.00  0.00     0.068 A 
ENDROOT
BRANCH   1   7
HETATM    7  C   UNK N   1      22.738  11.596  10.471  0.00  0.00     0.062 C 
BRANCH   7   8
HETATM    8  C   UNK N   1      23.526  12.366  11.522  0.00  0.00     0.074 C 
HETATM    9  C   UNK N   1      23.235  11.805  12.903  0.00  0.00     0.032 C 
BRANCH   8  10
HETATM   10  N   UNK N   1      24.944  12.224  11.254  0.00  0.00    -0.426 N 
HETATM   11  H   UNK N   1      25.322  11.320  10.970  0.00  0.00     0.150 HD
HETATM   12  H   UNK N   1      25.565  13.028  11.348  0.00  0.00     0.150 HD
ENDBRANCH   8  10
ENDBRANCH   7   8
ENDBRANCH   1   7
BRANCH   6  13
HETATM   13  O   UNK N   1      19.841  15.061   7.056  0.00  0.00    -0.356 OA
HETATM   14  C   UNK N   1      19.635  16.393   7.333  0.00  0.00     0.210 C 
ENDBRANCH   6  13
TORSDOF 4
ENDMDL
MODEL 3
REMARK VINA RESULT:      -4.6     27.319     28.538
REMARK  4 active torsions:
REMARK  status: ('A' for Active; 'I' for Inactive)
REMARK    1  A    between atoms: O_1  and  C_11 
REMARK    2  A    between atoms: N_2  and  C_4 
REMARK    3  A    between atoms: C_3  and  C_4 
REMARK    4  A    between atoms: C_3  and  C_5 
ROOT
HETATM    1  C   UNK N   1      35.313  12.580  17.116  0.00  0.00    -0.056 A 
HETATM    2  C   UNK N   1      35.390  11.182  17.174  0.00  0.00     0.010 A 
HETATM    3  C   UNK N   1      35.209  13.315  18.301  0.00  0.00     0.010 A 
HETATM    4  C   UNK N   1      35.370  10.525  18.407  0.00  0.00     0.037 A 
HETATM    5  C   UNK N   1      35.178  12.658  19.535  0.00  0.00     0.037 A 
HETATM    6  C   UNK N   1      35.254  11.255  19.594  0.00  0.00     0.068 A 
ENDROOT
BRANCH   1   7
HETATM    7  C   UNK N   1      35.280  13.296  15.800  0.00  0.00     0.062 C 
BRANCH   7   8
HETATM    8  C   UNK N   1      36.642  13.380  15.123  0.00  0.00     0.074 C 
HETATM    9  C   UNK N   1      36.482  13.251  13.619  0.00  0.00     0.032 C 
BRANCH   8  10
HETATM   10  N   UNK N   1      37.240  14.669  15.417  0.00  0.00    -0.426 N 
HETATM   11  H   UNK N   1      36.703  15.524  15.277  0.00  0.00     0.150 HD
HETATM   12  H   UNK N   1      38.198  14.720  15.763  0.00  0.00     0.150 HD
ENDBRANCH   8  10
ENDBRANCH   7   8
ENDBRANCH   1   7
BRANCH   6  13
HETATM   13  O   UNK N   1      35.207  10.588  20.771  0.00  0.00    -0.356 OA
HETATM   14  C   UNK N   1      34.046  10.071  21.301  0.00  0.00     0.210 C 
ENDBRANCH   6  13
TORSDOF 4
ENDMDL
MODEL 4
REMARK VINA RESULT:      -4.6     16.090     17.248
REMARK  4 active torsions:
REMARK  status: ('A' for Active; 'I' for Inactive)
REMARK    1  A    between atoms: O_1  and  C_11 
REMARK    2  A    between atoms: N_2  and  C_4 
REMARK    3  A    between atoms: C_3  and  C_4 
REMARK    4  A    between atoms: C_3  and  C_5 
ROOT
HETATM    1  C   UNK N   1      32.867  16.779   6.873  0.00  0.00    -0.056 A 
HETATM    2  C   UNK N   1      33.679  17.918   6.966  0.00  0.00     0.010 A 
HETATM    3  C   UNK N   1      32.884  15.832   7.903  0.00  0.00     0.010 A 
HETATM    4  C   UNK N   1      34.497  18.111   8.083  0.00  0.00     0.037 A 
HETATM    5  C   UNK N   1      33.710  16.020   9.016  0.00  0.00     0.037 A 
HETATM    6  C   UNK N   1      34.527  17.161   9.109  0.00  0.00     0.068 A 
ENDROOT
BRANCH   1   7
HETATM    7  C   UNK N   1      32.024  16.531   5.659  0.00  0.00     0.062 C 
BRANCH   7   8
HETATM    8  C   UNK N   1      32.388  17.421   4.478  0.00  0.00     0.074 C 
HETATM    9  C   UNK N   1      33.019  16.588   3.376  0.00  0.00     0.032 C 
BRANCH   8  10
HETATM   10  N   UNK N   1      31.183  18.039   3.959  0.00  0.00    -0.426 N 
HETATM   11  H   UNK N   1      30.578  18.577   4.579  0.00  0.00     0.150 HD
HETATM   12  H   UNK N   1      30.941  17.936   2.974  0.00  0.00     0.150 HD
ENDBRANCH   8  10
ENDBRANCH   7   8
ENDBRANCH   1   7
BRANCH   6  13
HETATM   13  O   UNK N   1      35.351  17.363  10.164  0.00  0.00    -0.356 OA
HETATM   14  C   UNK N   1      35.748  16.356  11.015  0.00  0.00     0.210 C 
ENDBRANCH   6  13
TORSDOF 4
ENDMDL
MODEL 5
REMARK VINA RESULT:      -4.5     14.960     16.381
REMARK  4 active torsions:
REMARK  status: ('A' for Active; 'I' for Inactive)
REMARK    1  A    between atoms: O_1  and  C_11 
REMARK    2  A    between atoms: N_2  and  C_4 
REMARK    3  A    between atoms: C_3  and  C_4 
REMARK    4  A    between atoms: C_3  and  C_5 
ROOT
HETATM    1  C   UNK N   1      30.401  17.368   7.107  0.00  0.00    -0.056 A 
HETATM    2  C   UNK N   1      30.878  16.947   5.858  0.00  0.00     0.010 A 
HETATM    3  C   UNK N   1      31.308  17.652   8.133  0.00  0.00     0.010 A 
HETATM    4  C   UNK N   1      32.252  16.817   5.636  0.00  0.00     0.037 A 
HETATM    5  C   UNK N   1      32.683  17.511   7.915  0.00  0.00     0.037 A 
HETATM    6  C   UNK N   1      33.163  17.087   6.663  0.00  0.00     0.068 A 
ENDROOT
BRANCH   1   7
HETATM    7  C   UNK N   1      28.931  17.463   7.378  0.00  0.00     0.062 C 
BRANCH   7   8
HETATM    8  C   UNK N   1      28.519  18.775   8.032  0.00  0.00     0.074 C 
HETATM    9  C   UNK N   1      27.808  19.658   7.021  0.00  0.00     0.032 C 
BRANCH   8  10
HETATM   10  N   UNK N   1      27.607  18.497   9.125  0.00  0.00    -0.426 N 
HETATM   11  H   UNK N   1      26.711  18.046   8.940  0.00  0.00     0.150 HD
HETATM   12  H   UNK N   1      27.862  18.752  10.079  0.00  0.00     0.150 HD
ENDBRANCH   8  10
ENDBRANCH   7   8
ENDBRANCH   1   7
BRANCH   6  13
HETATM   13  O   UNK N   1      34.485  16.923   6.424  0.00  0.00    -0.356 OA
HETATM   14  C   UNK N   1      35.044  15.716   6.068  0.00  0.00     0.210 C 
ENDBRANCH   6  13
TORSDOF 4
ENDMDL
MODEL 6
REMARK VINA RESULT:      -4.5      1.832      2.966
REMARK  4 active torsions:
REMARK  status: ('A' for Active; 'I' for Inactive)
REMARK    1  A    between atoms: O_1  and  C_11 
REMARK    2  A    between atoms: N_2  and  C_4 
REMARK    3  A    between atoms: C_3  and  C_4 
REMARK    4  A    between atoms: C_3  and  C_5 
ROOT
HETATM    1  C   UNK N   1      25.871  27.485  -5.379  0.00  0.00    -0.056 A 
HETATM    2  C   UNK N   1      26.896  27.939  -6.219  0.00  0.00     0.010 A 
HETATM    3  C   UNK N   1      25.575  28.190  -4.207  0.00  0.00     0.010 A 
HETATM    4  C   UNK N   1      27.616  29.093  -5.894  0.00  0.00     0.037 A 
HETATM    5  C   UNK N   1      26.302  29.338  -3.875  0.00  0.00     0.037 A 
HETATM    6  C   UNK N   1      27.332  29.794  -4.717  0.00  0.00     0.068 A 
ENDROOT
BRANCH   1   7
HETATM    7  C   UNK N   1      25.125  26.222  -5.686  0.00  0.00     0.062 C 
BRANCH   7   8
HETATM    8  C   UNK N   1      26.009  24.982  -5.679  0.00  0.00     0.074 C 
HETATM    9  C   UNK N   1      26.176  24.472  -4.258  0.00  0.00     0.032 C 
BRANCH   8  10
HETATM   10  N   UNK N   1      25.378  23.944  -6.471  0.00  0.00    -0.426 N 
HETATM   11  H   UNK N   1      25.932  23.165  -6.827  0.00  0.00     0.150 HD
HETATM   12  H   UNK N   1      24.379  23.992  -6.674  0.00  0.00     0.150 HD
ENDBRANCH   8  10
ENDBRANCH   7   8
ENDBRANCH   1   7
BRANCH   6  13
HETATM   13  O   UNK N   1      28.067  30.890  -4.416  0.00  0.00    -0.356 OA
HETATM   14  C   UNK N   1      29.373  31.057  -4.817  0.00  0.00     0.210 C 
ENDBRANCH   6  13
TORSDOF 4
ENDMDL
MODEL 7
REMARK VINA RESULT:      -4.4     12.322     13.607
REMARK  4 active torsions:
REMARK  status: ('A' for Active; 'I' for Inactive)
REMARK    1  A    between atoms: O_1  and  C_11 
REMARK    2  A    between atoms: N_2  and  C_4 
REMARK    3  A    between atoms: C_3  and  C_4 
REMARK    4  A    between atoms: C_3  and  C_5 
ROOT
HETATM    1  C   UNK N   1      27.836  19.488   6.599  0.00  0.00    -0.056 A 
HETATM    2  C   UNK N   1      28.184  18.807   5.424  0.00  0.00     0.010 A 
HETATM    3  C   UNK N   1      26.947  20.566   6.535  0.00  0.00     0.010 A 
HETATM    4  C   UNK N   1      27.642  19.198   4.197  0.00  0.00     0.037 A 
HETATM    5  C   UNK N   1      26.413  20.964   5.305  0.00  0.00     0.037 A 
HETATM    6  C   UNK N   1      26.763  20.283   4.126  0.00  0.00     0.068 A 
ENDROOT
BRANCH   1   7
HETATM    7  C   UNK N   1      28.448  19.116   7.915  0.00  0.00     0.062 C 
BRANCH   7   8
HETATM    8  C   UNK N   1      28.630  17.614   8.095  0.00  0.00     0.074 C 
HETATM    9  C   UNK N   1      29.932  17.333   8.822  0.00  0.00     0.032 C 
BRANCH   8  10
HETATM   10  N   UNK N   1      27.534  17.094   8.890  0.00  0.00    -0.426 N 
HETATM   11  H   UNK N   1      26.703  17.664   9.048  0.00  0.00     0.150 HD
HETATM   12  H   UNK N   1      27.594  16.159   9.292  0.00  0.00     0.150 HD
ENDBRANCH   8  10
ENDBRANCH   7   8
ENDBRANCH   1   7
BRANCH   6  13
HETATM   13  O   UNK N   1      26.278  20.655   2.918  0.00  0.00    -0.356 OA
HETATM   14  C   UNK N   1      24.951  20.541   2.569  0.00  0.00     0.210 C 
ENDBRANCH   6  13
TORSDOF 4
ENDMDL
MODEL 8
REMARK VINA RESULT:      -4.4      1.830      2.303
REMARK  4 active torsions:
REMARK  status: ('A' for Active; 'I' for Inactive)
REMARK    1  A    between atoms: O_1  and  C_11 
REMARK    2  A    between atoms: N_2  and  C_4 
REMARK    3  A    between atoms: C_3  and  C_4 
REMARK    4  A    between atoms: C_3  and  C_5 
ROOT
HETATM    1  C   UNK N   1      26.104  27.134  -6.600  0.00  0.00    -0.056 A 
HETATM    2  C   UNK N   1      27.163  28.031  -6.404  0.00  0.00     0.010 A 
HETATM    3  C   UNK N   1      25.115  27.007  -5.619  0.00  0.00     0.010 A 
HETATM    4  C   UNK N   1      27.228  28.800  -5.239  0.00  0.00     0.037 A 
HETATM    5  C   UNK N   1      25.186  27.769  -4.448  0.00  0.00     0.037 A 
HETATM    6  C   UNK N   1      26.249  28.669  -4.250  0.00  0.00     0.068 A 
ENDROOT
BRANCH   1   7
HETATM    7  C   UNK N   1      26.047  26.264  -7.819  0.00  0.00     0.062 C 
BRANCH   7   8
HETATM    8  C   UNK N   1      25.849  24.788  -7.499  0.00  0.00     0.074 C 
HETATM    9  C   UNK N   1      25.352  24.053  -8.731  0.00  0.00     0.032 C 
BRANCH   8  10
HETATM   10  N   UNK N   1      27.118  24.213  -7.098  0.00  0.00    -0.426 N 
HETATM   11  H   UNK N   1      27.751  24.742  -6.498  0.00  0.00     0.150 HD
HETATM   12  H   UNK N   1      27.379  23.279  -7.415  0.00  0.00     0.150 HD
ENDBRANCH   8  10
ENDBRANCH   7   8
ENDBRANCH   1   7
BRANCH   6  13
HETATM   13  O   UNK N   1      26.357  29.406  -3.120  0.00  0.00    -0.356 OA
HETATM   14  C   UNK N   1      27.565  29.790  -2.581  0.00  0.00     0.210 C 
ENDBRANCH   6  13
TORSDOF 4
ENDMDL
MODEL 9
REMARK VINA RESULT:      -4.4     15.865     17.184
REMARK  4 active torsions:
REMARK  status: ('A' for Active; 'I' for Inactive)
REMARK    1  A    between atoms: O_1  and  C_11 
REMARK    2  A    between atoms: N_2  and  C_4 
REMARK    3  A    between atoms: C_3  and  C_4 
REMARK    4  A    between atoms: C_3  and  C_5 
ROOT
HETATM    1  C   UNK N   1      33.257  17.622   7.447  0.00  0.00    -0.056 A 
HETATM    2  C   UNK N   1      31.927  17.426   7.842  0.00  0.00     0.010 A 
HETATM    3  C   UNK N   1      33.587  17.584   6.088  0.00  0.00     0.010 A 
HETATM    4  C   UNK N   1      30.934  17.198   6.886  0.00  0.00     0.037 A 
HETATM    5  C   UNK N   1      32.595  17.346   5.131  0.00  0.00     0.037 A 
HETATM    6  C   UNK N   1      31.260  17.146   5.527  0.00  0.00     0.068 A 
ENDROOT
BRANCH   1   7
HETATM    7  C   UNK N   1      34.342  17.815   8.462  0.00  0.00     0.062 C 
BRANCH   7   8
HETATM    8  C   UNK N   1      34.376  16.725   9.526  0.00  0.00     0.074 C 
HETATM    9  C   UNK N   1      35.035  15.476   8.969  0.00  0.00     0.032 C 
BRANCH   8  10
HETATM   10  N   UNK N   1      35.150  17.192  10.661  0.00  0.00    -0.426 N 
HETATM   11  H   UNK N   1      34.684  17.409  11.542  0.00  0.00     0.150 HD
HETATM   12  H   UNK N   1      36.160  17.303  10.578  0.00  0.00     0.150 HD
ENDBRANCH   8  10
ENDBRANCH   7   8
ENDBRANCH   1   7
BRANCH   6  13
HETATM   13  O   UNK N   1      30.280  16.895   4.628  0.00  0.00    -0.356 OA
HETATM   14  C   UNK N   1      29.129  16.207   4.938  0.00  0.00     0.210 C 
ENDBRANCH   6  13
TORSDOF 4
ENDMDL
