REMARK  4 active torsions:
REMARK  status: ('A' for Active; 'I' for Inactive)
REMARK    1  A    between atoms: O_1  and  C_11 
REMARK    2  A    between atoms: N_2  and  C_4 
REMARK    3  A    between atoms: C_3  and  C_4 
REMARK    4  A    between atoms: C_3  and  C_5 
ROOT
HETATM    1  C   UNK N   1       2.408   0.735  -0.291  0.00  0.00    -0.056 A 
HETATM    2  C   UNK N   1       3.485  -0.161  -0.332  0.00  0.00     0.010 A 
HETATM    3  C   UNK N   1       1.113   0.249  -0.082  0.00  0.00     0.010 A 
HETATM    4  C   UNK N   1       3.269  -1.531  -0.159  0.00  0.00     0.037 A 
HETATM    5  C   UNK N   1       0.895  -1.123   0.081  0.00  0.00     0.037 A 
HETATM    6  C   UNK N   1       1.975  -2.023   0.038  0.00  0.00     0.068 A 
ENDROOT
BRANCH   1   7
HETATM    7  C   UNK N   1       2.615   2.200  -0.527  0.00  0.00     0.062 C 
BRANCH   7   8
HETATM    8  C   UNK N   1       3.629   2.828   0.420  0.00  0.00     0.074 C 
HETATM    9  C   UNK N   1       5.039   2.529  -0.057  0.00  0.00     0.032 C 
BRANCH   8  10
HETATM   10  N   UNK N   1       3.440   4.266   0.434  0.00  0.00    -0.426 N 
HETATM   11  H   UNK N   1       4.249   4.887   0.444  0.00  0.00     0.150 HD
HETATM   12  H   UNK N   1       2.498   4.657   0.434  0.00  0.00     0.150 HD
ENDBRANCH   8  10
ENDBRANCH   7   8
ENDBRANCH   1   7
BRANCH   6  13
HETATM   13  O   UNK N   1       1.796  -3.358   0.173  0.00  0.00    -0.356 OA
HETATM   14  C   UNK N   1       0.557  -3.944   0.304  0.00  0.00     0.210 C 
ENDBRANCH   6  13
TORSDOF 4
