MODEL 1
REMARK VINA RESULT:      -6.7      0.000      0.000
REMARK  8 active torsions:
REMARK  status: ('A' for Active; 'I' for Inactive)
REMARK    1  A    between atoms: O_2  and  C_12 
REMARK    2  A    between atoms: O_2  and  C_25 
REMARK    3  A    between atoms: N_4  and  C_7 
REMARK    4  A    between atoms: C_5  and  C_6 
REMARK    5  A    between atoms: C_5  and  C_10 
REMARK    6  A    between atoms: C_5  and  C_11 
REMARK    7  A    between atoms: C_5  and  C_12 
REMARK    8  A    between atoms: C_6  and  C_7 
ROOT
HETATM    1  C   UNK N   1      36.220  12.681  14.629  0.00  0.00     0.103 C 
ENDROOT
BRANCH   1   2
HETATM    2  C   UNK N   1      36.817  13.283  13.313  0.00  0.00     0.060 C 
BRANCH   2   3
HETATM    3  C   UNK N   1      35.871  14.388  12.815  0.00  0.00     0.274 C 
BRANCH   3   4
HETATM    4  N   UNK N   1      35.954  14.671  11.401  0.00  0.00     0.092 N 
HETATM    5  C   UNK N   1      35.623  16.101  11.324  0.00  0.00     0.298 C 
HETATM    6  C   UNK N   1      35.120  16.485   9.934  0.00  0.00     0.198 C 
HETATM    7  O   UNK N   1      33.980  15.724   9.637  0.00  0.00    -0.388 OA
HETATM    8  C   UNK N   1      34.444  14.413   9.455  0.00  0.00     0.198 C 
HETATM    9  C   UNK N   1      34.888  13.851  10.806  0.00  0.00     0.298 C 
ENDBRANCH   3   4
ENDBRANCH   2   3
ENDBRANCH   1   2
BRANCH   1  10
HETATM   10  C   UNK N   1      36.984  11.385  14.966  0.00  0.00    -0.035 A 
HETATM   11  C   UNK N   1      38.054  10.968  14.139  0.00  0.00     0.009 A 
HETATM   12  C   UNK N   1      38.704   9.754  14.348  0.00  0.00     0.001 A 
HETATM   13  C   UNK N   1      38.284   8.917  15.379  0.00  0.00     0.000 A 
HETATM   14  C   UNK N   1      37.213   9.297  16.194  0.00  0.00     0.001 A 
HETATM   15  C   UNK N   1      36.556  10.517  15.983  0.00  0.00     0.009 A 
ENDBRANCH   1  10
BRANCH   1  16
HETATM   16  C   UNK N   1      36.222  13.789  15.727  0.00  0.00    -0.035 A 
HETATM   17  C   UNK N   1      37.131  14.866  15.669  0.00  0.00     0.009 A 
HETATM   18  C   UNK N   1      37.279  15.749  16.745  0.00  0.00     0.001 A 
HETATM   19  C   UNK N   1      36.514  15.581  17.900  0.00  0.00     0.000 A 
HETATM   20  C   UNK N   1      35.601  14.534  17.979  0.00  0.00     0.001 A 
HETATM   21  C   UNK N   1      35.476  13.638  16.917  0.00  0.00     0.009 A 
ENDBRANCH   1  16
BRANCH   1  22
HETATM   22  C   UNK N   1      34.773  12.236  14.434  0.00  0.00     0.277 C 
HETATM   23  O   UNK N   1      33.905  12.534  15.234  0.00  0.00    -0.264 OA
BRANCH  22  24
HETATM   24  O   UNK N   1      34.473  11.507  13.320  0.00  0.00    -0.321 OA
BRANCH  24  25
HETATM   25  C   UNK N   1      33.876  10.272  13.345  0.00  0.00     0.174 C 
HETATM   26  C   UNK N   1      34.873   9.243  12.845  0.00  0.00     0.034 C 
ENDBRANCH  24  25
ENDBRANCH  22  24
ENDBRANCH   1  22
TORSDOF 8
ENDMDL
MODEL 2
REMARK VINA RESULT:      -6.6      1.420      2.074
REMARK  8 active torsions:
REMARK  status: ('A' for Active; 'I' for Inactive)
REMARK    1  A    between atoms: O_2  and  C_12 
REMARK    2  A    between atoms: O_2  and  C_25 
REMARK    3  A    between atoms: N_4  and  C_7 
REMARK    4  A    between atoms: C_5  and  C_6 
REMARK    5  A    between atoms: C_5  and  C_10 
REMARK    6  A    between atoms: C_5  and  C_11 
REMARK    7  A    between atoms: C_5  and  C_12 
REMARK    8  A    between atoms: C_6  and  C_7 
ROOT
HETATM    1  C   UNK N   1      35.972  11.870  15.270  0.00  0.00     0.103 C 
ENDROOT
BRANCH   1   2
HETATM    2  C   UNK N   1      36.726  13.123  14.712  0.00  0.00     0.060 C 
BRANCH   2   3
HETATM    3  C   UNK N   1      35.840  13.783  13.643  0.00  0.00     0.274 C 
BRANCH   3   4
HETATM    4  N   UNK N   1      36.558  14.422  12.565  0.00  0.00     0.092 N 
HETATM    5  C   UNK N   1      35.509  15.174  11.861  0.00  0.00     0.298 C 
HETATM    6  C   UNK N   1      35.906  15.470  10.417  0.00  0.00     0.198 C 
HETATM    7  O   UNK N   1      36.139  14.258   9.751  0.00  0.00    -0.388 OA
HETATM    8  C   UNK N   1      37.322  13.749  10.307  0.00  0.00     0.198 C 
HETATM    9  C   UNK N   1      37.045  13.304  11.743  0.00  0.00     0.298 C 
ENDBRANCH   3   4
ENDBRANCH   2   3
ENDBRANCH   1   2
BRANCH   1  10
HETATM   10  C   UNK N   1      36.854  10.626  15.044  0.00  0.00    -0.035 A 
HETATM   11  C   UNK N   1      36.390   9.354  15.454  0.00  0.00     0.009 A 
HETATM   12  C   UNK N   1      37.195   8.221  15.362  0.00  0.00     0.001 A 
HETATM   13  C   UNK N   1      38.493   8.338  14.874  0.00  0.00     0.000 A 
HETATM   14  C   UNK N   1      38.984   9.588  14.484  0.00  0.00     0.001 A 
HETATM   15  C   UNK N   1      38.176  10.731  14.581  0.00  0.00     0.009 A 
ENDBRANCH   1  10
BRANCH   1  16
HETATM   16  C   UNK N   1      35.549  12.159  16.742  0.00  0.00    -0.035 A 
HETATM   17  C   UNK N   1      35.323  13.480  17.186  0.00  0.00     0.009 A 
HETATM   18  C   UNK N   1      35.144  13.768  18.543  0.00  0.00     0.001 A 
HETATM   19  C   UNK N   1      35.177  12.742  19.489  0.00  0.00     0.000 A 
HETATM   20  C   UNK N   1      35.386  11.429  19.078  0.00  0.00     0.001 A 
HETATM   21  C   UNK N   1      35.594  11.147  17.727  0.00  0.00     0.009 A 
ENDBRANCH   1  16
BRANCH   1  22
HETATM   22  C   UNK N   1      34.697  11.586  14.478  0.00  0.00     0.277 C 
HETATM   23  O   UNK N   1      33.597  11.812  14.947  0.00  0.00    -0.264 OA
BRANCH  22  24
HETATM   24  O   UNK N   1      34.827  11.088  13.214  0.00  0.00    -0.321 OA
BRANCH  24  25
HETATM   25  C   UNK N   1      33.944  10.213  12.636  0.00  0.00     0.174 C 
HETATM   26  C   UNK N   1      34.708   8.980  12.188  0.00  0.00     0.034 C 
ENDBRANCH  24  25
ENDBRANCH  22  24
ENDBRANCH   1  22
TORSDOF 8
ENDMDL
MODEL 3
REMARK VINA RESULT:      -6.3     20.807     24.929
REMARK  8 active torsions:
REMARK  status: ('A' for Active; 'I' for Inactive)
REMARK    1  A    between atoms: O_2  and  C_12 
REMARK    2  A    between atoms: O_2  and  C_25 
REMARK    3  A    between atoms: N_4  and  C_7 
REMARK    4  A    between atoms: C_5  and  C_6 
REMARK    5  A    between atoms: C_5  and  C_10 
REMARK    6  A    between atoms: C_5  and  C_11 
REMARK    7  A    between atoms: C_5  and  C_12 
REMARK    8  A    between atoms: C_6  and  C_7 
ROOT
HETATM    1  C   UNK N   1      27.689  24.687  -4.839  0.00  0.00     0.103 C 
ENDROOT
BRANCH   1   2
HETATM    2  C   UNK N   1      29.053  25.277  -5.333  0.00  0.00     0.060 C 
BRANCH   2   3
HETATM    3  C   UNK N   1      28.796  26.066  -6.627  0.00  0.00     0.274 C 
BRANCH   3   4
HETATM    4  N   UNK N   1      29.394  27.381  -6.668  0.00  0.00     0.092 N 
HETATM    5  C   UNK N   1      29.929  27.549  -5.310  0.00  0.00     0.298 C 
HETATM    6  C   UNK N   1      30.109  29.025  -4.959  0.00  0.00     0.198 C 
HETATM    7  O   UNK N   1      28.868  29.670  -5.057  0.00  0.00    -0.388 OA
HETATM    8  C   UNK N   1      28.573  29.704  -6.427  0.00  0.00     0.198 C 
HETATM    9  C   UNK N   1      28.260  28.286  -6.904  0.00  0.00     0.298 C 
ENDBRANCH   3   4
ENDBRANCH   2   3
ENDBRANCH   1   2
BRANCH   1  10
HETATM   10  C   UNK N   1      26.672  25.839  -4.717  0.00  0.00    -0.035 A 
HETATM   11  C   UNK N   1      25.663  25.989  -5.697  0.00  0.00     0.009 A 
HETATM   12  C   UNK N   1      24.788  27.072  -5.681  0.00  0.00     0.001 A 
HETATM   13  C   UNK N   1      24.915  28.045  -4.693  0.00  0.00     0.000 A 
HETATM   14  C   UNK N   1      25.919  27.931  -3.726  0.00  0.00     0.001 A 
HETATM   15  C   UNK N   1      26.804  26.843  -3.744  0.00  0.00     0.009 A 
ENDBRANCH   1  10
BRANCH   1  16
HETATM   16  C   UNK N   1      27.289  23.508  -5.777  0.00  0.00    -0.035 A 
HETATM   17  C   UNK N   1      28.269  22.777  -6.481  0.00  0.00     0.009 A 
HETATM   18  C   UNK N   1      27.914  21.857  -7.474  0.00  0.00     0.001 A 
HETATM   19  C   UNK N   1      26.570  21.641  -7.781  0.00  0.00     0.000 A 
HETATM   20  C   UNK N   1      25.581  22.341  -7.094  0.00  0.00     0.001 A 
HETATM   21  C   UNK N   1      25.939  23.278  -6.125  0.00  0.00     0.009 A 
ENDBRANCH   1  16
BRANCH   1  22
HETATM   22  C   UNK N   1      27.803  24.124  -3.424  0.00  0.00     0.277 C 
HETATM   23  O   UNK N   1      26.820  23.763  -2.804  0.00  0.00    -0.264 OA
BRANCH  22  24
HETATM   24  O   UNK N   1      29.049  24.015  -2.878  0.00  0.00    -0.321 OA
BRANCH  24  25
HETATM   25  C   UNK N   1      29.533  22.879  -2.282  0.00  0.00     0.174 C 
HETATM   26  C   UNK N   1      30.126  21.984  -3.355  0.00  0.00     0.034 C 
ENDBRANCH  24  25
ENDBRANCH  22  24
ENDBRANCH   1  22
TORSDOF 8
ENDMDL
MODEL 4
REMARK VINA RESULT:      -6.2      8.732     12.497
REMARK  8 active torsions:
REMARK  status: ('A' for Active; 'I' for Inactive)
REMARK    1  A    between atoms: O_2  and  C_12 
REMARK    2  A    between atoms: O_2  and  C_25 
REMARK    3  A    between atoms: N_4  and  C_7 
REMARK    4  A    between atoms: C_5  and  C_6 
REMARK    5  A    between atoms: C_5  and  C_10 
REMARK    6  A    between atoms: C_5  and  C_11 
REMARK    7  A    between atoms: C_5  and  C_12 
REMARK    8  A    between atoms: C_6  and  C_7 
ROOT
HETATM    1  C   UNK N   1      29.334  17.056   5.595  0.00  0.00     0.103 C 
ENDROOT
BRANCH   1   2
HETATM    2  C   UNK N   1      29.933  16.947   7.038  0.00  0.00     0.060 C 
BRANCH   2   3
HETATM    3  C   UNK N   1      30.973  15.815   7.044  0.00  0.00     0.274 C 
BRANCH   3   4
HETATM    4  N   UNK N   1      32.214  16.131   7.712  0.00  0.00     0.092 N 
HETATM    5  C   UNK N   1      32.176  17.597   7.815  0.00  0.00     0.298 C 
HETATM    6  C   UNK N   1      33.578  18.183   7.976  0.00  0.00     0.198 C 
HETATM    7  O   UNK N   1      34.356  17.811   6.870  0.00  0.00    -0.388 OA
HETATM    8  C   UNK N   1      34.570  16.432   7.013  0.00  0.00     0.198 C 
HETATM    9  C   UNK N   1      33.253  15.696   6.767  0.00  0.00     0.298 C 
ENDBRANCH   3   4
ENDBRANCH   2   3
ENDBRANCH   1   2
BRANCH   1  10
HETATM   10  C   UNK N   1      28.580  18.395   5.477  0.00  0.00    -0.035 A 
HETATM   11  C   UNK N   1      28.220  19.102   6.649  0.00  0.00     0.009 A 
HETATM   12  C   UNK N   1      27.451  20.261   6.592  0.00  0.00     0.001 A 
HETATM   13  C   UNK N   1      27.006  20.732   5.359  0.00  0.00     0.000 A 
HETATM   14  C   UNK N   1      27.329  20.038   4.189  0.00  0.00     0.001 A 
HETATM   15  C   UNK N   1      28.100  18.867   4.245  0.00  0.00     0.009 A 
ENDBRANCH   1  10
BRANCH   1  16
HETATM   16  C   UNK N   1      30.478  16.814   4.563  0.00  0.00    -0.035 A 
HETATM   17  C   UNK N   1      30.684  15.539   3.994  0.00  0.00     0.009 A 
HETATM   18  C   UNK N   1      31.823  15.262   3.229  0.00  0.00     0.001 A 
HETATM   19  C   UNK N   1      32.778  16.255   3.007  0.00  0.00     0.000 A 
HETATM   20  C   UNK N   1      32.594  17.526   3.547  0.00  0.00     0.001 A 
HETATM   21  C   UNK N   1      31.473  17.792   4.333  0.00  0.00     0.009 A 
ENDBRANCH   1  16
BRANCH   1  22
HETATM   22  C   UNK N   1      28.269  15.990   5.350  0.00  0.00     0.277 C 
HETATM   23  O   UNK N   1      27.975  15.635   4.223  0.00  0.00    -0.264 OA
BRANCH  22  24
HETATM   24  O   UNK N   1      27.665  15.429   6.437  0.00  0.00    -0.321 OA
BRANCH  24  25
HETATM   25  C   UNK N   1      26.390  15.724   6.849  0.00  0.00     0.174 C 
HETATM   26  C   UNK N   1      25.459  14.628   6.363  0.00  0.00     0.034 C 
ENDBRANCH  24  25
ENDBRANCH  22  24
ENDBRANCH   1  22
TORSDOF 8
ENDMDL
MODEL 5
REMARK VINA RESULT:      -6.2     13.530     16.067
REMARK  8 active torsions:
REMARK  status: ('A' for Active; 'I' for Inactive)
REMARK    1  A    between atoms: O_2  and  C_12 
REMARK    2  A    between atoms: O_2  and  C_25 
REMARK    3  A    between atoms: N_4  and  C_7 
REMARK    4  A    between atoms: C_5  and  C_6 
REMARK    5  A    between atoms: C_5  and  C_10 
REMARK    6  A    between atoms: C_5  and  C_11 
REMARK    7  A    between atoms: C_5  and  C_12 
REMARK    8  A    between atoms: C_6  and  C_7 
ROOT
HETATM    1  C   UNK N   1      21.579  14.342   7.911  0.00  0.00     0.103 C 
ENDROOT
BRANCH   1   2
HETATM    2  C   UNK N   1      22.765  14.951   7.091  0.00  0.00     0.060 C 
BRANCH   2   3
HETATM    3  C   UNK N   1      22.571  14.578   5.612  0.00  0.00     0.274 C 
BRANCH   3   4
HETATM    4  N   UNK N   1      22.901  15.623   4.671  0.00  0.00     0.092 N 
HETATM    5  C   UNK N   1      23.679  16.570   5.482  0.00  0.00     0.298 C 
HETATM    6  C   UNK N   1      23.665  17.971   4.872  0.00  0.00     0.198 C 
HETATM    7  O   UNK N   1      22.337  18.413   4.780  0.00  0.00    -0.388 OA
HETATM    8  C   UNK N   1      21.751  17.626   3.780  0.00  0.00     0.198 C 
HETATM    9  C   UNK N   1      21.599  16.195   4.297  0.00  0.00     0.298 C 
ENDBRANCH   3   4
ENDBRANCH   2   3
ENDBRANCH   1   2
BRANCH   1  10
HETATM   10  C   UNK N   1      22.159  13.422   9.003  0.00  0.00    -0.035 A 
HETATM   11  C   UNK N   1      21.325  12.964  10.050  0.00  0.00     0.009 A 
HETATM   12  C   UNK N   1      21.831  12.216  11.110  0.00  0.00     0.001 A 
HETATM   13  C   UNK N   1      23.191  11.924  11.158  0.00  0.00     0.000 A 
HETATM   14  C   UNK N   1      24.041  12.385  10.147  0.00  0.00     0.001 A 
HETATM   15  C   UNK N   1      23.533  13.142   9.081  0.00  0.00     0.009 A 
ENDBRANCH   1  10
BRANCH   1  16
HETATM   16  C   UNK N   1      20.665  15.506   8.402  0.00  0.00    -0.035 A 
HETATM   17  C   UNK N   1      19.521  15.247   9.188  0.00  0.00     0.009 A 
HETATM   18  C   UNK N   1      18.588  16.253   9.462  0.00  0.00     0.001 A 
HETATM   19  C   UNK N   1      18.780  17.543   8.965  0.00  0.00     0.000 A 
HETATM   20  C   UNK N   1      19.905  17.828   8.196  0.00  0.00     0.001 A 
HETATM   21  C   UNK N   1      20.820  16.817   7.900  0.00  0.00     0.009 A 
ENDBRANCH   1  16
BRANCH   1  22
HETATM   22  C   UNK N   1      20.718  13.420   7.049  0.00  0.00     0.277 C 
HETATM   23  O   UNK N   1      19.907  13.867   6.259  0.00  0.00    -0.264 OA
BRANCH  22  24
HETATM   24  O   UNK N   1      20.899  12.074   7.176  0.00  0.00    -0.321 OA
BRANCH  24  25
HETATM   25  C   UNK N   1      21.185  11.233   6.131  0.00  0.00     0.174 C 
HETATM   26  C   UNK N   1      22.656  10.865   6.195  0.00  0.00     0.034 C 
ENDBRANCH  24  25
ENDBRANCH  22  24
ENDBRANCH   1  22
TORSDOF 8
ENDMDL
MODEL 6
REMARK VINA RESULT:      -6.1      5.703      9.525
REMARK  8 active torsions:
REMARK  status: ('A' for Active; 'I' for Inactive)
REMARK    1  A    between atoms: O_2  and  C_12 
REMARK    2  A    between atoms: O_2  and  C_25 
REMARK    3  A    between atoms: N_4  and  C_7 
REMARK    4  A    between atoms: C_5  and  C_6 
REMARK    5  A    between atoms: C_5  and  C_10 
REMARK    6  A    between atoms: C_5  and  C_11 
REMARK    7  A    between atoms: C_5  and  C_12 
REMARK    8  A    between atoms: C_6  and  C_7 
ROOT
HETATM    1  C   UNK N   1      32.784  16.142   7.724  0.00  0.00     0.103 C 
ENDROOT
BRANCH   1   2
HETATM    2  C   UNK N   1      32.492  14.709   7.165  0.00  0.00     0.060 C 
BRANCH   2   3
HETATM    3  C   UNK N   1      33.710  14.254   6.345  0.00  0.00     0.274 C 
BRANCH   3   4
HETATM    4  N   UNK N   1      33.395  13.572   5.111  0.00  0.00     0.092 N 
HETATM    5  C   UNK N   1      34.424  14.063   4.184  0.00  0.00     0.298 C 
HETATM    6  C   UNK N   1      33.980  13.919   2.729  0.00  0.00     0.198 C 
HETATM    7  O   UNK N   1      32.795  14.646   2.541  0.00  0.00    -0.388 OA
HETATM    8  C   UNK N   1      31.809  13.940   3.245  0.00  0.00     0.198 C 
HETATM    9  C   UNK N   1      32.067  14.087   4.745  0.00  0.00     0.298 C 
ENDBRANCH   3   4
ENDBRANCH   2   3
ENDBRANCH   1   2
BRANCH   1  10
HETATM   10  C   UNK N   1      31.459  16.927   7.779  0.00  0.00    -0.035 A 
HETATM   11  C   UNK N   1      31.306  17.981   8.710  0.00  0.00     0.009 A 
HETATM   12  C   UNK N   1      30.093  18.648   8.862  0.00  0.00     0.001 A 
HETATM   13  C   UNK N   1      28.996  18.262   8.097  0.00  0.00     0.000 A 
HETATM   14  C   UNK N   1      29.115  17.208   7.186  0.00  0.00     0.001 A 
HETATM   15  C   UNK N   1      30.335  16.532   7.035  0.00  0.00     0.009 A 
ENDBRANCH   1  10
BRANCH   1  16
HETATM   16  C   UNK N   1      33.559  16.002   9.070  0.00  0.00    -0.035 A 
HETATM   17  C   UNK N   1      34.534  16.950   9.448  0.00  0.00     0.009 A 
HETATM   18  C   UNK N   1      35.374  16.728  10.545  0.00  0.00     0.001 A 
HETATM   19  C   UNK N   1      35.253  15.558  11.296  0.00  0.00     0.000 A 
HETATM   20  C   UNK N   1      34.292  14.611  10.953  0.00  0.00     0.001 A 
HETATM   21  C   UNK N   1      33.475  14.821   9.841  0.00  0.00     0.009 A 
ENDBRANCH   1  16
BRANCH   1  22
HETATM   22  C   UNK N   1      33.668  16.945   6.772  0.00  0.00     0.277 C 
HETATM   23  O   UNK N   1      34.882  16.856   6.808  0.00  0.00    -0.264 OA
BRANCH  22  24
HETATM   24  O   UNK N   1      33.055  17.754   5.861  0.00  0.00    -0.321 OA
BRANCH  24  25
HETATM   25  C   UNK N   1      33.145  17.589   4.502  0.00  0.00     0.174 C 
HETATM   26  C   UNK N   1      31.752  17.704   3.908  0.00  0.00     0.034 C 
ENDBRANCH  24  25
ENDBRANCH  22  24
ENDBRANCH   1  22
TORSDOF 8
ENDMDL
MODEL 7
REMARK VINA RESULT:      -6.1     20.730     25.740
REMARK  8 active torsions:
REMARK  status: ('A' for Active; 'I' for Inactive)
REMARK    1  A    between atoms: O_2  and  C_12 
REMARK    2  A    between atoms: O_2  and  C_25 
REMARK    3  A    between atoms: N_4  and  C_7 
REMARK    4  A    between atoms: C_5  and  C_6 
REMARK    5  A    between atoms: C_5  and  C_10 
REMARK    6  A    between atoms: C_5  and  C_11 
REMARK    7  A    between atoms: C_5  and  C_12 
REMARK    8  A    between atoms: C_6  and  C_7 
ROOT
HETATM    1  C   UNK N   1      26.695  26.097  -5.908  0.00  0.00     0.103 C 
ENDROOT
BRANCH   1   2
HETATM    2  C   UNK N   1      27.691  25.592  -4.811  0.00  0.00     0.060 C 
BRANCH   2   3
HETATM    3  C   UNK N   1      28.821  24.815  -5.506  0.00  0.00     0.274 C 
BRANCH   3   4
HETATM    4  N   UNK N   1      29.328  23.683  -4.765  0.00  0.00     0.092 N 
HETATM    5  C   UNK N   1      28.626  23.784  -3.478  0.00  0.00     0.298 C 
HETATM    6  C   UNK N   1      29.381  23.051  -2.370  0.00  0.00     0.198 C 
HETATM    7  O   UNK N   1      30.663  23.608  -2.249  0.00  0.00    -0.388 OA
HETATM    8  C   UNK N   1      31.348  23.221  -3.409  0.00  0.00     0.198 C 
HETATM    9  C   UNK N   1      30.761  23.970  -4.607  0.00  0.00     0.298 C 
ENDBRANCH   3   4
ENDBRANCH   2   3
ENDBRANCH   1   2
BRANCH   1  10
HETATM   10  C   UNK N   1      27.443  27.072  -6.839  0.00  0.00    -0.035 A 
HETATM   11  C   UNK N   1      27.817  26.653  -8.137  0.00  0.00     0.009 A 
HETATM   12  C   UNK N   1      28.581  27.464  -8.972  0.00  0.00     0.001 A 
HETATM   13  C   UNK N   1      29.008  28.709  -8.519  0.00  0.00     0.000 A 
HETATM   14  C   UNK N   1      28.671  29.137  -7.230  0.00  0.00     0.001 A 
HETATM   15  C   UNK N   1      27.905  28.319  -6.387  0.00  0.00     0.009 A 
ENDBRANCH   1  10
BRANCH   1  16
HETATM   16  C   UNK N   1      26.037  24.859  -6.590  0.00  0.00    -0.035 A 
HETATM   17  C   UNK N   1      25.864  23.649  -5.883  0.00  0.00     0.009 A 
HETATM   18  C   UNK N   1      25.466  22.478  -6.537  0.00  0.00     0.001 A 
HETATM   19  C   UNK N   1      25.222  22.490  -7.911  0.00  0.00     0.000 A 
HETATM   20  C   UNK N   1      25.373  23.673  -8.631  0.00  0.00     0.001 A 
HETATM   21  C   UNK N   1      25.799  24.832  -7.982  0.00  0.00     0.009 A 
ENDBRANCH   1  16
BRANCH   1  22
HETATM   22  C   UNK N   1      25.570  26.933  -5.301  0.00  0.00     0.277 C 
HETATM   23  O   UNK N   1      24.594  27.252  -5.954  0.00  0.00    -0.264 OA
BRANCH  22  24
HETATM   24  O   UNK N   1      25.680  27.295  -3.990  0.00  0.00    -0.321 OA
BRANCH  24  25
HETATM   25  C   UNK N   1      25.841  28.587  -3.559  0.00  0.00     0.174 C 
HETATM   26  C   UNK N   1      27.194  28.705  -2.880  0.00  0.00     0.034 C 
ENDBRANCH  24  25
ENDBRANCH  22  24
ENDBRANCH   1  22
TORSDOF 8
ENDMDL
MODEL 8
REMARK VINA RESULT:      -6.1      5.215     10.189
REMARK  8 active torsions:
REMARK  status: ('A' for Active; 'I' for Inactive)
REMARK    1  A    between atoms: O_2  and  C_12 
REMARK    2  A    between atoms: O_2  and  C_25 
REMARK    3  A    between atoms: N_4  and  C_7 
REMARK    4  A    between atoms: C_5  and  C_6 
REMARK    5  A    between atoms: C_5  and  C_10 
REMARK    6  A    between atoms: C_5  and  C_11 
REMARK    7  A    between atoms: C_5  and  C_12 
REMARK    8  A    between atoms: C_6  and  C_7 
ROOT
HETATM    1  C   UNK N   1      32.008  16.501   7.152  0.00  0.00     0.103 C 
ENDROOT
BRANCH   1   2
HETATM    2  C   UNK N   1      33.332  17.201   7.609  0.00  0.00     0.060 C 
BRANCH   2   3
HETATM    3  C   UNK N   1      34.490  16.203   7.436  0.00  0.00     0.274 C 
BRANCH   3   4
HETATM    4  N   UNK N   1      35.385  16.107   8.566  0.00  0.00     0.092 N 
HETATM    5  C   UNK N   1      35.414  14.664   8.848  0.00  0.00     0.298 C 
HETATM    6  C   UNK N   1      35.835  14.385  10.290  0.00  0.00     0.198 C 
HETATM    7  O   UNK N   1      34.930  15.014  11.158  0.00  0.00    -0.388 OA
HETATM    8  C   UNK N   1      35.172  16.387  11.017  0.00  0.00     0.198 C 
HETATM    9  C   UNK N   1      34.693  16.839   9.637  0.00  0.00     0.298 C 
ENDBRANCH   3   4
ENDBRANCH   2   3
ENDBRANCH   1   2
BRANCH   1  10
HETATM   10  C   UNK N   1      30.824  17.171   7.876  0.00  0.00    -0.035 A 
HETATM   11  C   UNK N   1      29.504  16.940   7.423  0.00  0.00     0.009 A 
HETATM   12  C   UNK N   1      28.416  17.604   7.983  0.00  0.00     0.001 A 
HETATM   13  C   UNK N   1      28.625  18.532   9.000  0.00  0.00     0.000 A 
HETATM   14  C   UNK N   1      29.923  18.795   9.450  0.00  0.00     0.001 A 
HETATM   15  C   UNK N   1      31.020  18.130   8.883  0.00  0.00     0.009 A 
ENDBRANCH   1  10
BRANCH   1  16
HETATM   16  C   UNK N   1      31.957  16.504   5.594  0.00  0.00    -0.035 A 
HETATM   17  C   UNK N   1      32.934  17.186   4.837  0.00  0.00     0.009 A 
HETATM   18  C   UNK N   1      32.787  17.366   3.457  0.00  0.00     0.001 A 
HETATM   19  C   UNK N   1      31.664  16.863   2.799  0.00  0.00     0.000 A 
HETATM   20  C   UNK N   1      30.690  16.176   3.520  0.00  0.00     0.001 A 
HETATM   21  C   UNK N   1      30.825  16.022   4.900  0.00  0.00     0.009 A 
ENDBRANCH   1  16
BRANCH   1  22
HETATM   22  C   UNK N   1      31.962  15.043   7.605  0.00  0.00     0.277 C 
HETATM   23  O   UNK N   1      31.930  14.747   8.785  0.00  0.00    -0.264 OA
BRANCH  22  24
HETATM   24  O   UNK N   1      31.935  14.076   6.643  0.00  0.00    -0.321 OA
BRANCH  24  25
HETATM   25  C   UNK N   1      32.920  13.138   6.466  0.00  0.00     0.174 C 
HETATM   26  C   UNK N   1      33.282  13.090   4.992  0.00  0.00     0.034 C 
ENDBRANCH  24  25
ENDBRANCH  22  24
ENDBRANCH   1  22
TORSDOF 8
ENDMDL
MODEL 9
REMARK VINA RESULT:      -6.1     21.038     24.491
REMARK  8 active torsions:
REMARK  status: ('A' for Active; 'I' for Inactive)
REMARK    1  A    between atoms: O_2  and  C_12 
REMARK    2  A    between atoms: O_2  and  C_25 
REMARK    3  A    between atoms: N_4  and  C_7 
REMARK    4  A    between atoms: C_5  and  C_6 
REMARK    5  A    between atoms: C_5  and  C_10 
REMARK    6  A    between atoms: C_5  and  C_11 
REMARK    7  A    between atoms: C_5  and  C_12 
REMARK    8  A    between atoms: C_6  and  C_7 
ROOT
HETATM    1  C   UNK N   1      27.577  23.911  -5.554  0.00  0.00     0.103 C 
ENDROOT
BRANCH   1   2
HETATM    2  C   UNK N   1      26.419  24.575  -4.736  0.00  0.00     0.060 C 
BRANCH   2   3
HETATM    3  C   UNK N   1      25.857  25.746  -5.560  0.00  0.00     0.274 C 
BRANCH   3   4
HETATM    4  N   UNK N   1      25.700  26.983  -4.831  0.00  0.00     0.092 N 
HETATM    5  C   UNK N   1      26.403  27.961  -5.674  0.00  0.00     0.298 C 
HETATM    6  C   UNK N   1      26.836  29.184  -4.868  0.00  0.00     0.198 C 
HETATM    7  O   UNK N   1      27.680  28.769  -3.828  0.00  0.00    -0.388 OA
HETATM    8  C   UNK N   1      26.854  28.075  -2.932  0.00  0.00     0.198 C 
HETATM    9  C   UNK N   1      26.424  26.755  -3.572  0.00  0.00     0.298 C 
ENDBRANCH   3   4
ENDBRANCH   2   3
ENDBRANCH   1   2
BRANCH   1  10
HETATM   10  C   UNK N   1      28.592  23.306  -4.564  0.00  0.00    -0.035 A 
HETATM   11  C   UNK N   1      28.494  23.613  -3.186  0.00  0.00     0.009 A 
HETATM   12  C   UNK N   1      29.448  23.170  -2.273  0.00  0.00     0.001 A 
HETATM   13  C   UNK N   1      30.535  22.424  -2.720  0.00  0.00     0.000 A 
HETATM   14  C   UNK N   1      30.666  22.127  -4.081  0.00  0.00     0.001 A 
HETATM   15  C   UNK N   1      29.708  22.576  -5.002  0.00  0.00     0.009 A 
ENDBRANCH   1  10
BRANCH   1  16
HETATM   16  C   UNK N   1      26.953  22.928  -6.591  0.00  0.00    -0.035 A 
HETATM   17  C   UNK N   1      25.563  22.687  -6.616  0.00  0.00     0.009 A 
HETATM   18  C   UNK N   1      25.018  21.663  -7.399  0.00  0.00     0.001 A 
HETATM   19  C   UNK N   1      25.849  20.861  -8.182  0.00  0.00     0.000 A 
HETATM   20  C   UNK N   1      27.224  21.085  -8.186  0.00  0.00     0.001 A 
HETATM   21  C   UNK N   1      27.767  22.087  -7.382  0.00  0.00     0.009 A 
ENDBRANCH   1  16
BRANCH   1  22
HETATM   22  C   UNK N   1      28.377  24.950  -6.337  0.00  0.00     0.277 C 
HETATM   23  O   UNK N   1      28.350  24.985  -7.553  0.00  0.00    -0.264 OA
BRANCH  22  24
HETATM   24  O   UNK N   1      29.111  25.857  -5.630  0.00  0.00    -0.321 OA
BRANCH  24  25
HETATM   25  C   UNK N   1      30.428  26.145  -5.880  0.00  0.00     0.174 C 
HETATM   26  C   UNK N   1      31.213  25.980  -4.591  0.00  0.00     0.034 C 
ENDBRANCH  24  25
ENDBRANCH  22  24
ENDBRANCH   1  22
TORSDOF 8
ENDMDL
