REMARK  1 active torsions:
REMARK  status: ('A' for Active; 'I' for Inactive)
REMARK    1  A    between atoms: C_7  and  C_12 
ROOT
HETATM    1 Br   UNK N   1      -0.530  -0.068   2.078  0.00  0.00    -0.051 Br
HETATM    2  O   UNK N   1       5.036  -0.311   1.872  0.00  0.00    -0.343 OA
HETATM    3  O   UNK N   1       6.118   3.524  -1.295  0.00  0.00    -0.271 OA
HETATM    4  N   UNK N   1       5.704   0.446  -0.213  0.00  0.00     0.144 N 
HETATM    5  N   UNK N   1       4.079   2.873  -0.713  0.00  0.00    -0.325 N 
HETATM    6  C   UNK N   1       4.568  -0.082   0.556  0.00  0.00     0.323 C 
HETATM    7  C   UNK N   1       6.787  -0.367   0.297  0.00  0.00     0.304 C 
HETATM    8  C   UNK N   1       3.304   0.816   0.600  0.00  0.00     0.040 A 
HETATM    9  C   UNK N   1       6.401  -0.649   1.734  0.00  0.00     0.202 C 
HETATM   10  C   UNK N   1       6.056   1.783   0.235  0.00  0.00     0.380 C 
HETATM   11  C   UNK N   1       3.103   2.110  -0.015  0.00  0.00     0.046 A 
HETATM   12  C   UNK N   1       5.421   2.767  -0.646  0.00  0.00     0.250 C 
HETATM   13  C   UNK N   1       2.195   0.226   1.246  0.00  0.00     0.034 A 
HETATM   14  C   UNK N   1       1.828   2.691   0.042  0.00  0.00     0.031 A 
HETATM   15  C   UNK N   1       0.944   0.832   1.275  0.00  0.00     0.011 A 
HETATM   16  C   UNK N   1       0.759   2.063   0.668  0.00  0.00     0.021 A 
HETATM   17  H   UNK N   1       3.732   3.566  -1.320  0.00  0.00     0.169 HD
ENDROOT
BRANCH   6  18
HETATM   18  C   UNK N   1       4.088  -1.408  -0.088  0.00  0.00     0.051 A 
HETATM   19  C   UNK N   1       4.118  -2.660   0.588  0.00  0.00     0.128 A 
HETATM   20  F   UNK N   1       4.625  -2.791   1.838  0.00  0.00    -0.205 F 
HETATM   21  C   UNK N   1       3.597  -3.802  -0.026  0.00  0.00     0.043 A 
HETATM   22  C   UNK N   1       3.038  -3.728  -1.300  0.00  0.00     0.003 A 
HETATM   23  C   UNK N   1       3.007  -2.510  -1.978  0.00  0.00     0.001 A 
HETATM   24  C   UNK N   1       3.530  -1.361  -1.380  0.00  0.00     0.015 A 
ENDBRANCH   6  18
TORSDOF 1
