MODEL 1
REMARK VINA RESULT:      -7.1      0.000      0.000
REMARK  1 active torsions:
REMARK  status: ('A' for Active; 'I' for Inactive)
REMARK    1  A    between atoms: C_7  and  C_12 
ROOT
HETATM    1 Br   UNK N   1      27.748  16.994   6.643  0.00  0.00    -0.051 Br
HETATM    2  O   UNK N   1      32.393  14.032   7.498  0.00  0.00    -0.343 OA
HETATM    3  O   UNK N   1      35.319  17.391   9.960  0.00  0.00    -0.271 OA
HETATM    4  N   UNK N   1      34.182  15.504   7.519  0.00  0.00     0.144 N 
HETATM    5  N   UNK N   1      33.283  17.791   9.175  0.00  0.00    -0.325 N 
HETATM    6  C   UNK N   1      32.782  15.334   7.103  0.00  0.00     0.323 C 
HETATM    7  C   UNK N   1      34.725  14.199   7.207  0.00  0.00     0.304 C 
HETATM    8  C   UNK N   1      31.777  16.373   7.666  0.00  0.00     0.040 A 
HETATM    9  C   UNK N   1      33.567  13.248   7.424  0.00  0.00     0.202 C 
HETATM   10  C   UNK N   1      34.288  15.568   8.967  0.00  0.00     0.380 C 
HETATM   11  C   UNK N   1      32.042  17.484   8.553  0.00  0.00     0.046 A 
HETATM   12  C   UNK N   1      34.333  16.972   9.383  0.00  0.00     0.250 C 
HETATM   13  C   UNK N   1      30.467  16.250   7.153  0.00  0.00     0.034 A 
HETATM   14  C   UNK N   1      31.002  18.383   8.834  0.00  0.00     0.031 A 
HETATM   15  C   UNK N   1      29.464  17.166   7.450  0.00  0.00     0.011 A 
HETATM   16  C   UNK N   1      29.734  18.237   8.287  0.00  0.00     0.021 A 
HETATM   17  H   UNK N   1      33.389  18.716   9.494  0.00  0.00     0.169 HD
ENDROOT
BRANCH   6  18
HETATM   18  C   UNK N   1      32.685  15.485   5.563  0.00  0.00     0.051 A 
HETATM   19  C   UNK N   1      33.189  16.613   4.856  0.00  0.00     0.128 A 
HETATM   20  F   UNK N   1      33.747  17.671   5.493  0.00  0.00    -0.205 F 
HETATM   21  C   UNK N   1      33.137  16.648   3.460  0.00  0.00     0.043 A 
HETATM   22  C   UNK N   1      32.599  15.579   2.746  0.00  0.00     0.003 A 
HETATM   23  C   UNK N   1      32.095  14.470   3.424  0.00  0.00     0.001 A 
HETATM   24  C   UNK N   1      32.134  14.424   4.820  0.00  0.00     0.015 A 
ENDBRANCH   6  18
TORSDOF 1
ENDMDL
MODEL 2
REMARK VINA RESULT:      -6.8     14.421     16.373
REMARK  1 active torsions:
REMARK  status: ('A' for Active; 'I' for Inactive)
REMARK    1  A    between atoms: C_7  and  C_12 
ROOT
HETATM    1 Br   UNK N   1      27.967  29.265  -2.526  0.00  0.00    -0.051 Br
HETATM    2  O   UNK N   1      29.501  25.539  -6.379  0.00  0.00    -0.343 OA
HETATM    3  O   UNK N   1      24.993  23.969  -8.147  0.00  0.00    -0.271 OA
HETATM    4  N   UNK N   1      27.844  23.925  -6.507  0.00  0.00     0.144 N 
HETATM    5  N   UNK N   1      25.293  25.433  -6.507  0.00  0.00    -0.325 N 
HETATM    6  C   UNK N   1      28.405  24.994  -5.668  0.00  0.00     0.323 C 
HETATM    7  C   UNK N   1      29.050  23.321  -7.031  0.00  0.00     0.304 C 
HETATM    8  C   UNK N   1      27.424  26.128  -5.271  0.00  0.00     0.040 A 
HETATM    9  C   UNK N   1      30.032  24.468  -7.133  0.00  0.00     0.202 C 
HETATM   10  C   UNK N   1      27.210  24.476  -7.693  0.00  0.00     0.380 C 
HETATM   11  C   UNK N   1      26.029  26.271  -5.625  0.00  0.00     0.046 A 
HETATM   12  C   UNK N   1      25.769  24.600  -7.453  0.00  0.00     0.250 C 
HETATM   13  C   UNK N   1      27.964  27.073  -4.370  0.00  0.00     0.034 A 
HETATM   14  C   UNK N   1      25.290  27.312  -5.044  0.00  0.00     0.031 A 
HETATM   15  C   UNK N   1      27.196  28.088  -3.810  0.00  0.00     0.011 A 
HETATM   16  C   UNK N   1      25.857  28.204  -4.143  0.00  0.00     0.021 A 
HETATM   17  H   UNK N   1      24.313  25.466  -6.417  0.00  0.00     0.169 HD
ENDROOT
BRANCH   6  18
HETATM   18  C   UNK N   1      28.878  24.390  -4.321  0.00  0.00     0.051 A 
HETATM   19  C   UNK N   1      27.993  23.795  -3.379  0.00  0.00     0.128 A 
HETATM   20  F   UNK N   1      26.652  23.762  -3.572  0.00  0.00    -0.205 F 
HETATM   21  C   UNK N   1      28.498  23.200  -2.220  0.00  0.00     0.043 A 
HETATM   22  C   UNK N   1      29.870  23.178  -1.976  0.00  0.00     0.003 A 
HETATM   23  C   UNK N   1      30.749  23.763  -2.886  0.00  0.00     0.001 A 
HETATM   24  C   UNK N   1      30.259  24.367  -4.046  0.00  0.00     0.015 A 
ENDBRANCH   6  18
TORSDOF 1
ENDMDL
MODEL 3
REMARK VINA RESULT:      -6.7     14.514     16.337
REMARK  1 active torsions:
REMARK  status: ('A' for Active; 'I' for Inactive)
REMARK    1  A    between atoms: C_7  and  C_12 
ROOT
HETATM    1 Br   UNK N   1      31.280  29.167  -1.958  0.00  0.00    -0.051 Br
HETATM    2  O   UNK N   1      29.122  26.224  -6.172  0.00  0.00    -0.343 OA
HETATM    3  O   UNK N   1      24.151  27.194  -5.666  0.00  0.00    -0.271 OA
HETATM    4  N   UNK N   1      26.995  25.547  -5.551  0.00  0.00     0.144 N 
HETATM    5  N   UNK N   1      25.749  27.938  -4.321  0.00  0.00    -0.325 N 
HETATM    6  C   UNK N   1      28.286  26.035  -5.045  0.00  0.00     0.323 C 
HETATM    7  C   UNK N   1      27.429  24.641  -6.592  0.00  0.00     0.304 C 
HETATM    8  C   UNK N   1      28.236  27.340  -4.207  0.00  0.00     0.040 A 
HETATM    9  C   UNK N   1      28.712  25.253  -7.113  0.00  0.00     0.202 C 
HETATM   10  C   UNK N   1      26.301  26.589  -6.289  0.00  0.00     0.380 C 
HETATM   11  C   UNK N   1      27.081  28.140  -3.865  0.00  0.00     0.046 A 
HETATM   12  C   UNK N   1      25.337  27.245  -5.400  0.00  0.00     0.250 C 
HETATM   13  C   UNK N   1      29.475  27.713  -3.640  0.00  0.00     0.034 A 
HETATM   14  C   UNK N   1      27.246  29.216  -2.981  0.00  0.00     0.031 A 
HETATM   15  C   UNK N   1      29.596  28.784  -2.762  0.00  0.00     0.011 A 
HETATM   16  C   UNK N   1      28.480  29.532  -2.427  0.00  0.00     0.021 A 
HETATM   17  H   UNK N   1      25.040  28.358  -3.782  0.00  0.00     0.169 HD
ENDROOT
BRANCH   6  18
HETATM   18  C   UNK N   1      28.894  24.976  -4.090  0.00  0.00     0.051 A 
HETATM   19  C   UNK N   1      28.118  24.221  -3.166  0.00  0.00     0.128 A 
HETATM   20  F   UNK N   1      26.785  24.417  -3.016  0.00  0.00    -0.205 F 
HETATM   21  C   UNK N   1      28.721  23.227  -2.391  0.00  0.00     0.043 A 
HETATM   22  C   UNK N   1      30.082  22.959  -2.517  0.00  0.00     0.003 A 
HETATM   23  C   UNK N   1      30.857  23.694  -3.413  0.00  0.00     0.001 A 
HETATM   24  C   UNK N   1      30.270  24.695  -4.191  0.00  0.00     0.015 A 
ENDBRANCH   6  18
TORSDOF 1
ENDMDL
MODEL 4
REMARK VINA RESULT:      -6.6     14.413     16.446
REMARK  1 active torsions:
REMARK  status: ('A' for Active; 'I' for Inactive)
REMARK    1  A    between atoms: C_7  and  C_12 
ROOT
HETATM    1 Br   UNK N   1      30.977  20.855  -5.362  0.00  0.00    -0.051 Br
HETATM    2  O   UNK N   1      28.095  25.094  -7.555  0.00  0.00    -0.343 OA
HETATM    3  O   UNK N   1      25.846  27.053  -3.431  0.00  0.00    -0.271 OA
HETATM    4  N   UNK N   1      26.202  25.413  -6.259  0.00  0.00     0.144 N 
HETATM    5  N   UNK N   1      27.148  25.258  -3.455  0.00  0.00    -0.325 N 
HETATM    6  C   UNK N   1      27.262  24.456  -6.605  0.00  0.00     0.323 C 
HETATM    7  C   UNK N   1      25.918  25.994  -7.553  0.00  0.00     0.304 C 
HETATM    8  C   UNK N   1      28.121  23.938  -5.422  0.00  0.00     0.040 A 
HETATM    9  C   UNK N   1      27.246  25.960  -8.280  0.00  0.00     0.202 C 
HETATM   10  C   UNK N   1      26.741  26.533  -5.505  0.00  0.00     0.380 C 
HETATM   11  C   UNK N   1      28.014  24.283  -4.020  0.00  0.00     0.046 A 
HETATM   12  C   UNK N   1      26.540  26.289  -4.074  0.00  0.00     0.250 C 
HETATM   13  C   UNK N   1      29.050  22.934  -5.774  0.00  0.00     0.034 A 
HETATM   14  C   UNK N   1      28.812  23.593  -3.096  0.00  0.00     0.031 A 
HETATM   15  C   UNK N   1      29.818  22.268  -4.825  0.00  0.00     0.011 A 
HETATM   16  C   UNK N   1      29.695  22.594  -3.485  0.00  0.00     0.021 A 
HETATM   17  H   UNK N   1      26.970  25.170  -2.491  0.00  0.00     0.169 HD
ENDROOT
BRANCH   6  18
HETATM   18  C   UNK N   1      26.621  23.182  -7.214  0.00  0.00     0.051 A 
HETATM   19  C   UNK N   1      27.182  22.476  -8.315  0.00  0.00     0.128 A 
HETATM   20  F   UNK N   1      28.300  22.904  -8.950  0.00  0.00    -0.205 F 
HETATM   21  C   UNK N   1      26.592  21.291  -8.763  0.00  0.00     0.043 A 
HETATM   22  C   UNK N   1      25.456  20.784  -8.135  0.00  0.00     0.003 A 
HETATM   23  C   UNK N   1      24.891  21.468  -7.059  0.00  0.00     0.001 A 
HETATM   24  C   UNK N   1      25.465  22.658  -6.605  0.00  0.00     0.015 A 
ENDBRANCH   6  18
TORSDOF 1
ENDMDL
MODEL 5
REMARK VINA RESULT:      -6.4     13.675     15.832
REMARK  1 active torsions:
REMARK  status: ('A' for Active; 'I' for Inactive)
REMARK    1  A    between atoms: C_7  and  C_12 
ROOT
HETATM    1 Br   UNK N   1      28.507  22.230  -9.729  0.00  0.00    -0.051 Br
HETATM    2  O   UNK N   1      30.177  25.912  -5.890  0.00  0.00    -0.343 OA
HETATM    3  O   UNK N   1      30.812  22.932  -1.813  0.00  0.00    -0.271 OA
HETATM    4  N   UNK N   1      29.459  25.157  -3.821  0.00  0.00     0.144 N 
HETATM    5  N   UNK N   1      30.080  22.260  -3.796  0.00  0.00    -0.325 N 
HETATM    6  C   UNK N   1      29.252  25.038  -5.272  0.00  0.00     0.323 C 
HETATM    7  C   UNK N   1      29.677  26.581  -3.688  0.00  0.00     0.304 C 
HETATM    8  C   UNK N   1      29.405  23.612  -5.863  0.00  0.00     0.040 A 
HETATM    9  C   UNK N   1      30.350  26.982  -4.984  0.00  0.00     0.202 C 
HETATM   10  C   UNK N   1      30.739  24.590  -3.432  0.00  0.00     0.380 C 
HETATM   11  C   UNK N   1      29.731  22.385  -5.169  0.00  0.00     0.046 A 
HETATM   12  C   UNK N   1      30.533  23.217  -2.962  0.00  0.00     0.250 C 
HETATM   13  C   UNK N   1      29.084  23.514  -7.235  0.00  0.00     0.034 A 
HETATM   14  C   UNK N   1      29.689  21.178  -5.880  0.00  0.00     0.031 A 
HETATM   15  C   UNK N   1      29.046  22.296  -7.904  0.00  0.00     0.011 A 
HETATM   16  C   UNK N   1      29.344  21.126  -7.225  0.00  0.00     0.021 A 
HETATM   17  H   UNK N   1      29.979  21.362  -3.405  0.00  0.00     0.169 HD
ENDROOT
BRANCH   6  18
HETATM   18  C   UNK N   1      27.799  25.453  -5.616  0.00  0.00     0.051 A 
HETATM   19  C   UNK N   1      26.657  24.921  -4.954  0.00  0.00     0.128 A 
HETATM   20  F   UNK N   1      26.759  23.961  -4.003  0.00  0.00    -0.205 F 
HETATM   21  C   UNK N   1      25.380  25.399  -5.262  0.00  0.00     0.043 A 
HETATM   22  C   UNK N   1      25.211  26.403  -6.213  0.00  0.00     0.003 A 
HETATM   23  C   UNK N   1      26.319  26.931  -6.874  0.00  0.00     0.001 A 
HETATM   24  C   UNK N   1      27.601  26.459  -6.582  0.00  0.00     0.015 A 
ENDBRANCH   6  18
TORSDOF 1
ENDMDL
MODEL 6
REMARK VINA RESULT:      -6.4     16.402     18.525
REMARK  1 active torsions:
REMARK  status: ('A' for Active; 'I' for Inactive)
REMARK    1  A    between atoms: C_7  and  C_12 
ROOT
HETATM    1 Br   UNK N   1      29.854  29.030  -9.032  0.00  0.00    -0.051 Br
HETATM    2  O   UNK N   1      28.352  24.755  -5.784  0.00  0.00    -0.343 OA
HETATM    3  O   UNK N   1      24.402  22.841  -8.360  0.00  0.00    -0.271 OA
HETATM    4  N   UNK N   1      26.069  24.447  -6.024  0.00  0.00     0.144 N 
HETATM    5  N   UNK N   1      25.564  24.640  -8.937  0.00  0.00    -0.325 N 
HETATM    6  C   UNK N   1      27.170  25.403  -6.213  0.00  0.00     0.323 C 
HETATM    7  C   UNK N   1      26.435  23.849  -4.758  0.00  0.00     0.304 C 
HETATM    8  C   UNK N   1      27.362  25.938  -7.657  0.00  0.00     0.040 A 
HETATM    9  C   UNK N   1      27.949  23.877  -4.753  0.00  0.00     0.202 C 
HETATM   10  C   UNK N   1      26.179  23.339  -6.957  0.00  0.00     0.380 C 
HETATM   11  C   UNK N   1      26.599  25.611  -8.841  0.00  0.00     0.046 A 
HETATM   12  C   UNK N   1      25.321  23.600  -8.116  0.00  0.00     0.250 C 
HETATM   13  C   UNK N   1      28.349  26.940  -7.777  0.00  0.00     0.034 A 
HETATM   14  C   UNK N   1      26.861  26.315 -10.026  0.00  0.00     0.031 A 
HETATM   15  C   UNK N   1      28.575  27.620  -8.969  0.00  0.00     0.011 A 
HETATM   16  C   UNK N   1      27.826  27.311 -10.093  0.00  0.00     0.021 A 
HETATM   17  H   UNK N   1      24.948  24.740  -9.699  0.00  0.00     0.169 HD
ENDROOT
BRANCH   6  18
HETATM   18  C   UNK N   1      26.901  26.667  -5.356  0.00  0.00     0.051 A 
HETATM   19  C   UNK N   1      25.653  27.350  -5.343  0.00  0.00     0.128 A 
HETATM   20  F   UNK N   1      24.616  26.970  -6.129  0.00  0.00    -0.205 F 
HETATM   21  C   UNK N   1      25.457  28.437  -4.487  0.00  0.00     0.043 A 
HETATM   22  C   UNK N   1      26.475  28.860  -3.636  0.00  0.00     0.003 A 
HETATM   23  C   UNK N   1      27.706  28.206  -3.642  0.00  0.00     0.001 A 
HETATM   24  C   UNK N   1      27.919  27.121  -4.496  0.00  0.00     0.015 A 
ENDBRANCH   6  18
TORSDOF 1
ENDMDL
MODEL 7
REMARK VINA RESULT:      -6.3      3.731      5.579
REMARK  1 active torsions:
REMARK  status: ('A' for Active; 'I' for Inactive)
REMARK    1  A    between atoms: C_7  and  C_12 
ROOT
HETATM    1 Br   UNK N   1      29.312  17.911   9.920  0.00  0.00    -0.051 Br
HETATM    2  O   UNK N   1      28.557  15.418   4.991  0.00  0.00    -0.343 OA
HETATM    3  O   UNK N   1      33.020  16.287   2.702  0.00  0.00    -0.271 OA
HETATM    4  N   UNK N   1      29.821  16.556   3.417  0.00  0.00     0.144 N 
HETATM    5  N   UNK N   1      32.444  17.015   4.717  0.00  0.00    -0.325 N 
HETATM    6  C   UNK N   1      29.212  16.650   4.752  0.00  0.00     0.323 C 
HETATM    7  C   UNK N   1      28.785  15.858   2.688  0.00  0.00     0.304 C 
HETATM    8  C   UNK N   1      30.185  16.959   5.920  0.00  0.00     0.040 A 
HETATM    9  C   UNK N   1      28.133  14.964   3.722  0.00  0.00     0.202 C 
HETATM   10  C   UNK N   1      30.922  15.607   3.416  0.00  0.00     0.380 C 
HETATM   11  C   UNK N   1      31.616  17.161   5.864  0.00  0.00     0.046 A 
HETATM   12  C   UNK N   1      32.183  16.334   3.584  0.00  0.00     0.250 C 
HETATM   13  C   UNK N   1      29.551  17.159   7.166  0.00  0.00     0.034 A 
HETATM   14  C   UNK N   1      32.285  17.562   7.029  0.00  0.00     0.031 A 
HETATM   15  C   UNK N   1      30.249  17.564   8.298  0.00  0.00     0.011 A 
HETATM   16  C   UNK N   1      31.617  17.771   8.228  0.00  0.00     0.021 A 
HETATM   17  H   UNK N   1      33.318  17.467   4.755  0.00  0.00     0.169 HD
ENDROOT
BRANCH   6  18
HETATM   18  C   UNK N   1      28.193  17.818   4.767  0.00  0.00     0.051 A 
HETATM   19  C   UNK N   1      26.876  17.699   5.292  0.00  0.00     0.128 A 
HETATM   20  F   UNK N   1      26.396  16.525   5.771  0.00  0.00    -0.205 F 
HETATM   21  C   UNK N   1      26.037  18.815   5.344  0.00  0.00     0.043 A 
HETATM   22  C   UNK N   1      26.480  20.055   4.890  0.00  0.00     0.003 A 
HETATM   23  C   UNK N   1      27.766  20.187   4.368  0.00  0.00     0.001 A 
HETATM   24  C   UNK N   1      28.614  19.079   4.303  0.00  0.00     0.015 A 
ENDBRANCH   6  18
TORSDOF 1
ENDMDL
MODEL 8
REMARK VINA RESULT:      -6.3      9.235     11.648
REMARK  1 active torsions:
REMARK  status: ('A' for Active; 'I' for Inactive)
REMARK    1  A    between atoms: C_7  and  C_12 
ROOT
HETATM    1 Br   UNK N   1      26.440  14.898   5.048  0.00  0.00    -0.051 Br
HETATM    2  O   UNK N   1      21.518  16.238   2.799  0.00  0.00    -0.343 OA
HETATM    3  O   UNK N   1      21.773  21.320   2.712  0.00  0.00    -0.271 OA
HETATM    4  N   UNK N   1      20.883  18.296   3.650  0.00  0.00     0.144 N 
HETATM    5  N   UNK N   1      23.327  19.968   3.535  0.00  0.00    -0.325 N 
HETATM    6  C   UNK N   1      21.761  17.137   3.864  0.00  0.00     0.323 C 
HETATM    7  C   UNK N   1      19.673  17.649   3.192  0.00  0.00     0.304 C 
HETATM    8  C   UNK N   1      23.279  17.443   3.954  0.00  0.00     0.040 A 
HETATM    9  C   UNK N   1      20.161  16.421   2.451  0.00  0.00     0.202 C 
HETATM   10  C   UNK N   1      21.309  19.060   2.489  0.00  0.00     0.380 C 
HETATM   11  C   UNK N   1      23.941  18.724   3.847  0.00  0.00     0.046 A 
HETATM   12  C   UNK N   1      22.142  20.182   2.931  0.00  0.00     0.250 C 
HETATM   13  C   UNK N   1      24.078  16.324   4.277  0.00  0.00     0.034 A 
HETATM   14  C   UNK N   1      25.321  18.791   4.091  0.00  0.00     0.031 A 
HETATM   15  C   UNK N   1      25.443  16.433   4.519  0.00  0.00     0.011 A 
HETATM   16  C   UNK N   1      26.064  17.668   4.431  0.00  0.00     0.021 A 
HETATM   17  H   UNK N   1      23.831  20.775   3.791  0.00  0.00     0.169 HD
ENDROOT
BRANCH   6  18
HETATM   18  C   UNK N   1      21.411  16.476   5.223  0.00  0.00     0.051 A 
HETATM   19  C   UNK N   1      21.291  17.206   6.438  0.00  0.00     0.128 A 
HETATM   20  F   UNK N   1      21.531  18.538   6.504  0.00  0.00    -0.205 F 
HETATM   21  C   UNK N   1      20.897  16.557   7.611  0.00  0.00     0.043 A 
HETATM   22  C   UNK N   1      20.610  15.194   7.603  0.00  0.00     0.003 A 
HETATM   23  C   UNK N   1      20.729  14.463   6.422  0.00  0.00     0.001 A 
HETATM   24  C   UNK N   1      21.129  15.097   5.243  0.00  0.00     0.015 A 
ENDBRANCH   6  18
TORSDOF 1
ENDMDL
MODEL 9
REMARK VINA RESULT:      -6.3     10.987     13.098
REMARK  1 active torsions:
REMARK  status: ('A' for Active; 'I' for Inactive)
REMARK    1  A    between atoms: C_7  and  C_12 
ROOT
HETATM    1 Br   UNK N   1      25.944  15.311   1.563  0.00  0.00    -0.051 Br
HETATM    2  O   UNK N   1      21.434  15.125   4.835  0.00  0.00    -0.343 OA
HETATM    3  O   UNK N   1      18.044  12.858   1.790  0.00  0.00    -0.271 OA
HETATM    4  N   UNK N   1      19.563  15.240   3.475  0.00  0.00     0.144 N 
HETATM    5  N   UNK N   1      20.123  13.388   1.230  0.00  0.00    -0.325 N 
HETATM    6  C   UNK N   1      21.008  15.502   3.539  0.00  0.00     0.323 C 
HETATM    7  C   UNK N   1      19.143  15.671   4.790  0.00  0.00     0.304 C 
HETATM    8  C   UNK N   1      21.875  14.781   2.474  0.00  0.00     0.040 A 
HETATM    9  C   UNK N   1      20.329  15.368   5.682  0.00  0.00     0.202 C 
HETATM   10  C   UNK N   1      19.294  13.812   3.494  0.00  0.00     0.380 C 
HETATM   11  C   UNK N   1      21.443  13.879   1.429  0.00  0.00     0.046 A 
HETATM   12  C   UNK N   1      19.112  13.339   2.119  0.00  0.00     0.250 C 
HETATM   13  C   UNK N   1      23.239  15.147   2.492  0.00  0.00     0.034 A 
HETATM   14  C   UNK N   1      22.385  13.441   0.487  0.00  0.00     0.031 A 
HETATM   15  C   UNK N   1      24.141  14.696   1.535  0.00  0.00     0.011 A 
HETATM   16  C   UNK N   1      23.713  13.846   0.529  0.00  0.00     0.021 A 
HETATM   17  H   UNK N   1      19.923  13.041   0.331  0.00  0.00     0.169 HD
ENDROOT
BRANCH   6  18
HETATM   18  C   UNK N   1      21.264  17.012   3.300  0.00  0.00     0.051 A 
HETATM   19  C   UNK N   1      20.597  17.767   2.295  0.00  0.00     0.128 A 
HETATM   20  F   UNK N   1      19.722  17.200   1.430  0.00  0.00    -0.205 F 
HETATM   21  C   UNK N   1      20.820  19.143   2.187  0.00  0.00     0.043 A 
HETATM   22  C   UNK N   1      21.689  19.790   3.063  0.00  0.00     0.003 A 
HETATM   23  C   UNK N   1      22.355  19.062   4.049  0.00  0.00     0.001 A 
HETATM   24  C   UNK N   1      22.147  17.686   4.165  0.00  0.00     0.015 A 
ENDBRANCH   6  18
TORSDOF 1
ENDMDL
