REMARK  3 active torsions:
REMARK  status: ('A' for Active; 'I' for Inactive)
REMARK    1  A    between atoms: Br_1  and  Br_1 
REMARK    2  A    between atoms: C_16  and  O_3 
REMARK    3  A    between atoms: O_4  and  C_22 
ROOT
HETATM    1 Br   UNK N   1      -1.493   2.168  -0.550  0.00  0.00     0.000 Br
ENDROOT
TORSDOF 3
