MODEL 1
REMARK VINA RESULT:      -6.0      0.000      0.000
REMARK  4 active torsions:
REMARK  status: ('A' for Active; 'I' for Inactive)
REMARK    1  A    between atoms: O_1  and  C_4 
REMARK    2  A    between atoms: O_1  and  C_13 
REMARK    3  A    between atoms: C_4  and  C_9 
REMARK    4  A    between atoms: C_13  and  C_16 
ROOT
HETATM    1  N   UNK N   1      35.487  10.132  12.941  0.00  0.00     0.084 N 
HETATM    2  C   UNK N   1      35.342  12.145  15.125  0.00  0.00     0.101 C 
HETATM    3  C   UNK N   1      34.153  11.275  14.672  0.00  0.00     0.074 C 
HETATM    4  C   UNK N   1      36.677  11.522  14.660  0.00  0.00     0.074 C 
HETATM    5  C   UNK N   1      34.593   9.930  14.089  0.00  0.00     0.275 C 
HETATM    6  C   UNK N   1      36.589  11.077  13.199  0.00  0.00     0.275 C 
HETATM    7  C   UNK N   1      36.081   8.847  12.623  0.00  0.00     0.309 C 
ENDROOT
BRANCH   2   8
HETATM    8  O   UNK N   1      35.155  13.404  14.556  0.00  0.00    -0.305 OA
BRANCH   8   9
HETATM    9  C   UNK N   1      36.127  14.227  14.078  0.00  0.00     0.259 C 
HETATM   10  O   UNK N   1      36.961  14.716  14.835  0.00  0.00    -0.265 OA
BRANCH   9  11
HETATM   11  C   UNK N   1      36.135  14.565  12.618  0.00  0.00     0.106 C 
HETATM   12  C   UNK N   1      34.894  14.072  11.891  0.00  0.00     0.015 C 
ENDBRANCH   9  11
ENDBRANCH   8   9
ENDBRANCH   2   8
BRANCH   2  13
HETATM   13  C   UNK N   1      35.329  12.224  16.646  0.00  0.00    -0.023 A 
HETATM   14  C   UNK N   1      35.612  11.095  17.435  0.00  0.00     0.010 A 
HETATM   15  C   UNK N   1      35.606  11.179  18.830  0.00  0.00     0.001 A 
HETATM   16  C   UNK N   1      35.328  12.396  19.453  0.00  0.00     0.000 A 
HETATM   17  C   UNK N   1      35.050  13.527  18.683  0.00  0.00     0.001 A 
HETATM   18  C   UNK N   1      35.048  13.443  17.286  0.00  0.00     0.010 A 
ENDBRANCH   2  13
TORSDOF 4
ENDMDL
MODEL 2
REMARK VINA RESULT:      -5.8      7.141     10.390
REMARK  4 active torsions:
REMARK  status: ('A' for Active; 'I' for Inactive)
REMARK    1  A    between atoms: O_1  and  C_4 
REMARK    2  A    between atoms: O_1  and  C_13 
REMARK    3  A    between atoms: C_4  and  C_9 
REMARK    4  A    between atoms: C_13  and  C_16 
ROOT
HETATM    1  N   UNK N   1      34.552  15.831   9.226  0.00  0.00     0.084 N 
HETATM    2  C   UNK N   1      32.470  17.138   7.554  0.00  0.00     0.101 C 
HETATM    3  C   UNK N   1      32.616  15.611   7.715  0.00  0.00     0.074 C 
HETATM    4  C   UNK N   1      33.194  17.875   8.703  0.00  0.00     0.074 C 
HETATM    5  C   UNK N   1      33.229  15.216   9.061  0.00  0.00     0.275 C 
HETATM    6  C   UNK N   1      34.581  17.277   8.944  0.00  0.00     0.275 C 
HETATM    7  C   UNK N   1      34.944  15.651  10.612  0.00  0.00     0.309 C 
ENDROOT
BRANCH   2   8
HETATM    8  O   UNK N   1      33.031  17.463   6.321  0.00  0.00    -0.305 OA
BRANCH   8   9
HETATM    9  C   UNK N   1      33.696  16.617   5.487  0.00  0.00     0.259 C 
HETATM   10  O   UNK N   1      34.850  16.277   5.730  0.00  0.00    -0.265 OA
BRANCH   9  11
HETATM   11  C   UNK N   1      33.011  16.144   4.241  0.00  0.00     0.106 C 
HETATM   12  C   UNK N   1      32.324  17.267   3.481  0.00  0.00     0.015 C 
ENDBRANCH   9  11
ENDBRANCH   8   9
ENDBRANCH   2   8
BRANCH   2  13
HETATM   13  C   UNK N   1      30.988  17.485   7.590  0.00  0.00    -0.023 A 
HETATM   14  C   UNK N   1      30.130  17.126   6.535  0.00  0.00     0.010 A 
HETATM   15  C   UNK N   1      28.770  17.441   6.581  0.00  0.00     0.001 A 
HETATM   16  C   UNK N   1      28.247  18.110   7.689  0.00  0.00     0.000 A 
HETATM   17  C   UNK N   1      29.084  18.468   8.747  0.00  0.00     0.001 A 
HETATM   18  C   UNK N   1      30.449  18.160   8.699  0.00  0.00     0.010 A 
ENDBRANCH   2  13
TORSDOF 4
ENDMDL
MODEL 3
REMARK VINA RESULT:      -5.8     22.615     25.456
REMARK  4 active torsions:
REMARK  status: ('A' for Active; 'I' for Inactive)
REMARK    1  A    between atoms: O_1  and  C_4 
REMARK    2  A    between atoms: O_1  and  C_13 
REMARK    3  A    between atoms: C_4  and  C_9 
REMARK    4  A    between atoms: C_13  and  C_16 
ROOT
HETATM    1  N   UNK N   1      26.392  28.686  -4.704  0.00  0.00     0.084 N 
HETATM    2  C   UNK N   1      26.922  25.799  -4.229  0.00  0.00     0.101 C 
HETATM    3  C   UNK N   1      27.561  26.619  -5.367  0.00  0.00     0.074 C 
HETATM    4  C   UNK N   1      26.383  26.736  -3.124  0.00  0.00     0.074 C 
HETATM    5  C   UNK N   1      27.703  28.102  -5.019  0.00  0.00     0.275 C 
HETATM    6  C   UNK N   1      25.605  27.904  -3.734  0.00  0.00     0.275 C 
HETATM    7  C   UNK N   1      26.629  29.993  -4.119  0.00  0.00     0.309 C 
ENDROOT
BRANCH   2   8
HETATM    8  O   UNK N   1      25.890  25.059  -4.802  0.00  0.00    -0.305 OA
BRANCH   8   9
HETATM    9  C   UNK N   1      25.884  24.511  -6.048  0.00  0.00     0.259 C 
HETATM   10  O   UNK N   1      25.364  25.102  -6.989  0.00  0.00    -0.265 OA
BRANCH   9  11
HETATM   11  C   UNK N   1      26.485  23.152  -6.243  0.00  0.00     0.106 C 
HETATM   12  C   UNK N   1      27.839  23.198  -6.932  0.00  0.00     0.015 C 
ENDBRANCH   9  11
ENDBRANCH   8   9
ENDBRANCH   2   8
BRANCH   2  13
HETATM   13  C   UNK N   1      27.987  24.887  -3.636  0.00  0.00    -0.023 A 
HETATM   14  C   UNK N   1      29.347  25.054  -3.953  0.00  0.00     0.010 A 
HETATM   15  C   UNK N   1      30.318  24.217  -3.398  0.00  0.00     0.001 A 
HETATM   16  C   UNK N   1      29.943  23.210  -2.507  0.00  0.00     0.000 A 
HETATM   17  C   UNK N   1      28.598  23.035  -2.177  0.00  0.00     0.001 A 
HETATM   18  C   UNK N   1      27.623  23.867  -2.739  0.00  0.00     0.010 A 
ENDBRANCH   2  13
TORSDOF 4
ENDMDL
MODEL 4
REMARK VINA RESULT:      -5.7      2.004      3.755
REMARK  4 active torsions:
REMARK  status: ('A' for Active; 'I' for Inactive)
REMARK    1  A    between atoms: O_1  and  C_4 
REMARK    2  A    between atoms: O_1  and  C_13 
REMARK    3  A    between atoms: C_4  and  C_9 
REMARK    4  A    between atoms: C_13  and  C_16 
ROOT
HETATM    1  N   UNK N   1      35.818  13.030  12.740  0.00  0.00     0.084 N 
HETATM    2  C   UNK N   1      35.756  11.600  15.346  0.00  0.00     0.101 C 
HETATM    3  C   UNK N   1      36.970  12.394  14.825  0.00  0.00     0.074 C 
HETATM    4  C   UNK N   1      34.470  12.031  14.606  0.00  0.00     0.074 C 
HETATM    5  C   UNK N   1      36.570  13.540  13.893  0.00  0.00     0.275 C 
HETATM    6  C   UNK N   1      34.714  12.121  13.099  0.00  0.00     0.275 C 
HETATM    7  C   UNK N   1      35.236  14.173  12.061  0.00  0.00     0.309 C 
ENDROOT
BRANCH   2   8
HETATM    8  O   UNK N   1      36.034  10.253  15.120  0.00  0.00    -0.305 OA
BRANCH   8   9
HETATM    9  C   UNK N   1      37.153   9.747  14.534  0.00  0.00     0.259 C 
HETATM   10  O   UNK N   1      37.277   9.749  13.313  0.00  0.00    -0.265 OA
BRANCH   9  11
HETATM   11  C   UNK N   1      38.215   9.143  15.403  0.00  0.00     0.106 C 
HETATM   12  C   UNK N   1      39.577   9.104  14.731  0.00  0.00     0.015 C 
ENDBRANCH   9  11
ENDBRANCH   8   9
ENDBRANCH   2   8
BRANCH   2  13
HETATM   13  C   UNK N   1      35.598  11.884  16.834  0.00  0.00    -0.023 A 
HETATM   14  C   UNK N   1      35.264  13.169  17.297  0.00  0.00     0.010 A 
HETATM   15  C   UNK N   1      35.112  13.418  18.664  0.00  0.00     0.001 A 
HETATM   16  C   UNK N   1      35.281  12.382  19.584  0.00  0.00     0.000 A 
HETATM   17  C   UNK N   1      35.607  11.099  19.138  0.00  0.00     0.001 A 
HETATM   18  C   UNK N   1      35.768  10.850  17.771  0.00  0.00     0.010 A 
ENDBRANCH   2  13
TORSDOF 4
ENDMDL
MODEL 5
REMARK VINA RESULT:      -5.7      7.121      9.796
REMARK  4 active torsions:
REMARK  status: ('A' for Active; 'I' for Inactive)
REMARK    1  A    between atoms: O_1  and  C_4 
REMARK    2  A    between atoms: O_1  and  C_13 
REMARK    3  A    between atoms: C_4  and  C_9 
REMARK    4  A    between atoms: C_13  and  C_16 
ROOT
HETATM    1  N   UNK N   1      29.490  17.766   7.487  0.00  0.00     0.084 N 
HETATM    2  C   UNK N   1      32.379  17.169   7.851  0.00  0.00     0.101 C 
HETATM    3  C   UNK N   1      31.616  18.255   8.635  0.00  0.00     0.074 C 
HETATM    4  C   UNK N   1      31.393  16.149   7.240  0.00  0.00     0.074 C 
HETATM    5  C   UNK N   1      30.129  17.930   8.799  0.00  0.00     0.275 C 
HETATM    6  C   UNK N   1      30.215  16.863   6.575  0.00  0.00     0.275 C 
HETATM    7  C   UNK N   1      28.177  17.190   7.714  0.00  0.00     0.309 C 
ENDROOT
BRANCH   2   8
HETATM    8  O   UNK N   1      33.097  17.828   6.855  0.00  0.00    -0.305 OA
BRANCH   8   9
HETATM    9  C   UNK N   1      33.621  17.267   5.731  0.00  0.00     0.259 C 
HETATM   10  O   UNK N   1      34.589  16.515   5.800  0.00  0.00    -0.265 OA
BRANCH   9  11
HETATM   11  C   UNK N   1      33.026  17.619   4.402  0.00  0.00     0.106 C 
HETATM   12  C   UNK N   1      33.033  16.455   3.424  0.00  0.00     0.015 C 
ENDBRANCH   9  11
ENDBRANCH   8   9
ENDBRANCH   2   8
BRANCH   2  13
HETATM   13  C   UNK N   1      33.314  16.448   8.814  0.00  0.00    -0.023 A 
HETATM   14  C   UNK N   1      33.078  15.116   9.196  0.00  0.00     0.010 A 
HETATM   15  C   UNK N   1      33.946  14.460  10.073  0.00  0.00     0.001 A 
HETATM   16  C   UNK N   1      35.068  15.125  10.569  0.00  0.00     0.000 A 
HETATM   17  C   UNK N   1      35.319  16.446  10.194  0.00  0.00     0.001 A 
HETATM   18  C   UNK N   1      34.446  17.107   9.323  0.00  0.00     0.010 A 
ENDBRANCH   2  13
TORSDOF 4
ENDMDL
MODEL 6
REMARK VINA RESULT:      -5.7     22.260     25.219
REMARK  4 active torsions:
REMARK  status: ('A' for Active; 'I' for Inactive)
REMARK    1  A    between atoms: O_1  and  C_4 
REMARK    2  A    between atoms: O_1  and  C_13 
REMARK    3  A    between atoms: C_4  and  C_9 
REMARK    4  A    between atoms: C_13  and  C_16 
ROOT
HETATM    1  N   UNK N   1      25.815  24.331  -7.483  0.00  0.00     0.084 N 
HETATM    2  C   UNK N   1      27.829  24.457  -5.300  0.00  0.00     0.101 C 
HETATM    3  C   UNK N   1      26.401  23.903  -5.127  0.00  0.00     0.074 C 
HETATM    4  C   UNK N   1      28.224  24.479  -6.794  0.00  0.00     0.074 C 
HETATM    5  C   UNK N   1      25.834  23.316  -6.422  0.00  0.00     0.275 C 
HETATM    6  C   UNK N   1      27.090  25.052  -7.647  0.00  0.00     0.275 C 
HETATM    7  C   UNK N   1      25.540  23.646  -8.733  0.00  0.00     0.309 C 
ENDROOT
BRANCH   2   8
HETATM    8  O   UNK N   1      27.825  25.744  -4.766  0.00  0.00    -0.305 OA
BRANCH   8   9
HETATM    9  C   UNK N   1      26.751  26.400  -4.248  0.00  0.00     0.259 C 
HETATM   10  O   UNK N   1      26.288  26.078  -3.158  0.00  0.00    -0.265 OA
BRANCH   9  11
HETATM   11  C   UNK N   1      26.114  27.493  -5.051  0.00  0.00     0.106 C 
HETATM   12  C   UNK N   1      24.731  27.122  -5.561  0.00  0.00     0.015 C 
ENDBRANCH   9  11
ENDBRANCH   8   9
ENDBRANCH   2   8
BRANCH   2  13
HETATM   13  C   UNK N   1      28.791  23.552  -4.541  0.00  0.00    -0.023 A 
HETATM   14  C   UNK N   1      29.009  23.717  -3.162  0.00  0.00     0.010 A 
HETATM   15  C   UNK N   1      29.886  22.877  -2.472  0.00  0.00     0.001 A 
HETATM   16  C   UNK N   1      30.548  21.852  -3.151  0.00  0.00     0.000 A 
HETATM   17  C   UNK N   1      30.337  21.672  -4.519  0.00  0.00     0.001 A 
HETATM   18  C   UNK N   1      29.465  22.518  -5.213  0.00  0.00     0.010 A 
ENDBRANCH   2  13
TORSDOF 4
ENDMDL
MODEL 7
REMARK VINA RESULT:      -5.6      9.906     13.224
REMARK  4 active torsions:
REMARK  status: ('A' for Active; 'I' for Inactive)
REMARK    1  A    between atoms: O_1  and  C_4 
REMARK    2  A    between atoms: O_1  and  C_13 
REMARK    3  A    between atoms: C_4  and  C_9 
REMARK    4  A    between atoms: C_13  and  C_16 
ROOT
HETATM    1  N   UNK N   1      31.413  17.039   8.537  0.00  0.00     0.084 N 
HETATM    2  C   UNK N   1      28.876  17.656   7.116  0.00  0.00     0.101 C 
HETATM    3  C   UNK N   1      29.212  18.150   8.537  0.00  0.00     0.074 C 
HETATM    4  C   UNK N   1      30.162  17.236   6.370  0.00  0.00     0.074 C 
HETATM    5  C   UNK N   1      30.716  18.312   8.765  0.00  0.00     0.275 C 
HETATM    6  C   UNK N   1      31.056  16.379   7.269  0.00  0.00     0.275 C 
HETATM    7  C   UNK N   1      32.835  17.325   8.492  0.00  0.00     0.309 C 
ENDROOT
BRANCH   2   8
HETATM    8  O   UNK N   1      28.010  16.574   7.264  0.00  0.00    -0.305 OA
BRANCH   8   9
HETATM    9  C   UNK N   1      27.355  15.920   6.267  0.00  0.00     0.259 C 
HETATM   10  O   UNK N   1      27.980  15.345   5.380  0.00  0.00    -0.265 OA
BRANCH   9  11
HETATM   11  C   UNK N   1      25.857  15.952   6.242  0.00  0.00     0.106 C 
HETATM   12  C   UNK N   1      25.303  16.805   5.112  0.00  0.00     0.015 C 
ENDBRANCH   9  11
ENDBRANCH   8   9
ENDBRANCH   2   8
BRANCH   2  13
HETATM   13  C   UNK N   1      28.205  18.794   6.357  0.00  0.00    -0.023 A 
HETATM   14  C   UNK N   1      28.319  18.903   4.959  0.00  0.00     0.010 A 
HETATM   15  C   UNK N   1      27.693  19.945   4.271  0.00  0.00     0.001 A 
HETATM   16  C   UNK N   1      26.935  20.885   4.971  0.00  0.00     0.000 A 
HETATM   17  C   UNK N   1      26.807  20.787   6.357  0.00  0.00     0.001 A 
HETATM   18  C   UNK N   1      27.441  19.748   7.049  0.00  0.00     0.010 A 
ENDBRANCH   2  13
TORSDOF 4
ENDMDL
MODEL 8
REMARK VINA RESULT:      -5.6      1.691      2.267
REMARK  4 active torsions:
REMARK  status: ('A' for Active; 'I' for Inactive)
REMARK    1  A    between atoms: O_1  and  C_4 
REMARK    2  A    between atoms: O_1  and  C_13 
REMARK    3  A    between atoms: C_4  and  C_9 
REMARK    4  A    between atoms: C_13  and  C_16 
ROOT
HETATM    1  N   UNK N   1      35.692  10.025  13.426  0.00  0.00     0.084 N 
HETATM    2  C   UNK N   1      36.397  12.779  14.295  0.00  0.00     0.101 C 
HETATM    3  C   UNK N   1      34.962  12.315  13.976  0.00  0.00     0.074 C 
HETATM    4  C   UNK N   1      37.310  11.564  14.571  0.00  0.00     0.074 C 
HETATM    5  C   UNK N   1      34.755  10.820  14.230  0.00  0.00     0.275 C 
HETATM    6  C   UNK N   1      37.093  10.472  13.522  0.00  0.00     0.275 C 
HETATM    7  C   UNK N   1      35.637   8.660  13.918  0.00  0.00     0.309 C 
ENDROOT
BRANCH   2   8
HETATM    8  O   UNK N   1      36.840  13.495  13.185  0.00  0.00    -0.305 OA
BRANCH   8   9
HETATM    9  C   UNK N   1      36.131  13.750  12.052  0.00  0.00     0.259 C 
HETATM   10  O   UNK N   1      36.096  12.931  11.138  0.00  0.00    -0.265 OA
BRANCH   9  11
HETATM   11  C   UNK N   1      35.430  15.068  11.919  0.00  0.00     0.106 C 
HETATM   12  C   UNK N   1      34.350  15.057  10.850  0.00  0.00     0.015 C 
ENDBRANCH   9  11
ENDBRANCH   8   9
ENDBRANCH   2   8
BRANCH   2  13
HETATM   13  C   UNK N   1      36.351  13.663  15.535  0.00  0.00    -0.023 A 
HETATM   14  C   UNK N   1      35.523  13.344  16.626  0.00  0.00     0.010 A 
HETATM   15  C   UNK N   1      35.494  14.157  17.762  0.00  0.00     0.001 A 
HETATM   16  C   UNK N   1      36.304  15.292  17.827  0.00  0.00     0.000 A 
HETATM   17  C   UNK N   1      37.136  15.618  16.755  0.00  0.00     0.001 A 
HETATM   18  C   UNK N   1      37.160  14.810  15.612  0.00  0.00     0.010 A 
ENDBRANCH   2  13
TORSDOF 4
ENDMDL
MODEL 9
REMARK VINA RESULT:      -5.4     22.620     25.270
REMARK  4 active torsions:
REMARK  status: ('A' for Active; 'I' for Inactive)
REMARK    1  A    between atoms: O_1  and  C_4 
REMARK    2  A    between atoms: O_1  and  C_13 
REMARK    3  A    between atoms: C_4  and  C_9 
REMARK    4  A    between atoms: C_13  and  C_16 
ROOT
HETATM    1  N   UNK N   1      29.712  22.585  -3.852  0.00  0.00     0.084 N 
HETATM    2  C   UNK N   1      27.462  24.415  -4.505  0.00  0.00     0.101 C 
HETATM    3  C   UNK N   1      27.791  23.924  -3.081  0.00  0.00     0.074 C 
HETATM    4  C   UNK N   1      28.684  24.241  -5.433  0.00  0.00     0.074 C 
HETATM    5  C   UNK N   1      29.277  23.609  -2.893  0.00  0.00     0.275 C 
HETATM    6  C   UNK N   1      29.318  22.861  -5.245  0.00  0.00     0.275 C 
HETATM    7  C   UNK N   1      31.163  22.543  -3.811  0.00  0.00     0.309 C 
ENDROOT
BRANCH   2   8
HETATM    8  O   UNK N   1      26.385  23.652  -4.950  0.00  0.00    -0.305 OA
BRANCH   8   9
HETATM    9  C   UNK N   1      25.868  23.641  -6.209  0.00  0.00     0.259 C 
HETATM   10  O   UNK N   1      25.198  24.585  -6.618  0.00  0.00    -0.265 OA
BRANCH   9  11
HETATM   11  C   UNK N   1      26.091  22.437  -7.072  0.00  0.00     0.106 C 
HETATM   12  C   UNK N   1      24.807  21.684  -7.380  0.00  0.00     0.015 C 
ENDBRANCH   9  11
ENDBRANCH   8   9
ENDBRANCH   2   8
BRANCH   2  13
HETATM   13  C   UNK N   1      27.094  25.891  -4.431  0.00  0.00    -0.023 A 
HETATM   14  C   UNK N   1      26.313  26.395  -3.375  0.00  0.00     0.010 A 
HETATM   15  C   UNK N   1      25.989  27.752  -3.312  0.00  0.00     0.001 A 
HETATM   16  C   UNK N   1      26.451  28.626  -4.297  0.00  0.00     0.000 A 
HETATM   17  C   UNK N   1      27.232  28.142  -5.348  0.00  0.00     0.001 A 
HETATM   18  C   UNK N   1      27.551  26.782  -5.418  0.00  0.00     0.010 A 
ENDBRANCH   2  13
TORSDOF 4
ENDMDL
