MODEL 1
REMARK VINA RESULT:      -7.7      0.000      0.000
REMARK  1 active torsions:
REMARK  status: ('A' for Active; 'I' for Inactive)
REMARK    1  A    between atoms: C_10  and  O_1 
ROOT
HETATM    1  O   UNK N   1      25.532  20.910 -10.119  0.00  0.00    -0.293 OA
HETATM    2  C   UNK N   1      26.445  27.148  -5.602  0.00  0.00     0.001 C 
HETATM    3  C   UNK N   1      26.702  26.032  -6.629  0.00  0.00    -0.005 C 
HETATM    4  C   UNK N   1      27.022  26.800  -4.234  0.00  0.00    -0.014 C 
HETATM    5  C   UNK N   1      26.130  24.690  -6.102  0.00  0.00     0.002 C 
HETATM    6  C   UNK N   1      26.527  23.514  -7.066  0.00  0.00    -0.018 C 
HETATM    7  C   UNK N   1      26.299  25.568  -3.684  0.00  0.00     0.012 C 
HETATM    8  C   UNK N   1      26.514  24.378  -4.632  0.00  0.00     0.007 C 
HETATM    9  C   UNK N   1      26.811  28.101  -3.466  0.00  0.00     0.126 C 
HETATM   10  C   UNK N   1      27.053  28.509  -5.894  0.00  0.00     0.008 C 
HETATM   11  C   UNK N   1      26.001  26.365  -7.976  0.00  0.00     0.006 C 
HETATM   12  C   UNK N   1      26.693  24.013  -8.541  0.00  0.00     0.005 C 
HETATM   13  C   UNK N   1      27.165  29.174  -4.510  0.00  0.00     0.033 C 
HETATM   14  C   UNK N   1      25.698  25.124  -8.857  0.00  0.00     0.006 C 
HETATM   15  C   UNK N   1      28.534  26.520  -4.271  0.00  0.00     0.018 C 
HETATM   16  C   UNK N   1      27.864  22.886  -6.669  0.00  0.00     0.020 C 
HETATM   17  C   UNK N   1      25.463  22.445  -6.936  0.00  0.00    -0.013 C 
HETATM   18  C   UNK N   1      26.689  22.888  -9.586  0.00  0.00     0.088 C 
HETATM   19  C   UNK N   1      25.118  21.641  -7.949  0.00  0.00     0.047 C 
HETATM   20  C   UNK N   1      25.744  21.765  -9.276  0.00  0.00     0.149 C 
ENDROOT
BRANCH   9  21
HETATM   21  O   UNK N   1      25.469  28.259  -3.109  0.00  0.00    -0.395 OA
HETATM   22  H   UNK N   1      24.585  28.657  -3.116  0.00  0.00     0.210 HD
ENDBRANCH   9  21
TORSDOF 1
ENDMDL
MODEL 2
REMARK VINA RESULT:      -7.2      1.126      6.389
REMARK  1 active torsions:
REMARK  status: ('A' for Active; 'I' for Inactive)
REMARK    1  A    between atoms: C_10  and  O_1 
ROOT
HETATM    1  O   UNK N   1      26.414  29.039  -2.727  0.00  0.00    -0.293 OA
HETATM    2  C   UNK N   1      26.712  22.903  -7.461  0.00  0.00     0.001 C 
HETATM    3  C   UNK N   1      27.117  24.118  -6.610  0.00  0.00    -0.005 C 
HETATM    4  C   UNK N   1      26.505  23.282  -8.923  0.00  0.00    -0.014 C 
HETATM    5  C   UNK N   1      26.057  25.241  -6.755  0.00  0.00     0.002 C 
HETATM    6  C   UNK N   1      26.540  26.543  -6.020  0.00  0.00    -0.018 C 
HETATM    7  C   UNK N   1      25.332  24.260  -9.026  0.00  0.00     0.012 C 
HETATM    8  C   UNK N   1      25.647  25.532  -8.222  0.00  0.00     0.007 C 
HETATM    9  C   UNK N   1      26.301  21.919  -9.574  0.00  0.00     0.126 C 
HETATM   10  C   UNK N   1      27.702  21.755  -7.542  0.00  0.00     0.008 C 
HETATM   11  C   UNK N   1      27.205  23.722  -5.109  0.00  0.00     0.006 C 
HETATM   12  C   UNK N   1      27.470  26.206  -4.806  0.00  0.00     0.005 C 
HETATM   13  C   UNK N   1      27.340  21.040  -8.857  0.00  0.00     0.033 C 
HETATM   14  C   UNK N   1      27.034  24.912  -4.128  0.00  0.00     0.006 C 
HETATM   15  C   UNK N   1      27.749  23.922  -9.562  0.00  0.00     0.018 C 
HETATM   16  C   UNK N   1      27.353  27.447  -6.949  0.00  0.00     0.020 C 
HETATM   17  C   UNK N   1      25.304  27.311  -5.602  0.00  0.00    -0.013 C 
HETATM   18  C   UNK N   1      27.658  27.367  -3.820  0.00  0.00     0.088 C 
HETATM   19  C   UNK N   1      25.264  28.077  -4.506  0.00  0.00     0.047 C 
HETATM   20  C   UNK N   1      26.429  28.203  -3.614  0.00  0.00     0.149 C 
ENDROOT
BRANCH   9  21
HETATM   21  O   UNK N   1      25.028  21.415  -9.292  0.00  0.00    -0.395 OA
HETATM   22  H   UNK N   1      24.109  21.159  -9.471  0.00  0.00     0.210 HD
ENDBRANCH   9  21
TORSDOF 1
ENDMDL
MODEL 3
REMARK VINA RESULT:      -6.9     27.999     30.043
REMARK  1 active torsions:
REMARK  status: ('A' for Active; 'I' for Inactive)
REMARK    1  A    between atoms: C_10  and  O_1 
ROOT
HETATM    1  O   UNK N   1      35.009   9.328  23.218  0.00  0.00    -0.293 OA
HETATM    2  C   UNK N   1      35.950  12.260  16.100  0.00  0.00     0.001 C 
HETATM    3  C   UNK N   1      35.309  11.724  17.390  0.00  0.00    -0.005 C 
HETATM    4  C   UNK N   1      36.060  11.178  15.032  0.00  0.00    -0.014 C 
HETATM    5  C   UNK N   1      36.111  10.501  17.909  0.00  0.00     0.002 C 
HETATM    6  C   UNK N   1      35.375   9.847  19.134  0.00  0.00    -0.018 C 
HETATM    7  C   UNK N   1      37.003  10.079  15.527  0.00  0.00     0.012 C 
HETATM    8  C   UNK N   1      36.438   9.454  16.812  0.00  0.00     0.007 C 
HETATM    9  C   UNK N   1      36.537  11.978  13.824  0.00  0.00     0.126 C 
HETATM   10  C   UNK N   1      35.219  13.380  15.379  0.00  0.00     0.008 C 
HETATM   11  C   UNK N   1      35.319  12.817  18.496  0.00  0.00     0.006 C 
HETATM   12  C   UNK N   1      34.547  10.905  19.937  0.00  0.00     0.005 C 
HETATM   13  C   UNK N   1      35.710  13.272  13.924  0.00  0.00     0.033 C 
HETATM   14  C   UNK N   1      35.248  12.259  19.942  0.00  0.00     0.006 C 
HETATM   15  C   UNK N   1      34.704  10.550  14.668  0.00  0.00     0.018 C 
HETATM   16  C   UNK N   1      34.383   8.771  18.686  0.00  0.00     0.020 C 
HETATM   17  C   UNK N   1      36.428   9.171  19.986  0.00  0.00    -0.013 C 
HETATM   18  C   UNK N   1      34.131  10.440  21.339  0.00  0.00     0.088 C 
HETATM   19  C   UNK N   1      36.318   9.054  21.313  0.00  0.00     0.047 C 
HETATM   20  C   UNK N   1      35.161   9.603  22.040  0.00  0.00     0.149 C 
ENDROOT
BRANCH   9  21
HETATM   21  O   UNK N   1      37.890  12.309  13.946  0.00  0.00    -0.395 OA
HETATM   22  H   UNK N   1      38.698  12.827  13.806  0.00  0.00     0.210 HD
ENDBRANCH   9  21
TORSDOF 1
ENDMDL
MODEL 4
REMARK VINA RESULT:      -6.9     17.049     18.683
REMARK  1 active torsions:
REMARK  status: ('A' for Active; 'I' for Inactive)
REMARK    1  A    between atoms: C_10  and  O_1 
ROOT
HETATM    1  O   UNK N   1      31.904  16.832   2.180  0.00  0.00    -0.293 OA
HETATM    2  C   UNK N   1      35.604  14.841   8.699  0.00  0.00     0.001 C 
HETATM    3  C   UNK N   1      34.621  14.849   7.516  0.00  0.00    -0.005 C 
HETATM    4  C   UNK N   1      35.003  15.499   9.936  0.00  0.00    -0.014 C 
HETATM    5  C   UNK N   1      34.168  16.303   7.216  0.00  0.00     0.002 C 
HETATM    6  C   UNK N   1      33.045  16.307   6.118  0.00  0.00    -0.018 C 
HETATM    7  C   UNK N   1      34.737  16.977   9.639  0.00  0.00     0.012 C 
HETATM    8  C   UNK N   1      33.739  17.098   8.477  0.00  0.00     0.007 C 
HETATM    9  C   UNK N   1      36.063  15.207  10.992  0.00  0.00     0.126 C 
HETATM   10  C   UNK N   1      36.052  13.485   9.215  0.00  0.00     0.008 C 
HETATM   11  C   UNK N   1      35.305  14.280   6.241  0.00  0.00     0.006 C 
HETATM   12  C   UNK N   1      33.191  15.091   5.142  0.00  0.00     0.005 C 
HETATM   13  C   UNK N   1      36.476  13.760  10.670  0.00  0.00     0.033 C 
HETATM   14  C   UNK N   1      34.660  14.752   4.911  0.00  0.00     0.006 C 
HETATM   15  C   UNK N   1      33.693  14.836  10.395  0.00  0.00     0.018 C 
HETATM   16  C   UNK N   1      31.650  16.198   6.738  0.00  0.00     0.020 C 
HETATM   17  C   UNK N   1      33.122  17.636   5.398  0.00  0.00    -0.013 C 
HETATM   18  C   UNK N   1      32.396  15.237   3.838  0.00  0.00     0.088 C 
HETATM   19  C   UNK N   1      32.795  17.780   4.109  0.00  0.00     0.047 C 
HETATM   20  C   UNK N   1      32.357  16.635   3.295  0.00  0.00     0.149 C 
ENDROOT
BRANCH   9  21
HETATM   21  O   UNK N   1      37.179  16.031  10.821  0.00  0.00    -0.395 OA
HETATM   22  H   UNK N   1      38.104  16.312  10.910  0.00  0.00     0.210 HD
ENDBRANCH   9  21
TORSDOF 1
ENDMDL
MODEL 5
REMARK VINA RESULT:      -6.8     27.414     29.287
REMARK  1 active torsions:
REMARK  status: ('A' for Active; 'I' for Inactive)
REMARK    1  A    between atoms: C_10  and  O_1 
ROOT
HETATM    1  O   UNK N   1      35.298  14.186  12.577  0.00  0.00    -0.293 OA
HETATM    2  C   UNK N   1      35.235  10.386  19.338  0.00  0.00     0.001 C 
HETATM    3  C   UNK N   1      35.690  11.231  18.136  0.00  0.00    -0.005 C 
HETATM    4  C   UNK N   1      35.649   8.927  19.192  0.00  0.00    -0.014 C 
HETATM    5  C   UNK N   1      35.138  10.618  16.821  0.00  0.00     0.002 C 
HETATM    6  C   UNK N   1      35.727  11.376  15.578  0.00  0.00    -0.018 C 
HETATM    7  C   UNK N   1      34.938   8.323  17.978  0.00  0.00     0.012 C 
HETATM    8  C   UNK N   1      35.346   9.085  16.708  0.00  0.00     0.007 C 
HETATM    9  C   UNK N   1      35.262   8.354  20.551  0.00  0.00     0.126 C 
HETATM   10  C   UNK N   1      35.791  10.766  20.699  0.00  0.00     0.008 C 
HETATM   11  C   UNK N   1      35.151  12.684  18.259  0.00  0.00     0.006 C 
HETATM   12  C   UNK N   1      36.053  12.869  15.918  0.00  0.00     0.005 C 
HETATM   13  C   UNK N   1      35.681   9.470  21.523  0.00  0.00     0.033 C 
HETATM   14  C   UNK N   1      35.041  13.437  16.907  0.00  0.00     0.006 C 
HETATM   15  C   UNK N   1      37.167   8.745  19.025  0.00  0.00     0.018 C 
HETATM   16  C   UNK N   1      37.038  10.745  15.102  0.00  0.00     0.020 C 
HETATM   17  C   UNK N   1      34.723  11.247  14.452  0.00  0.00    -0.013 C 
HETATM   18  C   UNK N   1      36.253  13.762  14.685  0.00  0.00     0.088 C 
HETATM   19  C   UNK N   1      34.562  12.188  13.516  0.00  0.00     0.047 C 
HETATM   20  C   UNK N   1      35.346  13.435  13.536  0.00  0.00     0.149 C 
ENDROOT
BRANCH   9  21
HETATM   21  O   UNK N   1      33.877   8.184  20.646  0.00  0.00    -0.395 OA
HETATM   22  H   UNK N   1      32.983   7.961  20.344  0.00  0.00     0.210 HD
ENDBRANCH   9  21
TORSDOF 1
ENDMDL
MODEL 6
REMARK VINA RESULT:      -6.6      4.838      6.476
REMARK  1 active torsions:
REMARK  status: ('A' for Active; 'I' for Inactive)
REMARK    1  A    between atoms: C_10  and  O_1 
ROOT
HETATM    1  O   UNK N   1      35.150  18.900  -5.253  0.00  0.00    -0.293 OA
HETATM    2  C   UNK N   1      28.580  23.004  -4.879  0.00  0.00     0.001 C 
HETATM    3  C   UNK N   1      29.938  22.452  -5.343  0.00  0.00    -0.005 C 
HETATM    4  C   UNK N   1      28.737  24.287  -4.072  0.00  0.00    -0.014 C 
HETATM    5  C   UNK N   1      30.865  22.236  -4.118  0.00  0.00     0.002 C 
HETATM    6  C   UNK N   1      32.307  21.826  -4.591  0.00  0.00    -0.018 C 
HETATM    7  C   UNK N   1      29.510  23.979  -2.787  0.00  0.00     0.012 C 
HETATM    8  C   UNK N   1      30.905  23.440  -3.140  0.00  0.00     0.007 C 
HETATM    9  C   UNK N   1      27.287  24.725  -3.894  0.00  0.00     0.126 C 
HETATM   10  C   UNK N   1      27.589  23.399  -5.961  0.00  0.00     0.008 C 
HETATM   11  C   UNK N   1      29.752  21.086  -6.060  0.00  0.00     0.006 C 
HETATM   12  C   UNK N   1      32.266  21.057  -5.954  0.00  0.00     0.005 C 
HETATM   13  C   UNK N   1      26.669  24.422  -5.270  0.00  0.00     0.033 C 
HETATM   14  C   UNK N   1      31.017  20.187  -6.053  0.00  0.00     0.006 C 
HETATM   15  C   UNK N   1      29.469  25.399  -4.843  0.00  0.00     0.018 C 
HETATM   16  C   UNK N   1      33.196  23.052  -4.812  0.00  0.00     0.020 C 
HETATM   17  C   UNK N   1      32.929  21.004  -3.484  0.00  0.00    -0.013 C 
HETATM   18  C   UNK N   1      33.557  20.293  -6.280  0.00  0.00     0.088 C 
HETATM   19  C   UNK N   1      33.813  20.027  -3.718  0.00  0.00     0.047 C 
HETATM   20  C   UNK N   1      34.220  19.672  -5.087  0.00  0.00     0.149 C 
ENDROOT
BRANCH   9  21
HETATM   21  O   UNK N   1      26.641  23.938  -2.938  0.00  0.00    -0.395 OA
HETATM   22  H   UNK N   1      26.294  23.700  -2.063  0.00  0.00     0.210 HD
ENDBRANCH   9  21
TORSDOF 1
ENDMDL
MODEL 7
REMARK VINA RESULT:      -6.6      1.872      2.754
REMARK  1 active torsions:
REMARK  status: ('A' for Active; 'I' for Inactive)
REMARK    1  A    between atoms: C_10  and  O_1 
ROOT
HETATM    1  O   UNK N   1      29.441  19.382  -8.291  0.00  0.00    -0.293 OA
HETATM    2  C   UNK N   1      26.215  25.728  -5.214  0.00  0.00     0.001 C 
HETATM    3  C   UNK N   1      26.801  24.723  -6.220  0.00  0.00    -0.005 C 
HETATM    4  C   UNK N   1      27.251  26.756  -4.773  0.00  0.00    -0.014 C 
HETATM    5  C   UNK N   1      28.051  24.036  -5.610  0.00  0.00     0.002 C 
HETATM    6  C   UNK N   1      28.751  23.128  -6.684  0.00  0.00    -0.018 C 
HETATM    7  C   UNK N   1      28.378  26.041  -4.023  0.00  0.00     0.012 C 
HETATM    8  C   UNK N   1      29.053  25.022  -4.955  0.00  0.00     0.007 C 
HETATM    9  C   UNK N   1      26.404  27.721  -3.951  0.00  0.00     0.126 C 
HETATM   10  C   UNK N   1      25.059  26.590  -5.692  0.00  0.00     0.008 C 
HETATM   11  C   UNK N   1      25.756  23.623  -6.557  0.00  0.00     0.006 C 
HETATM   12  C   UNK N   1      27.722  22.574  -7.726  0.00  0.00     0.005 C 
HETATM   13  C   UNK N   1      25.109  27.826  -4.775  0.00  0.00     0.033 C 
HETATM   14  C   UNK N   1      26.375  22.295  -7.068  0.00  0.00     0.006 C 
HETATM   15  C   UNK N   1      27.852  27.547  -5.947  0.00  0.00     0.018 C 
HETATM   16  C   UNK N   1      29.799  23.906  -7.483  0.00  0.00     0.020 C 
HETATM   17  C   UNK N   1      29.471  22.022  -5.943  0.00  0.00    -0.013 C 
HETATM   18  C   UNK N   1      28.243  21.391  -8.553  0.00  0.00     0.088 C 
HETATM   19  C   UNK N   1      29.644  20.800  -6.457  0.00  0.00     0.047 C 
HETATM   20  C   UNK N   1      29.117  20.443  -7.785  0.00  0.00     0.149 C 
ENDROOT
BRANCH   9  21
HETATM   21  O   UNK N   1      26.089  27.173  -2.704  0.00  0.00    -0.395 OA
HETATM   22  H   UNK N   1      25.673  27.126  -1.829  0.00  0.00     0.210 HD
ENDBRANCH   9  21
TORSDOF 1
ENDMDL
MODEL 8
REMARK VINA RESULT:      -6.5     26.802     28.644
REMARK  1 active torsions:
REMARK  status: ('A' for Active; 'I' for Inactive)
REMARK    1  A    between atoms: C_10  and  O_1 
ROOT
HETATM    1  O   UNK N   1      36.570  13.877  11.236  0.00  0.00    -0.293 OA
HETATM    2  C   UNK N   1      36.830   9.651  17.734  0.00  0.00     0.001 C 
HETATM    3  C   UNK N   1      36.533  10.113  16.298  0.00  0.00    -0.005 C 
HETATM    4  C   UNK N   1      35.670   9.954  18.676  0.00  0.00    -0.014 C 
HETATM    5  C   UNK N   1      36.184  11.624  16.291  0.00  0.00     0.002 C 
HETATM    6  C   UNK N   1      35.724  12.071  14.857  0.00  0.00    -0.018 C 
HETATM    7  C   UNK N   1      35.482  11.471  18.767  0.00  0.00     0.012 C 
HETATM    8  C   UNK N   1      35.155  12.036  17.376  0.00  0.00     0.007 C 
HETATM    9  C   UNK N   1      36.114   9.255  19.956  0.00  0.00     0.126 C 
HETATM   10  C   UNK N   1      37.065   8.166  17.948  0.00  0.00     0.008 C 
HETATM   11  C   UNK N   1      37.778   9.896  15.391  0.00  0.00     0.006 C 
HETATM   12  C   UNK N   1      36.397  11.202  13.742  0.00  0.00     0.005 C 
HETATM   13  C   UNK N   1      36.723   7.942  19.433  0.00  0.00     0.033 C 
HETATM   14  C   UNK N   1      37.817  10.810  14.138  0.00  0.00     0.006 C 
HETATM   15  C   UNK N   1      34.346   9.311  18.229  0.00  0.00     0.018 C 
HETATM   16  C   UNK N   1      34.213  11.911  14.675  0.00  0.00     0.020 C 
HETATM   17  C   UNK N   1      36.049  13.542  14.715  0.00  0.00    -0.013 C 
HETATM   18  C   UNK N   1      36.313  11.813  12.336  0.00  0.00     0.088 C 
HETATM   19  C   UNK N   1      36.368  14.102  13.543  0.00  0.00     0.047 C 
HETATM   20  C   UNK N   1      36.448  13.307  12.307  0.00  0.00     0.149 C 
ENDROOT
BRANCH   9  21
HETATM   21  O   UNK N   1      37.120   9.981  20.599  0.00  0.00    -0.395 OA
HETATM   22  H   UNK N   1      37.821  10.645  20.693  0.00  0.00     0.210 HD
ENDBRANCH   9  21
TORSDOF 1
ENDMDL
MODEL 9
REMARK VINA RESULT:      -6.5     24.287     26.136
REMARK  1 active torsions:
REMARK  status: ('A' for Active; 'I' for Inactive)
REMARK    1  A    between atoms: C_10  and  O_1 
ROOT
HETATM    1  O   UNK N   1      35.986   9.017  18.150  0.00  0.00    -0.293 OA
HETATM    2  C   UNK N   1      36.439  14.086  12.298  0.00  0.00     0.001 C 
HETATM    3  C   UNK N   1      35.887  13.141  13.378  0.00  0.00    -0.005 C 
HETATM    4  C   UNK N   1      36.519  13.403  10.937  0.00  0.00    -0.014 C 
HETATM    5  C   UNK N   1      36.752  11.855  13.445  0.00  0.00     0.002 C 
HETATM    6  C   UNK N   1      36.105  10.815  14.430  0.00  0.00    -0.018 C 
HETATM    7  C   UNK N   1      37.520  12.247  11.015  0.00  0.00     0.012 C 
HETATM    8  C   UNK N   1      37.046  11.223  12.059  0.00  0.00     0.007 C 
HETATM    9  C   UNK N   1      36.904  14.563  10.026  0.00  0.00     0.126 C 
HETATM   10  C   UNK N   1      35.637  15.342  12.003  0.00  0.00     0.008 C 
HETATM   11  C   UNK N   1      35.928  13.829  14.772  0.00  0.00     0.006 C 
HETATM   12  C   UNK N   1      35.294  11.527  15.564  0.00  0.00     0.005 C 
HETATM   13  C   UNK N   1      36.048  15.721  10.568  0.00  0.00     0.033 C 
HETATM   14  C   UNK N   1      35.955  12.840  15.967  0.00  0.00     0.006 C 
HETATM   15  C   UNK N   1      35.164  12.861  10.454  0.00  0.00     0.018 C 
HETATM   16  C   UNK N   1      35.121   9.892  13.708  0.00  0.00     0.020 C 
HETATM   17  C   UNK N   1      37.223   9.953  14.975  0.00  0.00    -0.013 C 
HETATM   18  C   UNK N   1      34.971  10.624  16.763  0.00  0.00     0.088 C 
HETATM   19  C   UNK N   1      37.192   9.418  16.201  0.00  0.00     0.047 C 
HETATM   20  C   UNK N   1      36.063   9.657  17.115  0.00  0.00     0.149 C 
ENDROOT
BRANCH   9  21
HETATM   21  O   UNK N   1      38.252  14.900  10.187  0.00  0.00    -0.395 OA
HETATM   22  H   UNK N   1      39.097  15.001  10.652  0.00  0.00     0.210 HD
ENDBRANCH   9  21
TORSDOF 1
ENDMDL
