MODEL 1
REMARK VINA RESULT:      -4.7      0.000      0.000
REMARK  5 active torsions:
REMARK  status: ('A' for Active; 'I' for Inactive)
REMARK    1  A    between atoms: O_2  and  C_8 
REMARK    2  A    between atoms: O_3  and  C_11 
REMARK    3  A    between atoms: N_4  and  C_6 
REMARK    4  A    between atoms: C_5  and  C_6 
REMARK    5  A    between atoms: C_5  and  C_7 
ROOT
HETATM    1 Br   UNK N   1      29.751  16.571   3.689  0.00  0.00    -0.048 Br
HETATM    2  C   UNK N   1      32.856  17.492   7.153  0.00  0.00    -0.020 A 
HETATM    3  C   UNK N   1      31.461  17.356   7.403  0.00  0.00     0.076 A 
HETATM    4  C   UNK N   1      33.324  17.340   5.842  0.00  0.00     0.048 A 
HETATM    5  C   UNK N   1      32.475  17.065   4.770  0.00  0.00     0.086 A 
HETATM    6  C   UNK N   1      30.609  17.080   6.329  0.00  0.00     0.059 A 
HETATM    7  C   UNK N   1      31.083  16.934   5.023  0.00  0.00     0.047 A 
ENDROOT
BRANCH   2   8
HETATM    8  C   UNK N   1      33.839  17.842   8.250  0.00  0.00     0.065 C 
BRANCH   8   9
HETATM    9  C   UNK N   1      34.155  16.749   9.276  0.00  0.00     0.074 C 
HETATM   10  C   UNK N   1      34.879  15.568   8.653  0.00  0.00     0.032 C 
BRANCH   9  11
HETATM   11  N   UNK N   1      35.006  17.313  10.308  0.00  0.00    -0.426 N 
HETATM   12  H   UNK N   1      35.710  16.731  10.763  0.00  0.00     0.150 HD
HETATM   13  H   UNK N   1      34.901  18.290  10.578  0.00  0.00     0.150 HD
ENDBRANCH   9  11
ENDBRANCH   8   9
ENDBRANCH   2   8
BRANCH   3  14
HETATM   14  O   UNK N   1      30.882  17.480   8.628  0.00  0.00    -0.355 OA
HETATM   15  C   UNK N   1      30.276  18.602   9.141  0.00  0.00     0.210 C 
ENDBRANCH   3  14
BRANCH   5  16
HETATM   16  O   UNK N   1      33.058  16.949   3.547  0.00  0.00    -0.355 OA
HETATM   17  C   UNK N   1      33.432  15.787   2.918  0.00  0.00     0.210 C 
ENDBRANCH   5  16
TORSDOF 5
ENDMDL
MODEL 2
REMARK VINA RESULT:      -4.7      9.863     11.598
REMARK  5 active torsions:
REMARK  status: ('A' for Active; 'I' for Inactive)
REMARK    1  A    between atoms: O_2  and  C_8 
REMARK    2  A    between atoms: O_3  and  C_11 
REMARK    3  A    between atoms: N_4  and  C_6 
REMARK    4  A    between atoms: C_5  and  C_6 
REMARK    5  A    between atoms: C_5  and  C_7 
ROOT
HETATM    1 Br   UNK N   1      26.588  20.437   3.422  0.00  0.00    -0.048 Br
HETATM    2  C   UNK N   1      22.043  19.115   3.710  0.00  0.00    -0.020 A 
HETATM    3  C   UNK N   1      22.458  20.234   2.934  0.00  0.00     0.076 A 
HETATM    4  C   UNK N   1      23.012  18.377   4.402  0.00  0.00     0.048 A 
HETATM    5  C   UNK N   1      24.368  18.701   4.365  0.00  0.00     0.086 A 
HETATM    6  C   UNK N   1      23.818  20.558   2.896  0.00  0.00     0.059 A 
HETATM    7  C   UNK N   1      24.778  19.821   3.593  0.00  0.00     0.047 A 
ENDROOT
BRANCH   2   8
HETATM    8  C   UNK N   1      20.586  18.727   3.847  0.00  0.00     0.065 C 
BRANCH   8   9
HETATM    9  C   UNK N   1      20.032  17.730   2.824  0.00  0.00     0.074 C 
HETATM   10  C   UNK N   1      19.789  16.359   3.432  0.00  0.00     0.032 C 
BRANCH   9  11
HETATM   11  N   UNK N   1      18.769  18.235   2.319  0.00  0.00    -0.426 N 
HETATM   12  H   UNK N   1      17.958  17.618   2.263  0.00  0.00     0.150 HD
HETATM   13  H   UNK N   1      18.691  19.207   2.021  0.00  0.00     0.150 HD
ENDBRANCH   9  11
ENDBRANCH   8   9
ENDBRANCH   2   8
BRANCH   3  14
HETATM   14  O   UNK N   1      21.618  21.029   2.216  0.00  0.00    -0.355 OA
HETATM   15  C   UNK N   1      21.072  20.749   0.987  0.00  0.00     0.210 C 
ENDBRANCH   3  14
BRANCH   5  16
HETATM   16  O   UNK N   1      25.202  17.907   5.089  0.00  0.00    -0.355 OA
HETATM   17  C   UNK N   1      25.266  16.536   5.061  0.00  0.00     0.210 C 
ENDBRANCH   5  16
TORSDOF 5
ENDMDL
MODEL 3
REMARK VINA RESULT:      -4.7      1.298      3.614
REMARK  5 active torsions:
REMARK  status: ('A' for Active; 'I' for Inactive)
REMARK    1  A    between atoms: O_2  and  C_8 
REMARK    2  A    between atoms: O_3  and  C_11 
REMARK    3  A    between atoms: N_4  and  C_6 
REMARK    4  A    between atoms: C_5  and  C_6 
REMARK    5  A    between atoms: C_5  and  C_7 
ROOT
HETATM    1 Br   UNK N   1      28.784  16.723   5.108  0.00  0.00    -0.048 Br
HETATM    2  C   UNK N   1      32.653  17.537   7.728  0.00  0.00    -0.020 A 
HETATM    3  C   UNK N   1      32.732  17.128   6.367  0.00  0.00     0.076 A 
HETATM    4  C   UNK N   1      31.389  17.713   8.306  0.00  0.00     0.048 A 
HETATM    5  C   UNK N   1      30.206  17.497   7.601  0.00  0.00     0.086 A 
HETATM    6  C   UNK N   1      31.546  16.911   5.659  0.00  0.00     0.059 A 
HETATM    7  C   UNK N   1      30.290  17.084   6.244  0.00  0.00     0.047 A 
ENDROOT
BRANCH   2   8
HETATM    8  C   UNK N   1      33.888  17.742   8.580  0.00  0.00     0.065 C 
BRANCH   8   9
HETATM    9  C   UNK N   1      34.286  16.597   9.516  0.00  0.00     0.074 C 
HETATM   10  C   UNK N   1      35.091  15.524   8.803  0.00  0.00     0.032 C 
BRANCH   9  11
HETATM   11  N   UNK N   1      35.097  17.137  10.592  0.00  0.00    -0.426 N 
HETATM   12  H   UNK N   1      36.077  16.865  10.677  0.00  0.00     0.150 HD
HETATM   13  H   UNK N   1      34.688  17.788  11.262  0.00  0.00     0.150 HD
ENDBRANCH   9  11
ENDBRANCH   8   9
ENDBRANCH   2   8
BRANCH   3  14
HETATM   14  O   UNK N   1      33.896  16.923   5.690  0.00  0.00    -0.355 OA
HETATM   15  C   UNK N   1      34.336  15.736   5.154  0.00  0.00     0.210 C 
ENDBRANCH   3  14
BRANCH   5  16
HETATM   16  O   UNK N   1      29.047  17.697   8.284  0.00  0.00    -0.355 OA
HETATM   17  C   UNK N   1      28.302  18.849   8.326  0.00  0.00     0.210 C 
ENDBRANCH   5  16
TORSDOF 5
ENDMDL
MODEL 4
REMARK VINA RESULT:      -4.6      7.928      9.471
REMARK  5 active torsions:
REMARK  status: ('A' for Active; 'I' for Inactive)
REMARK    1  A    between atoms: O_2  and  C_8 
REMARK    2  A    between atoms: O_3  and  C_11 
REMARK    3  A    between atoms: N_4  and  C_6 
REMARK    4  A    between atoms: C_5  and  C_6 
REMARK    5  A    between atoms: C_5  and  C_7 
ROOT
HETATM    1 Br   UNK N   1      20.880  17.718   4.065  0.00  0.00    -0.048 Br
HETATM    2  C   UNK N   1      25.118  19.725   3.356  0.00  0.00    -0.020 A 
HETATM    3  C   UNK N   1      24.983  18.381   3.808  0.00  0.00     0.076 A 
HETATM    4  C   UNK N   1      23.960  20.471   3.105  0.00  0.00     0.048 A 
HETATM    5  C   UNK N   1      22.679  19.952   3.286  0.00  0.00     0.086 A 
HETATM    6  C   UNK N   1      23.698  17.859   3.989  0.00  0.00     0.059 A 
HETATM    7  C   UNK N   1      22.548  18.612   3.742  0.00  0.00     0.047 A 
ENDROOT
BRANCH   2   8
HETATM    8  C   UNK N   1      26.471  20.382   3.184  0.00  0.00     0.065 C 
BRANCH   8   9
HETATM    9  C   UNK N   1      27.293  20.626   4.453  0.00  0.00     0.074 C 
HETATM   10  C   UNK N   1      26.430  20.646   5.702  0.00  0.00     0.032 C 
BRANCH   9  11
HETATM   11  N   UNK N   1      28.267  19.559   4.588  0.00  0.00    -0.426 N 
HETATM   12  H   UNK N   1      28.662  19.342   5.504  0.00  0.00     0.150 HD
HETATM   13  H   UNK N   1      28.556  19.025   3.769  0.00  0.00     0.150 HD
ENDBRANCH   9  11
ENDBRANCH   8   9
ENDBRANCH   2   8
BRANCH   3  14
HETATM   14  O   UNK N   1      26.026  17.552   4.085  0.00  0.00    -0.355 OA
HETATM   15  C   UNK N   1      26.446  16.481   3.334  0.00  0.00     0.210 C 
ENDBRANCH   3  14
BRANCH   5  16
HETATM   16  O   UNK N   1      21.641  20.787   3.014  0.00  0.00    -0.355 OA
HETATM   17  C   UNK N   1      20.853  20.784   1.890  0.00  0.00     0.210 C 
ENDBRANCH   5  16
TORSDOF 5
ENDMDL
MODEL 5
REMARK VINA RESULT:      -4.5     14.108     15.658
REMARK  5 active torsions:
REMARK  status: ('A' for Active; 'I' for Inactive)
REMARK    1  A    between atoms: O_2  and  C_8 
REMARK    2  A    between atoms: O_3  and  C_11 
REMARK    3  A    between atoms: N_4  and  C_6 
REMARK    4  A    between atoms: C_5  and  C_6 
REMARK    5  A    between atoms: C_5  and  C_7 
ROOT
HETATM    1 Br   UNK N   1      28.162  21.427  -7.913  0.00  0.00    -0.048 Br
HETATM    2  C   UNK N   1      26.735  24.659  -4.750  0.00  0.00    -0.020 A 
HETATM    3  C   UNK N   1      28.108  24.327  -4.926  0.00  0.00     0.076 A 
HETATM    4  C   UNK N   1      25.779  24.015  -5.544  0.00  0.00     0.048 A 
HETATM    5  C   UNK N   1      26.119  23.056  -6.498  0.00  0.00     0.086 A 
HETATM    6  C   UNK N   1      28.451  23.366  -5.883  0.00  0.00     0.059 A 
HETATM    7  C   UNK N   1      27.490  22.724  -6.668  0.00  0.00     0.047 A 
ENDROOT
BRANCH   2   8
HETATM    8  C   UNK N   1      26.276  25.650  -3.701  0.00  0.00     0.065 C 
BRANCH   8   9
HETATM    9  C   UNK N   1      26.225  27.125  -4.112  0.00  0.00     0.074 C 
HETATM   10  C   UNK N   1      25.184  27.387  -5.187  0.00  0.00     0.032 C 
BRANCH   9  11
HETATM   11  N   UNK N   1      25.887  27.921  -2.946  0.00  0.00    -0.426 N 
HETATM   12  H   UNK N   1      25.233  27.557  -2.252  0.00  0.00     0.150 HD
HETATM   13  H   UNK N   1      26.303  28.843  -2.820  0.00  0.00     0.150 HD
ENDBRANCH   9  11
ENDBRANCH   8   9
ENDBRANCH   2   8
BRANCH   3  14
HETATM   14  O   UNK N   1      29.133  24.880  -4.220  0.00  0.00    -0.355 OA
HETATM   15  C   UNK N   1      30.464  24.550  -4.308  0.00  0.00     0.210 C 
ENDBRANCH   3  14
BRANCH   5  16
HETATM   16  O   UNK N   1      25.091  22.502  -7.196  0.00  0.00    -0.355 OA
HETATM   17  C   UNK N   1      24.497  21.286  -6.964  0.00  0.00     0.210 C 
ENDBRANCH   5  16
TORSDOF 5
ENDMDL
MODEL 6
REMARK VINA RESULT:      -4.5      3.633      4.860
REMARK  5 active torsions:
REMARK  status: ('A' for Active; 'I' for Inactive)
REMARK    1  A    between atoms: O_2  and  C_8 
REMARK    2  A    between atoms: O_3  and  C_11 
REMARK    3  A    between atoms: N_4  and  C_6 
REMARK    4  A    between atoms: C_5  and  C_6 
REMARK    5  A    between atoms: C_5  and  C_7 
ROOT
HETATM    1 Br   UNK N   1      26.572  21.403   6.816  0.00  0.00    -0.048 Br
HETATM    2  C   UNK N   1      29.249  17.581   5.966  0.00  0.00    -0.020 A 
HETATM    3  C   UNK N   1      28.959  18.024   7.288  0.00  0.00     0.076 A 
HETATM    4  C   UNK N   1      28.717  18.294   4.885  0.00  0.00     0.048 A 
HETATM    5  C   UNK N   1      27.919  19.426   5.052  0.00  0.00     0.086 A 
HETATM    6  C   UNK N   1      28.158  19.158   7.457  0.00  0.00     0.059 A 
HETATM    7  C   UNK N   1      27.636  19.867   6.373  0.00  0.00     0.047 A 
ENDROOT
BRANCH   2   8
HETATM    8  C   UNK N   1      30.149  16.395   5.695  0.00  0.00     0.065 C 
BRANCH   8   9
HETATM    9  C   UNK N   1      31.655  16.665   5.622  0.00  0.00     0.074 C 
HETATM   10  C   UNK N   1      32.024  17.543   4.438  0.00  0.00     0.032 C 
BRANCH   9  11
HETATM   11  N   UNK N   1      32.065  17.343   6.838  0.00  0.00    -0.426 N 
HETATM   12  H   UNK N   1      32.768  18.082   6.798  0.00  0.00     0.150 HD
HETATM   13  H   UNK N   1      31.651  17.082   7.732  0.00  0.00     0.150 HD
ENDBRANCH   9  11
ENDBRANCH   8   9
ENDBRANCH   2   8
BRANCH   3  14
HETATM   14  O   UNK N   1      29.412  17.420   8.421  0.00  0.00    -0.355 OA
HETATM   15  C   UNK N   1      29.410  17.948   9.690  0.00  0.00     0.210 C 
ENDBRANCH   3  14
BRANCH   5  16
HETATM   16  O   UNK N   1      27.474  20.029   3.917  0.00  0.00    -0.355 OA
HETATM   17  C   UNK N   1      26.212  19.951   3.382  0.00  0.00     0.210 C 
ENDBRANCH   5  16
TORSDOF 5
ENDMDL
MODEL 7
REMARK VINA RESULT:      -4.4      3.561      4.947
REMARK  5 active torsions:
REMARK  status: ('A' for Active; 'I' for Inactive)
REMARK    1  A    between atoms: O_2  and  C_8 
REMARK    2  A    between atoms: O_3  and  C_11 
REMARK    3  A    between atoms: N_4  and  C_6 
REMARK    4  A    between atoms: C_5  and  C_6 
REMARK    5  A    between atoms: C_5  and  C_7 
ROOT
HETATM    1 Br   UNK N   1      34.074  16.930   6.927  0.00  0.00    -0.048 Br
HETATM    2  C   UNK N   1      29.522  17.498   5.725  0.00  0.00    -0.020 A 
HETATM    3  C   UNK N   1      29.930  17.304   7.075  0.00  0.00     0.076 A 
HETATM    4  C   UNK N   1      30.500  17.531   4.724  0.00  0.00     0.048 A 
HETATM    5  C   UNK N   1      31.859  17.375   4.997  0.00  0.00     0.086 A 
HETATM    6  C   UNK N   1      31.293  17.148   7.351  0.00  0.00     0.059 A 
HETATM    7  C   UNK N   1      32.262  17.177   6.345  0.00  0.00     0.047 A 
ENDROOT
BRANCH   2   8
HETATM    8  C   UNK N   1      28.065  17.622   5.336  0.00  0.00     0.065 C 
BRANCH   8   9
HETATM    9  C   UNK N   1      27.396  18.981   5.566  0.00  0.00     0.074 C 
HETATM   10  C   UNK N   1      27.726  19.978   4.467  0.00  0.00     0.032 C 
BRANCH   9  11
HETATM   11  N   UNK N   1      25.957  18.793   5.594  0.00  0.00    -0.426 N 
HETATM   12  H   UNK N   1      25.496  18.271   4.849  0.00  0.00     0.150 HD
HETATM   13  H   UNK N   1      25.407  19.183   6.360  0.00  0.00     0.150 HD
ENDBRANCH   9  11
ENDBRANCH   8   9
ENDBRANCH   2   8
BRANCH   3  14
HETATM   14  O   UNK N   1      29.081  17.253   8.138  0.00  0.00    -0.355 OA
HETATM   15  C   UNK N   1      28.785  18.280   9.003  0.00  0.00     0.210 C 
ENDBRANCH   3  14
BRANCH   5  16
HETATM   16  O   UNK N   1      32.702  17.420   3.931  0.00  0.00    -0.355 OA
HETATM   17  C   UNK N   1      33.055  16.375   3.113  0.00  0.00     0.210 C 
ENDBRANCH   5  16
TORSDOF 5
ENDMDL
MODEL 8
REMARK VINA RESULT:      -4.4      2.746      4.121
REMARK  5 active torsions:
REMARK  status: ('A' for Active; 'I' for Inactive)
REMARK    1  A    between atoms: O_2  and  C_8 
REMARK    2  A    between atoms: O_3  and  C_11 
REMARK    3  A    between atoms: N_4  and  C_6 
REMARK    4  A    between atoms: C_5  and  C_6 
REMARK    5  A    between atoms: C_5  and  C_7 
ROOT
HETATM    1 Br   UNK N   1      28.592  17.926   9.446  0.00  0.00    -0.048 Br
HETATM    2  C   UNK N   1      32.223  17.284   6.463  0.00  0.00    -0.020 A 
HETATM    3  C   UNK N   1      32.412  17.738   7.799  0.00  0.00     0.076 A 
HETATM    4  C   UNK N   1      30.922  17.011   6.022  0.00  0.00     0.048 A 
HETATM    5  C   UNK N   1      29.804  17.172   6.839  0.00  0.00     0.086 A 
HETATM    6  C   UNK N   1      31.291  17.899   8.620  0.00  0.00     0.059 A 
HETATM    7  C   UNK N   1      29.996  17.629   8.170  0.00  0.00     0.047 A 
ENDROOT
BRANCH   2   8
HETATM    8  C   UNK N   1      33.376  17.133   5.495  0.00  0.00     0.065 C 
BRANCH   8   9
HETATM    9  C   UNK N   1      33.450  15.827   4.698  0.00  0.00     0.074 C 
HETATM   10  C   UNK N   1      33.351  16.062   3.200  0.00  0.00     0.032 C 
BRANCH   9  11
HETATM   11  N   UNK N   1      34.722  15.184   4.975  0.00  0.00    -0.426 N 
HETATM   12  H   UNK N   1      35.515  15.739   5.298  0.00  0.00     0.150 HD
HETATM   13  H   UNK N   1      34.823  14.177   4.847  0.00  0.00     0.150 HD
ENDBRANCH   9  11
ENDBRANCH   8   9
ENDBRANCH   2   8
BRANCH   3  14
HETATM   14  O   UNK N   1      33.621  18.036   8.349  0.00  0.00    -0.355 OA
HETATM   15  C   UNK N   1      34.431  17.186   9.062  0.00  0.00     0.210 C 
ENDBRANCH   3  14
BRANCH   5  16
HETATM   16  O   UNK N   1      28.598  16.878   6.283  0.00  0.00    -0.355 OA
HETATM   17  C   UNK N   1      28.372  16.327   5.046  0.00  0.00     0.210 C 
ENDBRANCH   5  16
TORSDOF 5
ENDMDL
MODEL 9
REMARK VINA RESULT:      -4.4     15.572     17.085
REMARK  5 active torsions:
REMARK  status: ('A' for Active; 'I' for Inactive)
REMARK    1  A    between atoms: O_2  and  C_8 
REMARK    2  A    between atoms: O_3  and  C_11 
REMARK    3  A    between atoms: N_4  and  C_6 
REMARK    4  A    between atoms: C_5  and  C_6 
REMARK    5  A    between atoms: C_5  and  C_7 
ROOT
HETATM    1 Br   UNK N   1      25.620  21.376  -7.860  0.00  0.00    -0.048 Br
HETATM    2  C   UNK N   1      25.670  25.852  -6.291  0.00  0.00    -0.020 A 
HETATM    3  C   UNK N   1      25.818  24.740  -5.414  0.00  0.00     0.076 A 
HETATM    4  C   UNK N   1      25.514  25.612  -7.662  0.00  0.00     0.048 A 
HETATM    5  C   UNK N   1      25.492  24.326  -8.201  0.00  0.00     0.086 A 
HETATM    6  C   UNK N   1      25.797  23.450  -5.953  0.00  0.00     0.059 A 
HETATM    7  C   UNK N   1      25.636  23.219  -7.321  0.00  0.00     0.047 A 
ENDROOT
BRANCH   2   8
HETATM    8  C   UNK N   1      25.629  27.277  -5.784  0.00  0.00     0.065 C 
BRANCH   8   9
HETATM    9  C   UNK N   1      26.962  27.905  -5.364  0.00  0.00     0.074 C 
HETATM   10  C   UNK N   1      27.615  28.679  -6.497  0.00  0.00     0.032 C 
BRANCH   9  11
HETATM   11  N   UNK N   1      26.719  28.823  -4.266  0.00  0.00    -0.426 N 
HETATM   12  H   UNK N   1      27.263  29.683  -4.190  0.00  0.00     0.150 HD
HETATM   13  H   UNK N   1      26.005  28.608  -3.571  0.00  0.00     0.150 HD
ENDBRANCH   9  11
ENDBRANCH   8   9
ENDBRANCH   2   8
BRANCH   3  14
HETATM   14  O   UNK N   1      25.978  24.838  -4.066  0.00  0.00    -0.355 OA
HETATM   15  C   UNK N   1      27.021  24.338  -3.324  0.00  0.00     0.210 C 
ENDBRANCH   3  14
BRANCH   5  16
HETATM   16  O   UNK N   1      25.325  24.234  -9.547  0.00  0.00    -0.355 OA
HETATM   17  C   UNK N   1      26.312  24.127 -10.496  0.00  0.00     0.210 C 
ENDBRANCH   5  16
TORSDOF 5
ENDMDL
