REMARK  4 active torsions:
REMARK  status: ('A' for Active; 'I' for Inactive)
REMARK    1  A    between atoms: C_3  and  O_1 
REMARK    2  A    between atoms: C_4  and  N_2 
REMARK    3  A    between atoms: C_3  and  C_4 
REMARK    4  A    between atoms: C_3  and  C_5 
ROOT
HETATM    1  C   UNK N   1       2.413   1.143  -0.000  0.00  0.00     0.173 C 
ENDROOT
BRANCH   1   2
HETATM    2  O   UNK N   1       1.296   1.981   0.000  0.00  0.00    -0.389 OA
HETATM    3  H   UNK N   1       1.412   2.944   0.000  0.00  0.00     0.210 HD
ENDBRANCH   1   2
BRANCH   1   4
HETATM    4  C   UNK N   1       3.796   1.805   0.000  0.00  0.00     0.103 C 
HETATM    5  C   UNK N   1       5.119   1.062  -0.000  0.00  0.00     0.034 C 
BRANCH   4   6
HETATM    6  N   UNK N   1       3.859   3.256  -0.000  0.00  0.00    -0.424 N 
HETATM    7  H   UNK N   1       4.764   3.727  -0.000  0.00  0.00     0.150 HD
HETATM    8  H   UNK N   1       2.999   3.804  -0.000  0.00  0.00     0.150 HD
ENDBRANCH   4   6
ENDBRANCH   1   4
BRANCH   1   9
HETATM    9  C   UNK N   1       2.179  -0.345  -0.000  0.00  0.00    -0.028 A 
HETATM   10  C   UNK N   1       3.259  -1.235   0.000  0.00  0.00     0.010 A 
HETATM   11  C   UNK N   1       3.045  -2.614   0.000  0.00  0.00     0.001 A 
HETATM   12  C   UNK N   1       1.742  -3.116   0.000  0.00  0.00     0.000 A 
HETATM   13  C   UNK N   1       0.655  -2.236   0.000  0.00  0.00     0.001 A 
HETATM   14  C   UNK N   1       0.871  -0.854  -0.000  0.00  0.00     0.010 A 
ENDBRANCH   1   9
TORSDOF 4
