MODEL 1
REMARK VINA RESULT:      -5.2      0.000      0.000
REMARK  4 active torsions:
REMARK  status: ('A' for Active; 'I' for Inactive)
REMARK    1  A    between atoms: C_3  and  O_1 
REMARK    2  A    between atoms: C_4  and  N_2 
REMARK    3  A    between atoms: C_3  and  C_4 
REMARK    4  A    between atoms: C_3  and  C_5 
ROOT
HETATM    1  C   UNK N   1      35.459  13.192  15.443  0.00  0.00     0.173 C 
ENDROOT
BRANCH   1   2
HETATM    2  O   UNK N   1      34.411  12.838  14.590  0.00  0.00    -0.389 OA
HETATM    3  H   UNK N   1      34.553  12.175  13.897  0.00  0.00     0.210 HD
ENDBRANCH   1   2
BRANCH   1   4
HETATM    4  C   UNK N   1      36.544  14.120  14.886  0.00  0.00     0.103 C 
HETATM    5  C   UNK N   1      37.313  15.148  15.695  0.00  0.00     0.034 C 
BRANCH   4   6
HETATM    6  N   UNK N   1      36.871  14.020  13.474  0.00  0.00    -0.424 N 
HETATM    7  H   UNK N   1      37.547  13.324  13.156  0.00  0.00     0.150 HD
HETATM    8  H   UNK N   1      36.426  14.643  12.801  0.00  0.00     0.150 HD
ENDBRANCH   4   6
ENDBRANCH   1   4
BRANCH   1   9
HETATM    9  C   UNK N   1      35.447  12.637  16.843  0.00  0.00    -0.028 A 
HETATM   10  C   UNK N   1      35.129  13.458  17.931  0.00  0.00     0.010 A 
HETATM   11  C   UNK N   1      35.117  12.947  19.229  0.00  0.00     0.001 A 
HETATM   12  C   UNK N   1      35.425  11.603  19.451  0.00  0.00     0.000 A 
HETATM   13  C   UNK N   1      35.744  10.773  18.371  0.00  0.00     0.001 A 
HETATM   14  C   UNK N   1      35.755  11.287  17.070  0.00  0.00     0.010 A 
ENDBRANCH   1   9
TORSDOF 4
ENDMDL
MODEL 2
REMARK VINA RESULT:      -5.1      8.841     11.120
REMARK  4 active torsions:
REMARK  status: ('A' for Active; 'I' for Inactive)
REMARK    1  A    between atoms: C_3  and  O_1 
REMARK    2  A    between atoms: C_4  and  N_2 
REMARK    3  A    between atoms: C_3  and  C_4 
REMARK    4  A    between atoms: C_3  and  C_5 
ROOT
HETATM    1  C   UNK N   1      34.423  17.823   8.325  0.00  0.00     0.173 C 
ENDROOT
BRANCH   1   2
HETATM    2  O   UNK N   1      35.031  19.079   8.376  0.00  0.00    -0.389 OA
HETATM    3  H   UNK N   1      35.898  19.182   8.798  0.00  0.00     0.210 HD
ENDBRANCH   1   2
BRANCH   1   4
HETATM    4  C   UNK N   1      34.887  16.770   9.338  0.00  0.00     0.103 C 
HETATM    5  C   UNK N   1      35.176  15.316   9.014  0.00  0.00     0.034 C 
BRANCH   4   6
HETATM    6  N   UNK N   1      35.068  17.182  10.719  0.00  0.00    -0.424 N 
HETATM    7  H   UNK N   1      35.128  18.174  10.950  0.00  0.00     0.150 HD
HETATM    8  H   UNK N   1      35.135  16.481  11.456  0.00  0.00     0.150 HD
ENDBRANCH   4   6
ENDBRANCH   1   4
BRANCH   1   9
HETATM    9  C   UNK N   1      33.361  17.595   7.282  0.00  0.00    -0.028 A 
HETATM   10  C   UNK N   1      33.692  17.565   5.923  0.00  0.00     0.010 A 
HETATM   11  C   UNK N   1      32.710  17.354   4.955  0.00  0.00     0.001 A 
HETATM   12  C   UNK N   1      31.381  17.170   5.341  0.00  0.00     0.000 A 
HETATM   13  C   UNK N   1      31.037  17.198   6.696  0.00  0.00     0.001 A 
HETATM   14  C   UNK N   1      32.023  17.410   7.666  0.00  0.00     0.010 A 
ENDBRANCH   1   9
TORSDOF 4
ENDMDL
MODEL 3
REMARK VINA RESULT:      -4.9      8.991     11.225
REMARK  4 active torsions:
REMARK  status: ('A' for Active; 'I' for Inactive)
REMARK    1  A    between atoms: C_3  and  O_1 
REMARK    2  A    between atoms: C_4  and  N_2 
REMARK    3  A    between atoms: C_3  and  C_4 
REMARK    4  A    between atoms: C_3  and  C_5 
ROOT
HETATM    1  C   UNK N   1      34.386  17.757   8.117  0.00  0.00     0.173 C 
ENDROOT
BRANCH   1   2
HETATM    2  O   UNK N   1      35.086  18.965   8.086  0.00  0.00    -0.389 OA
HETATM    3  H   UNK N   1      34.733  19.743   8.546  0.00  0.00     0.210 HD
ENDBRANCH   1   2
BRANCH   1   4
HETATM    4  C   UNK N   1      34.784  16.734   9.187  0.00  0.00     0.103 C 
HETATM    5  C   UNK N   1      34.962  15.246   8.949  0.00  0.00     0.034 C 
BRANCH   4   6
HETATM    6  N   UNK N   1      35.011  17.213  10.539  0.00  0.00    -0.424 N 
HETATM    7  H   UNK N   1      34.921  18.208  10.750  0.00  0.00     0.150 HD
HETATM    8  H   UNK N   1      35.259  16.556  11.278  0.00  0.00     0.150 HD
ENDBRANCH   4   6
ENDBRANCH   1   4
BRANCH   1   9
HETATM    9  C   UNK N   1      33.295  17.548   7.100  0.00  0.00    -0.028 A 
HETATM   10  C   UNK N   1      31.970  17.354   7.508  0.00  0.00     0.010 A 
HETATM   11  C   UNK N   1      30.957  17.160   6.568  0.00  0.00     0.001 A 
HETATM   12  C   UNK N   1      31.263  17.158   5.205  0.00  0.00     0.000 A 
HETATM   13  C   UNK N   1      32.583  17.351   4.786  0.00  0.00     0.001 A 
HETATM   14  C   UNK N   1      33.598  17.546   5.729  0.00  0.00     0.010 A 
ENDBRANCH   1   9
TORSDOF 4
ENDMDL
MODEL 4
REMARK VINA RESULT:      -4.8      1.701      2.349
REMARK  4 active torsions:
REMARK  status: ('A' for Active; 'I' for Inactive)
REMARK    1  A    between atoms: C_3  and  O_1 
REMARK    2  A    between atoms: C_4  and  N_2 
REMARK    3  A    between atoms: C_3  and  C_4 
REMARK    4  A    between atoms: C_3  and  C_5 
ROOT
HETATM    1  C   UNK N   1      35.809  12.361  15.001  0.00  0.00     0.173 C 
ENDROOT
BRANCH   1   2
HETATM    2  O   UNK N   1      37.014  12.847  14.491  0.00  0.00    -0.389 OA
HETATM    3  H   UNK N   1      37.634  12.243  14.052  0.00  0.00     0.210 HD
ENDBRANCH   1   2
BRANCH   1   4
HETATM    4  C   UNK N   1      34.754  11.883  13.995  0.00  0.00     0.103 C 
HETATM    5  C   UNK N   1      33.776  10.747  14.230  0.00  0.00     0.034 C 
BRANCH   4   6
HETATM    6  N   UNK N   1      34.675  12.562  12.714  0.00  0.00    -0.424 N 
HETATM    7  H   UNK N   1      33.766  12.755  12.295  0.00  0.00     0.150 HD
HETATM    8  H   UNK N   1      35.529  12.845  12.233  0.00  0.00     0.150 HD
ENDBRANCH   4   6
ENDBRANCH   1   4
BRANCH   1   9
HETATM    9  C   UNK N   1      35.632  12.341  16.497  0.00  0.00    -0.028 A 
HETATM   10  C   UNK N   1      35.316  13.515  17.191  0.00  0.00     0.010 A 
HETATM   11  C   UNK N   1      35.152  13.500  18.577  0.00  0.00     0.001 A 
HETATM   12  C   UNK N   1      35.303  12.304  19.282  0.00  0.00     0.000 A 
HETATM   13  C   UNK N   1      35.619  11.125  18.599  0.00  0.00     0.001 A 
HETATM   14  C   UNK N   1      35.783  11.142  17.210  0.00  0.00     0.010 A 
ENDBRANCH   1   9
TORSDOF 4
ENDMDL
MODEL 5
REMARK VINA RESULT:      -4.7     12.545     14.250
REMARK  4 active torsions:
REMARK  status: ('A' for Active; 'I' for Inactive)
REMARK    1  A    between atoms: C_3  and  O_1 
REMARK    2  A    between atoms: C_4  and  N_2 
REMARK    3  A    between atoms: C_3  and  C_4 
REMARK    4  A    between atoms: C_3  and  C_5 
ROOT
HETATM    1  C   UNK N   1      28.340  18.508   8.103  0.00  0.00     0.173 C 
ENDROOT
BRANCH   1   2
HETATM    2  O   UNK N   1      27.397  18.395   9.126  0.00  0.00    -0.389 OA
HETATM    3  H   UNK N   1      27.469  18.953   9.917  0.00  0.00     0.210 HD
ENDBRANCH   1   2
BRANCH   1   4
HETATM    4  C   UNK N   1      29.754  17.986   8.380  0.00  0.00     0.103 C 
HETATM    5  C   UNK N   1      30.515  17.017   7.495  0.00  0.00     0.034 C 
BRANCH   4   6
HETATM    6  N   UNK N   1      30.429  18.446   9.581  0.00  0.00    -0.424 N 
HETATM    7  H   UNK N   1      30.760  19.409   9.642  0.00  0.00     0.150 HD
HETATM    8  H   UNK N   1      30.572  17.807  10.362  0.00  0.00     0.150 HD
ENDBRANCH   4   6
ENDBRANCH   1   4
BRANCH   1   9
HETATM    9  C   UNK N   1      27.900  19.134   6.805  0.00  0.00    -0.028 A 
HETATM   10  C   UNK N   1      27.467  20.464   6.767  0.00  0.00     0.010 A 
HETATM   11  C   UNK N   1      27.060  21.046   5.566  0.00  0.00     0.001 A 
HETATM   12  C   UNK N   1      27.082  20.298   4.387  0.00  0.00     0.000 A 
HETATM   13  C   UNK N   1      27.513  18.968   4.413  0.00  0.00     0.001 A 
HETATM   14  C   UNK N   1      27.921  18.386   5.617  0.00  0.00     0.010 A 
ENDBRANCH   1   9
TORSDOF 4
ENDMDL
MODEL 6
REMARK VINA RESULT:      -4.6     24.121     26.085
REMARK  4 active torsions:
REMARK  status: ('A' for Active; 'I' for Inactive)
REMARK    1  A    between atoms: C_3  and  O_1 
REMARK    2  A    between atoms: C_4  and  N_2 
REMARK    3  A    between atoms: C_3  and  C_4 
REMARK    4  A    between atoms: C_3  and  C_5 
ROOT
HETATM    1  C   UNK N   1      27.461  24.472  -3.476  0.00  0.00     0.173 C 
ENDROOT
BRANCH   1   2
HETATM    2  O   UNK N   1      26.977  23.760  -2.376  0.00  0.00    -0.389 OA
HETATM    3  H   UNK N   1      26.799  24.220  -1.541  0.00  0.00     0.210 HD
ENDBRANCH   1   2
BRANCH   1   4
HETATM    4  C   UNK N   1      28.848  24.096  -4.009  0.00  0.00     0.103 C 
HETATM    5  C   UNK N   1      30.165  24.582  -3.432  0.00  0.00     0.034 C 
BRANCH   4   6
HETATM    6  N   UNK N   1      28.923  23.208  -5.156  0.00  0.00    -0.424 N 
HETATM    7  H   UNK N   1      28.763  23.572  -6.095  0.00  0.00     0.150 HD
HETATM    8  H   UNK N   1      29.135  22.219  -5.022  0.00  0.00     0.150 HD
ENDBRANCH   4   6
ENDBRANCH   1   4
BRANCH   1   9
HETATM    9  C   UNK N   1      26.587  25.552  -4.058  0.00  0.00    -0.028 A 
HETATM   10  C   UNK N   1      25.906  25.345  -5.263  0.00  0.00     0.010 A 
HETATM   11  C   UNK N   1      25.096  26.345  -5.803  0.00  0.00     0.001 A 
HETATM   12  C   UNK N   1      24.959  27.565  -5.139  0.00  0.00     0.000 A 
HETATM   13  C   UNK N   1      25.634  27.783  -3.934  0.00  0.00     0.001 A 
HETATM   14  C   UNK N   1      26.446  26.780  -3.393  0.00  0.00     0.010 A 
ENDBRANCH   1   9
TORSDOF 4
ENDMDL
MODEL 7
REMARK VINA RESULT:      -4.6     10.314     12.471
REMARK  4 active torsions:
REMARK  status: ('A' for Active; 'I' for Inactive)
REMARK    1  A    between atoms: C_3  and  O_1 
REMARK    2  A    between atoms: C_4  and  N_2 
REMARK    3  A    between atoms: C_3  and  C_4 
REMARK    4  A    between atoms: C_3  and  C_5 
ROOT
HETATM    1  C   UNK N   1      33.627  17.549   7.003  0.00  0.00     0.173 C 
ENDROOT
BRANCH   1   2
HETATM    2  O   UNK N   1      34.713  18.390   7.253  0.00  0.00    -0.389 OA
HETATM    3  H   UNK N   1      34.651  19.071   7.942  0.00  0.00     0.210 HD
ENDBRANCH   1   2
BRANCH   1   4
HETATM    4  C   UNK N   1      32.656  17.281   8.159  0.00  0.00     0.103 C 
HETATM    5  C   UNK N   1      31.165  17.560   8.129  0.00  0.00     0.034 C 
BRANCH   4   6
HETATM    6  N   UNK N   1      33.193  16.716   9.385  0.00  0.00    -0.424 N 
HETATM    7  H   UNK N   1      34.077  16.208   9.368  0.00  0.00     0.150 HD
HETATM    8  H   UNK N   1      32.686  16.828  10.263  0.00  0.00     0.150 HD
ENDBRANCH   4   6
ENDBRANCH   1   4
BRANCH   1   9
HETATM    9  C   UNK N   1      33.489  16.966   5.621  0.00  0.00    -0.028 A 
HETATM   10  C   UNK N   1      34.057  15.725   5.311  0.00  0.00     0.010 A 
HETATM   11  C   UNK N   1      33.931  15.184   4.031  0.00  0.00     0.001 A 
HETATM   12  C   UNK N   1      33.231  15.883   3.046  0.00  0.00     0.000 A 
HETATM   13  C   UNK N   1      32.660  17.125   3.343  0.00  0.00     0.001 A 
HETATM   14  C   UNK N   1      32.787  17.666   4.627  0.00  0.00     0.010 A 
ENDBRANCH   1   9
TORSDOF 4
ENDMDL
MODEL 8
REMARK VINA RESULT:      -4.5     14.981     15.802
REMARK  4 active torsions:
REMARK  status: ('A' for Active; 'I' for Inactive)
REMARK    1  A    between atoms: C_3  and  O_1 
REMARK    2  A    between atoms: C_4  and  N_2 
REMARK    3  A    between atoms: C_3  and  C_4 
REMARK    4  A    between atoms: C_3  and  C_5 
ROOT
HETATM    1  C   UNK N   1      20.704  13.936   9.221  0.00  0.00     0.173 C 
ENDROOT
BRANCH   1   2
HETATM    2  O   UNK N   1      19.467  14.036   9.862  0.00  0.00    -0.389 OA
HETATM    3  H   UNK N   1      19.286  14.784  10.453  0.00  0.00     0.210 HD
ENDBRANCH   1   2
BRANCH   1   4
HETATM    4  C   UNK N   1      20.827  14.547   7.820  0.00  0.00     0.103 C 
HETATM    5  C   UNK N   1      21.273  15.967   7.524  0.00  0.00     0.034 C 
BRANCH   4   6
HETATM    6  N   UNK N   1      20.495  13.713   6.679  0.00  0.00    -0.424 N 
HETATM    7  H   UNK N   1      19.964  14.102   5.900  0.00  0.00     0.150 HD
HETATM    8  H   UNK N   1      20.793  12.738   6.656  0.00  0.00     0.150 HD
ENDBRANCH   4   6
ENDBRANCH   1   4
BRANCH   1   9
HETATM    9  C   UNK N   1      21.822  13.238   9.950  0.00  0.00    -0.028 A 
HETATM   10  C   UNK N   1      23.137  13.316   9.477  0.00  0.00     0.010 A 
HETATM   11  C   UNK N   1      24.175  12.670  10.150  0.00  0.00     0.001 A 
HETATM   12  C   UNK N   1      23.904  11.937  11.307  0.00  0.00     0.000 A 
HETATM   13  C   UNK N   1      22.593  11.851  11.788  0.00  0.00     0.001 A 
HETATM   14  C   UNK N   1      21.554  12.499  11.113  0.00  0.00     0.010 A 
ENDBRANCH   1   9
TORSDOF 4
ENDMDL
MODEL 9
REMARK VINA RESULT:      -4.5      1.822      2.782
REMARK  4 active torsions:
REMARK  status: ('A' for Active; 'I' for Inactive)
REMARK    1  A    between atoms: C_3  and  O_1 
REMARK    2  A    between atoms: C_4  and  N_2 
REMARK    3  A    between atoms: C_3  and  C_4 
REMARK    4  A    between atoms: C_3  and  C_5 
ROOT
HETATM    1  C   UNK N   1      36.478  13.996  14.423  0.00  0.00     0.173 C 
ENDROOT
BRANCH   1   2
HETATM    2  O   UNK N   1      37.168  15.155  14.783  0.00  0.00    -0.389 OA
HETATM    3  H   UNK N   1      37.292  15.867  14.136  0.00  0.00     0.210 HD
ENDBRANCH   1   2
BRANCH   1   4
HETATM    4  C   UNK N   1      36.050  13.852  12.957  0.00  0.00     0.103 C 
HETATM    5  C   UNK N   1      34.974  12.909  12.451  0.00  0.00     0.034 C 
BRANCH   4   6
HETATM    6  N   UNK N   1      36.718  14.678  11.966  0.00  0.00    -0.424 N 
HETATM    7  H   UNK N   1      36.676  15.695  12.038  0.00  0.00     0.150 HD
HETATM    8  H   UNK N   1      37.229  14.241  11.200  0.00  0.00     0.150 HD
ENDBRANCH   4   6
ENDBRANCH   1   4
BRANCH   1   9
HETATM    9  C   UNK N   1      36.205  12.974  15.495  0.00  0.00    -0.028 A 
HETATM   10  C   UNK N   1      36.704  11.671  15.380  0.00  0.00     0.010 A 
HETATM   11  C   UNK N   1      36.453  10.722  16.372  0.00  0.00     0.001 A 
HETATM   12  C   UNK N   1      35.697  11.071  17.493  0.00  0.00     0.000 A 
HETATM   13  C   UNK N   1      35.194  12.370  17.619  0.00  0.00     0.001 A 
HETATM   14  C   UNK N   1      35.446  13.320  16.624  0.00  0.00     0.010 A 
ENDBRANCH   1   9
TORSDOF 4
ENDMDL
