MODEL 1
REMARK VINA RESULT:      -5.8      0.000      0.000
REMARK  10 active torsions:
REMARK  status: ('A' for Active; 'I' for Inactive)
REMARK    1  A    between atoms: O_1  and  C_15 
REMARK    2  A    between atoms: O_3  and  C_20 
REMARK    3  A    between atoms: N_4  and  C_8 
REMARK       I    between atoms: N_4  and  C_14 
REMARK    4  A    between atoms: C_5  and  C_6 
REMARK    5  A    between atoms: C_5  and  C_7 
REMARK    6  A    between atoms: C_5  and  C_8 
REMARK    7  A    between atoms: C_5  and  C_9 
REMARK    8  A    between atoms: C_14  and  C_17 
REMARK    9  A    between atoms: C_17  and  C_19 
REMARK   10  A    between atoms: C_19  and  C_20 
ROOT
HETATM    1  C   UNK N   1      35.569  11.802  15.405  0.00  0.00     0.002 C 
ENDROOT
BRANCH   1   2
HETATM    2  C   UNK N   1      36.263  10.450  15.101  0.00  0.00     0.012 C 
HETATM    3  C   UNK N   1      37.765  10.538  14.869  0.00  0.00     0.006 C 
ENDBRANCH   1   2
BRANCH   1   4
HETATM    4  C   UNK N   1      34.190  11.790  14.713  0.00  0.00     0.012 C 
HETATM    5  C   UNK N   1      33.882  10.514  13.938  0.00  0.00     0.006 C 
ENDBRANCH   1   4
BRANCH   1   6
HETATM    6  C   UNK N   1      36.358  12.985  14.799  0.00  0.00     0.137 C 
BRANCH   6   7
HETATM    7  N   UNK N   1      35.780  13.467  13.559  0.00  0.00    -0.360 N 
HETATM    8  C   UNK N   1      36.325  13.267  12.335  0.00  0.00     0.217 C 
HETATM    9  O   UNK N   1      37.351  12.617  12.204  0.00  0.00    -0.274 OA
HETATM   10  H   UNK N   1      34.937  13.974  13.610  0.00  0.00     0.162 HD
BRANCH   8  11
HETATM   11  C   UNK N   1      35.671  13.863  11.129  0.00  0.00     0.105 C 
BRANCH  11  12
HETATM   12  C   UNK N   1      34.903  15.117  11.513  0.00  0.00     0.035 C 
BRANCH  12  13
HETATM   13  C   UNK N   1      35.487  16.329  10.812  0.00  0.00     0.164 C 
BRANCH  13  14
HETATM   14  O   UNK N   1      36.880  16.266  10.843  0.00  0.00    -0.401 OA
HETATM   15  H   UNK N   1      37.457  17.043  10.766  0.00  0.00     0.209 HD
ENDBRANCH  13  14
ENDBRANCH  12  13
ENDBRANCH  11  12
ENDBRANCH   8  11
ENDBRANCH   6   7
ENDBRANCH   1   6
BRANCH   1  16
HETATM   16  C   UNK N   1      35.460  12.008  16.919  0.00  0.00    -0.045 A 
HETATM   17  C   UNK N   1      35.626  10.942  17.827  0.00  0.00     0.044 A 
HETATM   18  C   UNK N   1      35.569  11.155  19.208  0.00  0.00     0.068 A 
HETATM   19  C   UNK N   1      35.327  12.449  19.698  0.00  0.00     0.037 A 
HETATM   20  C   UNK N   1      35.143  13.511  18.812  0.00  0.00     0.003 A 
HETATM   21  C   UNK N   1      35.214  13.293  17.436  0.00  0.00     0.008 A 
BRANCH  18  22
HETATM   22  O   UNK N   1      35.764  10.107  20.043  0.00  0.00    -0.356 OA
HETATM   23  C   UNK N   1      35.066   9.938  21.216  0.00  0.00     0.210 C 
ENDBRANCH  18  22
ENDBRANCH   1  16
TORSDOF 10
ENDMDL
MODEL 2
REMARK VINA RESULT:      -5.6      1.827      2.682
REMARK  10 active torsions:
REMARK  status: ('A' for Active; 'I' for Inactive)
REMARK    1  A    between atoms: O_1  and  C_15 
REMARK    2  A    between atoms: O_3  and  C_20 
REMARK    3  A    between atoms: N_4  and  C_8 
REMARK       I    between atoms: N_4  and  C_14 
REMARK    4  A    between atoms: C_5  and  C_6 
REMARK    5  A    between atoms: C_5  and  C_7 
REMARK    6  A    between atoms: C_5  and  C_8 
REMARK    7  A    between atoms: C_5  and  C_9 
REMARK    8  A    between atoms: C_14  and  C_17 
REMARK    9  A    between atoms: C_17  and  C_19 
REMARK   10  A    between atoms: C_19  and  C_20 
ROOT
HETATM    1  C   UNK N   1      35.701  11.799  15.066  0.00  0.00     0.002 C 
ENDROOT
BRANCH   1   2
HETATM    2  C   UNK N   1      37.197  11.742  14.665  0.00  0.00     0.012 C 
HETATM    3  C   UNK N   1      37.824  10.356  14.719  0.00  0.00     0.006 C 
ENDBRANCH   1   2
BRANCH   1   4
HETATM    4  C   UNK N   1      35.065  10.439  14.712  0.00  0.00     0.012 C 
HETATM    5  C   UNK N   1      33.885  10.524  13.751  0.00  0.00     0.006 C 
ENDBRANCH   1   4
BRANCH   1   6
HETATM    6  C   UNK N   1      34.943  12.868  14.247  0.00  0.00     0.137 C 
BRANCH   6   7
HETATM    7  N   UNK N   1      35.825  13.669  13.419  0.00  0.00    -0.360 N 
HETATM    8  C   UNK N   1      35.441  14.295  12.280  0.00  0.00     0.217 C 
HETATM    9  O   UNK N   1      34.282  14.242  11.896  0.00  0.00    -0.274 OA
HETATM   10  H   UNK N   1      36.762  13.764  13.702  0.00  0.00     0.162 HD
BRANCH   8  11
HETATM   11  C   UNK N   1      36.452  15.046  11.473  0.00  0.00     0.105 C 
BRANCH  11  12
HETATM   12  C   UNK N   1      36.597  14.419  10.097  0.00  0.00     0.035 C 
BRANCH  12  13
HETATM   13  C   UNK N   1      38.052  14.096   9.815  0.00  0.00     0.164 C 
BRANCH  13  14
HETATM   14  O   UNK N   1      38.613  13.443  10.913  0.00  0.00    -0.401 OA
HETATM   15  H   UNK N   1      39.336  12.800  10.847  0.00  0.00     0.209 HD
ENDBRANCH  13  14
ENDBRANCH  12  13
ENDBRANCH  11  12
ENDBRANCH   8  11
ENDBRANCH   6   7
ENDBRANCH   1   6
BRANCH   1  16
HETATM   16  C   UNK N   1      35.570  12.135  16.555  0.00  0.00    -0.045 A 
HETATM   17  C   UNK N   1      35.466  13.465  17.009  0.00  0.00     0.044 A 
HETATM   18  C   UNK N   1      35.300  13.753  18.368  0.00  0.00     0.068 A 
HETATM   19  C   UNK N   1      35.252  12.700  19.295  0.00  0.00     0.037 A 
HETATM   20  C   UNK N   1      35.371  11.378  18.864  0.00  0.00     0.003 A 
HETATM   21  C   UNK N   1      35.523  11.099  17.506  0.00  0.00     0.008 A 
BRANCH  18  22
HETATM   22  O   UNK N   1      35.175  15.044  18.755  0.00  0.00    -0.356 OA
HETATM   23  C   UNK N   1      35.941  16.064  18.237  0.00  0.00     0.210 C 
ENDBRANCH  18  22
ENDBRANCH   1  16
TORSDOF 10
ENDMDL
MODEL 3
REMARK VINA RESULT:      -5.6      5.546     10.551
REMARK  10 active torsions:
REMARK  status: ('A' for Active; 'I' for Inactive)
REMARK    1  A    between atoms: O_1  and  C_15 
REMARK    2  A    between atoms: O_3  and  C_20 
REMARK    3  A    between atoms: N_4  and  C_8 
REMARK       I    between atoms: N_4  and  C_14 
REMARK    4  A    between atoms: C_5  and  C_6 
REMARK    5  A    between atoms: C_5  and  C_7 
REMARK    6  A    between atoms: C_5  and  C_8 
REMARK    7  A    between atoms: C_5  and  C_9 
REMARK    8  A    between atoms: C_14  and  C_17 
REMARK    9  A    between atoms: C_17  and  C_19 
REMARK   10  A    between atoms: C_19  and  C_20 
ROOT
HETATM    1  C   UNK N   1      32.165  16.553   7.800  0.00  0.00     0.002 C 
ENDROOT
BRANCH   1   2
HETATM    2  C   UNK N   1      32.111  15.076   8.265  0.00  0.00     0.012 C 
HETATM    3  C   UNK N   1      32.678  14.069   7.273  0.00  0.00     0.006 C 
ENDBRANCH   1   2
BRANCH   1   4
HETATM    4  C   UNK N   1      32.578  16.566   6.314  0.00  0.00     0.012 C 
HETATM    5  C   UNK N   1      33.764  17.469   5.994  0.00  0.00     0.006 C 
ENDBRANCH   1   4
BRANCH   1   6
HETATM    6  C   UNK N   1      33.252  17.341   8.567  0.00  0.00     0.137 C 
BRANCH   6   7
HETATM    7  N   UNK N   1      33.850  16.570   9.641  0.00  0.00    -0.360 N 
HETATM    8  C   UNK N   1      35.010  16.898  10.261  0.00  0.00     0.217 C 
HETATM    9  O   UNK N   1      35.616  17.916   9.959  0.00  0.00    -0.274 OA
HETATM   10  H   UNK N   1      33.384  15.756   9.939  0.00  0.00     0.162 HD
BRANCH   8  11
HETATM   11  C   UNK N   1      35.563  15.995  11.317  0.00  0.00     0.105 C 
BRANCH  11  12
HETATM   12  C   UNK N   1      34.916  14.624  11.227  0.00  0.00     0.035 C 
BRANCH  12  13
HETATM   13  C   UNK N   1      35.936  13.539  11.518  0.00  0.00     0.164 C 
BRANCH  13  14
HETATM   14  O   UNK N   1      37.007  14.077  12.231  0.00  0.00    -0.401 OA
HETATM   15  H   UNK N   1      37.343  13.706  13.062  0.00  0.00     0.209 HD
ENDBRANCH  13  14
ENDBRANCH  12  13
ENDBRANCH  11  12
ENDBRANCH   8  11
ENDBRANCH   6   7
ENDBRANCH   1   6
BRANCH   1  16
HETATM   16  C   UNK N   1      30.810  17.228   8.036  0.00  0.00    -0.045 A 
HETATM   17  C   UNK N   1      29.720  17.025   7.167  0.00  0.00     0.044 A 
HETATM   18  C   UNK N   1      28.475  17.611   7.421  0.00  0.00     0.068 A 
HETATM   19  C   UNK N   1      28.316  18.429   8.552  0.00  0.00     0.037 A 
HETATM   20  C   UNK N   1      29.391  18.655   9.412  0.00  0.00     0.003 A 
HETATM   21  C   UNK N   1      30.625  18.055   9.158  0.00  0.00     0.008 A 
BRANCH  18  22
HETATM   22  O   UNK N   1      27.447  17.364   6.575  0.00  0.00    -0.356 OA
HETATM   23  C   UNK N   1      27.567  17.421   5.206  0.00  0.00     0.210 C 
ENDBRANCH  18  22
ENDBRANCH   1  16
TORSDOF 10
ENDMDL
MODEL 4
REMARK VINA RESULT:      -5.4      6.302     11.231
REMARK  10 active torsions:
REMARK  status: ('A' for Active; 'I' for Inactive)
REMARK    1  A    between atoms: O_1  and  C_15 
REMARK    2  A    between atoms: O_3  and  C_20 
REMARK    3  A    between atoms: N_4  and  C_8 
REMARK       I    between atoms: N_4  and  C_14 
REMARK    4  A    between atoms: C_5  and  C_6 
REMARK    5  A    between atoms: C_5  and  C_7 
REMARK    6  A    between atoms: C_5  and  C_8 
REMARK    7  A    between atoms: C_5  and  C_9 
REMARK    8  A    between atoms: C_14  and  C_17 
REMARK    9  A    between atoms: C_17  and  C_19 
REMARK   10  A    between atoms: C_19  and  C_20 
ROOT
HETATM    1  C   UNK N   1      32.103  17.114   8.175  0.00  0.00     0.002 C 
ENDROOT
BRANCH   1   2
HETATM    2  C   UNK N   1      31.032  18.041   8.803  0.00  0.00     0.012 C 
HETATM    3  C   UNK N   1      29.835  17.322   9.408  0.00  0.00     0.006 C 
ENDBRANCH   1   2
BRANCH   1   4
HETATM    4  C   UNK N   1      31.835  15.679   8.671  0.00  0.00     0.012 C 
HETATM    5  C   UNK N   1      32.303  14.583   7.721  0.00  0.00     0.006 C 
ENDBRANCH   1   4
BRANCH   1   6
HETATM    6  C   UNK N   1      33.522  17.491   8.658  0.00  0.00     0.137 C 
BRANCH   6   7
HETATM    7  N   UNK N   1      33.998  16.629   9.723  0.00  0.00    -0.360 N 
HETATM    8  C   UNK N   1      35.147  16.832  10.414  0.00  0.00     0.217 C 
HETATM    9  O   UNK N   1      35.849  17.807  10.189  0.00  0.00    -0.274 OA
HETATM   10  H   UNK N   1      33.453  15.845   9.960  0.00  0.00     0.162 HD
BRANCH   8  11
HETATM   11  C   UNK N   1      35.569  15.843  11.453  0.00  0.00     0.105 C 
BRANCH  11  12
HETATM   12  C   UNK N   1      35.692  14.458  10.840  0.00  0.00     0.035 C 
BRANCH  12  13
HETATM   13  C   UNK N   1      36.753  14.453   9.755  0.00  0.00     0.164 C 
BRANCH  13  14
HETATM   14  O   UNK N   1      37.976  14.858  10.290  0.00  0.00    -0.401 OA
HETATM   15  H   UNK N   1      38.444  14.378  10.991  0.00  0.00     0.209 HD
ENDBRANCH  13  14
ENDBRANCH  12  13
ENDBRANCH  11  12
ENDBRANCH   8  11
ENDBRANCH   6   7
ENDBRANCH   1   6
BRANCH   1  16
HETATM   16  C   UNK N   1      32.060  17.221   6.647  0.00  0.00    -0.045 A 
HETATM   17  C   UNK N   1      30.854  17.097   5.929  0.00  0.00     0.044 A 
HETATM   18  C   UNK N   1      30.824  17.243   4.538  0.00  0.00     0.068 A 
HETATM   19  C   UNK N   1      32.017  17.502   3.845  0.00  0.00     0.037 A 
HETATM   20  C   UNK N   1      33.222  17.610   4.540  0.00  0.00     0.003 A 
HETATM   21  C   UNK N   1      33.242  17.476   5.929  0.00  0.00     0.008 A 
BRANCH  18  22
HETATM   22  O   UNK N   1      29.637  17.145   3.893  0.00  0.00    -0.356 OA
HETATM   23  C   UNK N   1      29.037  15.942   3.597  0.00  0.00     0.210 C 
ENDBRANCH  18  22
ENDBRANCH   1  16
TORSDOF 10
ENDMDL
MODEL 5
REMARK VINA RESULT:      -5.4     21.553     26.941
REMARK  10 active torsions:
REMARK  status: ('A' for Active; 'I' for Inactive)
REMARK    1  A    between atoms: O_1  and  C_15 
REMARK    2  A    between atoms: O_3  and  C_20 
REMARK    3  A    between atoms: N_4  and  C_8 
REMARK       I    between atoms: N_4  and  C_14 
REMARK    4  A    between atoms: C_5  and  C_6 
REMARK    5  A    between atoms: C_5  and  C_7 
REMARK    6  A    between atoms: C_5  and  C_8 
REMARK    7  A    between atoms: C_5  and  C_9 
REMARK    8  A    between atoms: C_14  and  C_17 
REMARK    9  A    between atoms: C_17  and  C_19 
REMARK   10  A    between atoms: C_19  and  C_20 
ROOT
HETATM    1  C   UNK N   1      26.794  26.657  -6.156  0.00  0.00     0.002 C 
ENDROOT
BRANCH   1   2
HETATM    2  C   UNK N   1      28.073  27.487  -6.432  0.00  0.00     0.012 C 
HETATM    3  C   UNK N   1      27.879  28.997  -6.390  0.00  0.00     0.006 C 
ENDBRANCH   1   2
BRANCH   1   4
HETATM    4  C   UNK N   1      25.710  27.619  -5.629  0.00  0.00     0.012 C 
HETATM    5  C   UNK N   1      25.552  27.625  -4.113  0.00  0.00     0.006 C 
ENDBRANCH   1   4
BRANCH   1   6
HETATM    6  C   UNK N   1      27.036  25.612  -5.042  0.00  0.00     0.137 C 
BRANCH   6   7
HETATM    7  N   UNK N   1      28.440  25.464  -4.708  0.00  0.00    -0.360 N 
HETATM    8  C   UNK N   1      28.911  24.642  -3.739  0.00  0.00     0.217 C 
HETATM    9  O   UNK N   1      28.152  23.932  -3.096  0.00  0.00    -0.274 OA
HETATM   10  H   UNK N   1      29.094  25.995  -5.218  0.00  0.00     0.162 HD
BRANCH   8  11
HETATM   11  C   UNK N   1      30.377  24.615  -3.441  0.00  0.00     0.105 C 
BRANCH  11  12
HETATM   12  C   UNK N   1      30.988  23.311  -3.926  0.00  0.00     0.035 C 
BRANCH  12  13
HETATM   13  C   UNK N   1      31.237  22.379  -2.756  0.00  0.00     0.164 C 
BRANCH  13  14
HETATM   14  O   UNK N   1      30.692  22.923  -1.593  0.00  0.00    -0.401 OA
HETATM   15  H   UNK N   1      31.014  23.737  -1.176  0.00  0.00     0.209 HD
ENDBRANCH  13  14
ENDBRANCH  12  13
ENDBRANCH  11  12
ENDBRANCH   8  11
ENDBRANCH   6   7
ENDBRANCH   1   6
BRANCH   1  16
HETATM   16  C   UNK N   1      26.357  25.926  -7.429  0.00  0.00    -0.045 A 
HETATM   17  C   UNK N   1      25.658  24.703  -7.380  0.00  0.00     0.044 A 
HETATM   18  C   UNK N   1      25.225  24.071  -8.551  0.00  0.00     0.068 A 
HETATM   19  C   UNK N   1      25.506  24.658  -9.795  0.00  0.00     0.037 A 
HETATM   20  C   UNK N   1      26.213  25.858  -9.862  0.00  0.00     0.003 A 
HETATM   21  C   UNK N   1      26.630  26.489  -8.689  0.00  0.00     0.008 A 
BRANCH  18  22
HETATM   22  O   UNK N   1      24.531  22.913  -8.454  0.00  0.00    -0.356 OA
HETATM   23  C   UNK N   1      25.066  21.754  -7.940  0.00  0.00     0.210 C 
ENDBRANCH  18  22
ENDBRANCH   1  16
TORSDOF 10
ENDMDL
MODEL 6
REMARK VINA RESULT:      -5.4     20.971     24.938
REMARK  10 active torsions:
REMARK  status: ('A' for Active; 'I' for Inactive)
REMARK    1  A    between atoms: O_1  and  C_15 
REMARK    2  A    between atoms: O_3  and  C_20 
REMARK    3  A    between atoms: N_4  and  C_8 
REMARK       I    between atoms: N_4  and  C_14 
REMARK    4  A    between atoms: C_5  and  C_6 
REMARK    5  A    between atoms: C_5  and  C_7 
REMARK    6  A    between atoms: C_5  and  C_8 
REMARK    7  A    between atoms: C_5  and  C_9 
REMARK    8  A    between atoms: C_14  and  C_17 
REMARK    9  A    between atoms: C_17  and  C_19 
REMARK   10  A    between atoms: C_19  and  C_20 
ROOT
HETATM    1  C   UNK N   1      27.922  24.735  -5.254  0.00  0.00     0.002 C 
ENDROOT
BRANCH   1   2
HETATM    2  C   UNK N   1      27.128  23.463  -5.645  0.00  0.00     0.012 C 
HETATM    3  C   UNK N   1      27.429  22.920  -7.035  0.00  0.00     0.006 C 
ENDBRANCH   1   2
BRANCH   1   4
HETATM    4  C   UNK N   1      28.895  25.057  -6.408  0.00  0.00     0.012 C 
HETATM    5  C   UNK N   1      29.891  26.170  -6.103  0.00  0.00     0.006 C 
ENDBRANCH   1   4
BRANCH   1   6
HETATM    6  C   UNK N   1      28.791  24.488  -4.000  0.00  0.00     0.137 C 
BRANCH   6   7
HETATM    7  N   UNK N   1      29.445  23.193  -4.017  0.00  0.00    -0.360 N 
HETATM    8  C   UNK N   1      30.192  22.702  -2.998  0.00  0.00     0.217 C 
HETATM    9  O   UNK N   1      30.329  23.334  -1.961  0.00  0.00    -0.274 OA
HETATM   10  H   UNK N   1      29.341  22.635  -4.821  0.00  0.00     0.162 HD
BRANCH   8  11
HETATM   11  C   UNK N   1      30.869  21.378  -3.150  0.00  0.00     0.105 C 
BRANCH  11  12
HETATM   12  C   UNK N   1      32.087  21.511  -4.050  0.00  0.00     0.035 C 
BRANCH  12  13
HETATM   13  C   UNK N   1      33.337  21.069  -3.313  0.00  0.00     0.164 C 
BRANCH  13  14
HETATM   14  O   UNK N   1      33.078  20.995  -1.944  0.00  0.00    -0.401 OA
HETATM   15  H   UNK N   1      33.236  20.203  -1.408  0.00  0.00     0.209 HD
ENDBRANCH  13  14
ENDBRANCH  12  13
ENDBRANCH  11  12
ENDBRANCH   8  11
ENDBRANCH   6   7
ENDBRANCH   1   6
BRANCH   1  16
HETATM   16  C   UNK N   1      26.957  25.888  -4.965  0.00  0.00    -0.045 A 
HETATM   17  C   UNK N   1      27.152  26.764  -3.879  0.00  0.00     0.044 A 
HETATM   18  C   UNK N   1      26.288  27.841  -3.655  0.00  0.00     0.068 A 
HETATM   19  C   UNK N   1      25.198  28.042  -4.518  0.00  0.00     0.037 A 
HETATM   20  C   UNK N   1      24.981  27.173  -5.587  0.00  0.00     0.003 A 
HETATM   21  C   UNK N   1      25.855  26.109  -5.811  0.00  0.00     0.008 A 
BRANCH  18  22
HETATM   22  O   UNK N   1      26.532  28.674  -2.616  0.00  0.00    -0.356 OA
HETATM   23  C   UNK N   1      27.774  29.202  -2.348  0.00  0.00     0.210 C 
ENDBRANCH  18  22
ENDBRANCH   1  16
TORSDOF 10
ENDMDL
MODEL 7
REMARK VINA RESULT:      -5.3      6.553     11.335
REMARK  10 active torsions:
REMARK  status: ('A' for Active; 'I' for Inactive)
REMARK    1  A    between atoms: O_1  and  C_15 
REMARK    2  A    between atoms: O_3  and  C_20 
REMARK    3  A    between atoms: N_4  and  C_8 
REMARK       I    between atoms: N_4  and  C_14 
REMARK    4  A    between atoms: C_5  and  C_6 
REMARK    5  A    between atoms: C_5  and  C_7 
REMARK    6  A    between atoms: C_5  and  C_8 
REMARK    7  A    between atoms: C_5  and  C_9 
REMARK    8  A    between atoms: C_14  and  C_17 
REMARK    9  A    between atoms: C_17  and  C_19 
REMARK   10  A    between atoms: C_19  and  C_20 
ROOT
HETATM    1  C   UNK N   1      31.667  16.653   6.679  0.00  0.00     0.002 C 
ENDROOT
BRANCH   1   2
HETATM    2  C   UNK N   1      31.597  15.150   7.047  0.00  0.00     0.012 C 
HETATM    3  C   UNK N   1      31.849  14.193   5.890  0.00  0.00     0.006 C 
ENDBRANCH   1   2
BRANCH   1   4
HETATM    4  C   UNK N   1      31.715  16.761   5.141  0.00  0.00     0.012 C 
HETATM    5  C   UNK N   1      32.865  17.604   4.602  0.00  0.00     0.006 C 
ENDBRANCH   1   4
BRANCH   1   6
HETATM    6  C   UNK N   1      32.967  17.299   7.208  0.00  0.00     0.137 C 
BRANCH   6   7
HETATM    7  N   UNK N   1      33.736  16.402   8.051  0.00  0.00    -0.360 N 
HETATM    8  C   UNK N   1      34.830  15.718   7.637  0.00  0.00     0.217 C 
HETATM    9  O   UNK N   1      35.262  15.853   6.501  0.00  0.00    -0.274 OA
HETATM   10  H   UNK N   1      33.444  16.282   8.983  0.00  0.00     0.162 HD
BRANCH   8  11
HETATM   11  C   UNK N   1      35.510  14.774   8.577  0.00  0.00     0.105 C 
BRANCH  11  12
HETATM   12  C   UNK N   1      34.479  13.957   9.338  0.00  0.00     0.035 C 
BRANCH  12  13
HETATM   13  C   UNK N   1      34.432  14.389  10.791  0.00  0.00     0.164 C 
BRANCH  13  14
HETATM   14  O   UNK N   1      33.236  15.061  11.046  0.00  0.00    -0.401 OA
HETATM   15  H   UNK N   1      33.170  16.023  11.154  0.00  0.00     0.209 HD
ENDBRANCH  13  14
ENDBRANCH  12  13
ENDBRANCH  11  12
ENDBRANCH   8  11
ENDBRANCH   6   7
ENDBRANCH   1   6
BRANCH   1  16
HETATM   16  C   UNK N   1      30.469  17.397   7.279  0.00  0.00    -0.045 A 
HETATM   17  C   UNK N   1      29.372  17.795   6.490  0.00  0.00     0.044 A 
HETATM   18  C   UNK N   1      28.265  18.432   7.061  0.00  0.00     0.068 A 
HETATM   19  C   UNK N   1      28.255  18.693   8.440  0.00  0.00     0.037 A 
HETATM   20  C   UNK N   1      29.342  18.322   9.233  0.00  0.00     0.003 A 
HETATM   21  C   UNK N   1      30.436  17.675   8.658  0.00  0.00     0.008 A 
BRANCH  18  22
HETATM   22  O   UNK N   1      27.220  18.769   6.268  0.00  0.00    -0.356 OA
HETATM   23  C   UNK N   1      27.077  20.014   5.699  0.00  0.00     0.210 C 
ENDBRANCH  18  22
ENDBRANCH   1  16
TORSDOF 10
ENDMDL
MODEL 8
REMARK VINA RESULT:      -5.3     21.319     26.408
REMARK  10 active torsions:
REMARK  status: ('A' for Active; 'I' for Inactive)
REMARK    1  A    between atoms: O_1  and  C_15 
REMARK    2  A    between atoms: O_3  and  C_20 
REMARK    3  A    between atoms: N_4  and  C_8 
REMARK       I    between atoms: N_4  and  C_14 
REMARK    4  A    between atoms: C_5  and  C_6 
REMARK    5  A    between atoms: C_5  and  C_7 
REMARK    6  A    between atoms: C_5  and  C_8 
REMARK    7  A    between atoms: C_5  and  C_9 
REMARK    8  A    between atoms: C_14  and  C_17 
REMARK    9  A    between atoms: C_17  and  C_19 
REMARK   10  A    between atoms: C_19  and  C_20 
ROOT
HETATM    1  C   UNK N   1      26.760  26.087  -5.438  0.00  0.00     0.002 C 
ENDROOT
BRANCH   1   2
HETATM    2  C   UNK N   1      26.360  27.453  -6.050  0.00  0.00     0.012 C 
HETATM    3  C   UNK N   1      27.519  28.278  -6.593  0.00  0.00     0.006 C 
ENDBRANCH   1   2
BRANCH   1   4
HETATM    4  C   UNK N   1      26.220  26.041  -3.994  0.00  0.00     0.012 C 
HETATM    5  C   UNK N   1      25.784  27.391  -3.438  0.00  0.00     0.006 C 
ENDBRANCH   1   4
BRANCH   1   6
HETATM    6  C   UNK N   1      28.296  25.946  -5.339  0.00  0.00     0.137 C 
BRANCH   6   7
HETATM    7  N   UNK N   1      28.714  25.151  -4.200  0.00  0.00    -0.360 N 
HETATM    8  C   UNK N   1      29.217  23.896  -4.289  0.00  0.00     0.217 C 
HETATM    9  O   UNK N   1      29.381  23.362  -5.376  0.00  0.00    -0.274 OA
HETATM   10  H   UNK N   1      28.626  25.549  -3.304  0.00  0.00     0.162 HD
BRANCH   8  11
HETATM   11  C   UNK N   1      29.559  23.148  -3.040  0.00  0.00     0.105 C 
BRANCH  11  12
HETATM   12  C   UNK N   1      31.067  23.072  -2.869  0.00  0.00     0.035 C 
BRANCH  12  13
HETATM   13  C   UNK N   1      31.550  21.648  -3.073  0.00  0.00     0.164 C 
BRANCH  13  14
HETATM   14  O   UNK N   1      32.440  21.302  -2.056  0.00  0.00    -0.401 OA
HETATM   15  H   UNK N   1      32.200  21.269  -1.117  0.00  0.00     0.209 HD
ENDBRANCH  13  14
ENDBRANCH  12  13
ENDBRANCH  11  12
ENDBRANCH   8  11
ENDBRANCH   6   7
ENDBRANCH   1   6
BRANCH   1  16
HETATM   16  C   UNK N   1      26.216  24.945  -6.302  0.00  0.00    -0.045 A 
HETATM   17  C   UNK N   1      25.981  25.106  -7.682  0.00  0.00     0.044 A 
HETATM   18  C   UNK N   1      25.528  24.040  -8.467  0.00  0.00     0.068 A 
HETATM   19  C   UNK N   1      25.288  22.794  -7.865  0.00  0.00     0.037 A 
HETATM   20  C   UNK N   1      25.498  22.623  -6.496  0.00  0.00     0.003 A 
HETATM   21  C   UNK N   1      25.963  23.688  -5.723  0.00  0.00     0.008 A 
BRANCH  18  22
HETATM   22  O   UNK N   1      25.344  24.233  -9.794  0.00  0.00    -0.356 OA
HETATM   23  C   UNK N   1      24.885  25.416 -10.328  0.00  0.00     0.210 C 
ENDBRANCH  18  22
ENDBRANCH   1  16
TORSDOF 10
ENDMDL
MODEL 9
REMARK VINA RESULT:      -5.3     22.167     25.811
REMARK  10 active torsions:
REMARK  status: ('A' for Active; 'I' for Inactive)
REMARK    1  A    between atoms: O_1  and  C_15 
REMARK    2  A    between atoms: O_3  and  C_20 
REMARK    3  A    between atoms: N_4  and  C_8 
REMARK       I    between atoms: N_4  and  C_14 
REMARK    4  A    between atoms: C_5  and  C_6 
REMARK    5  A    between atoms: C_5  and  C_7 
REMARK    6  A    between atoms: C_5  and  C_8 
REMARK    7  A    between atoms: C_5  and  C_9 
REMARK    8  A    between atoms: C_14  and  C_17 
REMARK    9  A    between atoms: C_17  and  C_19 
REMARK   10  A    between atoms: C_19  and  C_20 
ROOT
HETATM    1  C   UNK N   1      27.239  27.215  -5.099  0.00  0.00     0.002 C 
ENDROOT
BRANCH   1   2
HETATM    2  C   UNK N   1      26.184  27.324  -6.229  0.00  0.00     0.012 C 
HETATM    3  C   UNK N   1      24.748  27.064  -5.795  0.00  0.00     0.006 C 
ENDBRANCH   1   2
BRANCH   1   4
HETATM    4  C   UNK N   1      28.575  26.790  -5.741  0.00  0.00     0.012 C 
HETATM    5  C   UNK N   1      28.629  26.950  -7.256  0.00  0.00     0.006 C 
ENDBRANCH   1   4
BRANCH   1   6
HETATM    6  C   UNK N   1      26.862  26.110  -4.087  0.00  0.00     0.137 C 
BRANCH   6   7
HETATM    7  N   UNK N   1      27.952  25.186  -3.835  0.00  0.00    -0.360 N 
HETATM    8  C   UNK N   1      27.849  24.077  -3.063  0.00  0.00     0.217 C 
HETATM    9  O   UNK N   1      26.785  23.769  -2.548  0.00  0.00    -0.274 OA
HETATM   10  H   UNK N   1      28.824  25.377  -4.251  0.00  0.00     0.162 HD
BRANCH   8  11
HETATM   11  C   UNK N   1      29.058  23.229  -2.824  0.00  0.00     0.105 C 
BRANCH  11  12
HETATM   12  C   UNK N   1      30.132  23.543  -3.852  0.00  0.00     0.035 C 
BRANCH  12  13
HETATM   13  C   UNK N   1      31.481  23.039  -3.376  0.00  0.00     0.164 C 
BRANCH  13  14
HETATM   14  O   UNK N   1      31.330  22.352  -2.172  0.00  0.00    -0.401 OA
HETATM   15  H   UNK N   1      31.018  21.435  -2.109  0.00  0.00     0.209 HD
ENDBRANCH  13  14
ENDBRANCH  12  13
ENDBRANCH  11  12
ENDBRANCH   8  11
ENDBRANCH   6   7
ENDBRANCH   1   6
BRANCH   1  16
HETATM   16  C   UNK N   1      27.347  28.549  -4.353  0.00  0.00    -0.045 A 
HETATM   17  C   UNK N   1      27.519  28.605  -2.956  0.00  0.00     0.044 A 
HETATM   18  C   UNK N   1      27.663  29.830  -2.294  0.00  0.00     0.068 A 
HETATM   19  C   UNK N   1      27.620  31.022  -3.034  0.00  0.00     0.037 A 
HETATM   20  C   UNK N   1      27.432  30.985  -4.416  0.00  0.00     0.003 A 
HETATM   21  C   UNK N   1      27.303  29.759  -5.070  0.00  0.00     0.008 A 
BRANCH  18  22
HETATM   22  O   UNK N   1      27.856  29.834  -0.954  0.00  0.00    -0.356 OA
HETATM   23  C   UNK N   1      28.530  30.834  -0.293  0.00  0.00     0.210 C 
ENDBRANCH  18  22
ENDBRANCH   1  16
TORSDOF 10
ENDMDL
