MODEL 1
REMARK VINA RESULT:      -5.3      0.000      0.000
REMARK  3 active torsions:
REMARK  status: ('A' for Active; 'I' for Inactive)
REMARK    1  A    between atoms: N_1  and  C_5 
REMARK    2  A    between atoms: C_3  and  C_4 
REMARK    3  A    between atoms: C_3  and  C_5 
ROOT
HETATM    1  N   UNK N   1      21.045  12.129  11.564  0.00  0.00    -0.365 N 
HETATM    2  C   UNK N   1      21.088  13.433   9.734  0.00  0.00    -0.029 A 
HETATM    3  C   UNK N   1      22.376  13.084  10.043  0.00  0.00    -0.002 A 
HETATM    4  C   UNK N   1      22.318  12.291  11.152  0.00  0.00     0.042 A 
HETATM    5  C   UNK N   1      20.275  12.829  10.690  0.00  0.00     0.096 A 
HETATM    6  C   UNK N   1      23.585  13.387   9.417  0.00  0.00     0.014 A 
HETATM    7  C   UNK N   1      23.460  11.732  11.720  0.00  0.00     0.030 A 
HETATM    8  C   UNK N   1      24.761  12.845   9.968  0.00  0.00     0.001 A 
HETATM    9  C   UNK N   1      24.699  12.017  11.114  0.00  0.00     0.002 A 
HETATM   10  H   UNK N   1      20.735  11.610  12.341  0.00  0.00     0.165 HD
ENDROOT
BRANCH   2  11
HETATM   11  C   UNK N   1      20.649  14.230   8.550  0.00  0.00     0.071 C 
BRANCH  11  12
HETATM   12  C   UNK N   1      20.611  15.727   8.814  0.00  0.00     0.276 C 
BRANCH  12  13
HETATM   13  N   UNK N   1      20.882  16.433   7.569  0.00  0.00     0.080 N 
HETATM   14  C   UNK N   1      22.016  15.792   6.931  0.00  0.00     0.309 C 
HETATM   15  C   UNK N   1      19.738  16.249   6.692  0.00  0.00     0.309 C 
ENDBRANCH  12  13
ENDBRANCH  11  12
ENDBRANCH   2  11
TORSDOF 3
ENDMDL
MODEL 2
REMARK VINA RESULT:      -5.2     17.346     19.226
REMARK  3 active torsions:
REMARK  status: ('A' for Active; 'I' for Inactive)
REMARK    1  A    between atoms: N_1  and  C_5 
REMARK    2  A    between atoms: C_3  and  C_4 
REMARK    3  A    between atoms: C_3  and  C_5 
ROOT
HETATM    1  N   UNK N   1      25.482  24.552  -5.996  0.00  0.00    -0.365 N 
HETATM    2  C   UNK N   1      26.745  24.361  -4.147  0.00  0.00    -0.029 A 
HETATM    3  C   UNK N   1      26.281  25.648  -4.219  0.00  0.00    -0.002 A 
HETATM    4  C   UNK N   1      25.516  25.731  -5.346  0.00  0.00     0.042 A 
HETATM    5  C   UNK N   1      26.237  23.694  -5.259  0.00  0.00     0.096 A 
HETATM    6  C   UNK N   1      26.457  26.737  -3.366  0.00  0.00     0.014 A 
HETATM    7  C   UNK N   1      24.861  26.906  -5.707  0.00  0.00     0.030 A 
HETATM    8  C   UNK N   1      25.815  27.943  -3.703  0.00  0.00     0.001 A 
HETATM    9  C   UNK N   1      25.016  28.026  -4.867  0.00  0.00     0.002 A 
HETATM   10  H   UNK N   1      25.008  24.350  -6.834  0.00  0.00     0.165 HD
ENDROOT
BRANCH   2  11
HETATM   11  C   UNK N   1      27.561  23.777  -3.040  0.00  0.00     0.071 C 
BRANCH  11  12
HETATM   12  C   UNK N   1      29.058  23.923  -3.256  0.00  0.00     0.276 C 
BRANCH  12  13
HETATM   13  N   UNK N   1      29.652  22.597  -3.362  0.00  0.00     0.080 N 
HETATM   14  C   UNK N   1      29.958  22.356  -4.760  0.00  0.00     0.309 C 
HETATM   15  C   UNK N   1      30.916  22.615  -2.645  0.00  0.00     0.309 C 
ENDBRANCH  12  13
ENDBRANCH  11  12
ENDBRANCH   2  11
TORSDOF 3
ENDMDL
MODEL 3
REMARK VINA RESULT:      -5.1      8.218     10.260
REMARK  3 active torsions:
REMARK  status: ('A' for Active; 'I' for Inactive)
REMARK    1  A    between atoms: N_1  and  C_5 
REMARK    2  A    between atoms: C_3  and  C_4 
REMARK    3  A    between atoms: C_3  and  C_5 
ROOT
HETATM    1  N   UNK N   1      27.612  19.155   8.486  0.00  0.00    -0.365 N 
HETATM    2  C   UNK N   1      28.839  17.754   7.228  0.00  0.00    -0.029 A 
HETATM    3  C   UNK N   1      28.309  18.715   6.408  0.00  0.00    -0.002 A 
HETATM    4  C   UNK N   1      27.575  19.552   7.199  0.00  0.00     0.042 A 
HETATM    5  C   UNK N   1      28.396  18.045   8.516  0.00  0.00     0.096 A 
HETATM    6  C   UNK N   1      28.439  18.925   5.036  0.00  0.00     0.014 A 
HETATM    7  C   UNK N   1      26.919  20.666   6.683  0.00  0.00     0.030 A 
HETATM    8  C   UNK N   1      27.784  20.039   4.479  0.00  0.00     0.001 A 
HETATM    9  C   UNK N   1      27.030  20.909   5.301  0.00  0.00     0.002 A 
HETATM   10  H   UNK N   1      27.162  19.582   9.250  0.00  0.00     0.165 HD
ENDROOT
BRANCH   2  11
HETATM   11  C   UNK N   1      29.779  16.667   6.822  0.00  0.00     0.071 C 
BRANCH  11  12
HETATM   12  C   UNK N   1      31.225  17.125   6.733  0.00  0.00     0.276 C 
BRANCH  12  13
HETATM   13  N   UNK N   1      31.733  17.350   8.080  0.00  0.00     0.080 N 
HETATM   14  C   UNK N   1      31.908  16.056   8.713  0.00  0.00     0.309 C 
HETATM   15  C   UNK N   1      33.051  17.951   7.966  0.00  0.00     0.309 C 
ENDBRANCH  12  13
ENDBRANCH  11  12
ENDBRANCH   2  11
TORSDOF 3
ENDMDL
MODEL 4
REMARK VINA RESULT:      -5.1     14.243     15.638
REMARK  3 active torsions:
REMARK  status: ('A' for Active; 'I' for Inactive)
REMARK    1  A    between atoms: N_1  and  C_5 
REMARK    2  A    between atoms: C_3  and  C_4 
REMARK    3  A    between atoms: C_3  and  C_5 
ROOT
HETATM    1  N   UNK N   1      35.292  13.516  19.316  0.00  0.00    -0.365 N 
HETATM    2  C   UNK N   1      35.273  13.090  17.109  0.00  0.00    -0.029 A 
HETATM    3  C   UNK N   1      35.209  11.896  17.777  0.00  0.00    -0.002 A 
HETATM    4  C   UNK N   1      35.217  12.186  19.111  0.00  0.00     0.042 A 
HETATM    5  C   UNK N   1      35.322  14.086  18.082  0.00  0.00     0.096 A 
HETATM    6  C   UNK N   1      35.121  10.585  17.309  0.00  0.00     0.014 A 
HETATM    7  C   UNK N   1      35.131  11.192  20.082  0.00  0.00     0.030 A 
HETATM    8  C   UNK N   1      35.040   9.554  18.263  0.00  0.00     0.001 A 
HETATM    9  C   UNK N   1      35.041   9.856  19.645  0.00  0.00     0.002 A 
HETATM   10  H   UNK N   1      35.319  13.981  20.183  0.00  0.00     0.165 HD
ENDROOT
BRANCH   2  11
HETATM   11  C   UNK N   1      35.211  13.278  15.629  0.00  0.00     0.071 C 
BRANCH  11  12
HETATM   12  C   UNK N   1      36.576  13.258  14.962  0.00  0.00     0.276 C 
BRANCH  12  13
HETATM   13  N   UNK N   1      36.396  13.235  13.517  0.00  0.00     0.080 N 
HETATM   14  C   UNK N   1      35.200  12.466  13.228  0.00  0.00     0.309 C 
HETATM   15  C   UNK N   1      36.145  14.597  13.076  0.00  0.00     0.309 C 
ENDBRANCH  12  13
ENDBRANCH  11  12
ENDBRANCH   2  11
TORSDOF 3
ENDMDL
MODEL 5
REMARK VINA RESULT:      -4.9      8.563     10.063
REMARK  3 active torsions:
REMARK  status: ('A' for Active; 'I' for Inactive)
REMARK    1  A    between atoms: N_1  and  C_5 
REMARK    2  A    between atoms: C_3  and  C_4 
REMARK    3  A    between atoms: C_3  and  C_5 
ROOT
HETATM    1  N   UNK N   1      31.017  17.750   9.204  0.00  0.00    -0.365 N 
HETATM    2  C   UNK N   1      30.034  17.159   7.272  0.00  0.00    -0.029 A 
HETATM    3  C   UNK N   1      31.375  17.318   7.041  0.00  0.00    -0.002 A 
HETATM    4  C   UNK N   1      31.944  17.672   8.230  0.00  0.00     0.042 A 
HETATM    5  C   UNK N   1      29.831  17.429   8.623  0.00  0.00     0.096 A 
HETATM    6  C   UNK N   1      32.133  17.156   5.881  0.00  0.00     0.014 A 
HETATM    7  C   UNK N   1      33.314  17.884   8.357  0.00  0.00     0.030 A 
HETATM    8  C   UNK N   1      33.520  17.370   5.972  0.00  0.00     0.001 A 
HETATM    9  C   UNK N   1      34.110  17.729   7.206  0.00  0.00     0.002 A 
HETATM   10  H   UNK N   1      31.167  17.990  10.147  0.00  0.00     0.165 HD
ENDROOT
BRANCH   2  11
HETATM   11  C   UNK N   1      29.016  16.696   6.282  0.00  0.00     0.071 C 
BRANCH  11  12
HETATM   12  C   UNK N   1      27.797  17.600   6.207  0.00  0.00     0.276 C 
BRANCH  12  13
HETATM   13  N   UNK N   1      28.204  18.901   5.692  0.00  0.00     0.080 N 
HETATM   14  C   UNK N   1      27.636  19.052   4.366  0.00  0.00     0.309 C 
HETATM   15  C   UNK N   1      27.604  19.923   6.533  0.00  0.00     0.309 C 
ENDBRANCH  12  13
ENDBRANCH  11  12
ENDBRANCH   2  11
TORSDOF 3
ENDMDL
MODEL 6
REMARK VINA RESULT:      -4.9     13.282     15.187
REMARK  3 active torsions:
REMARK  status: ('A' for Active; 'I' for Inactive)
REMARK    1  A    between atoms: N_1  and  C_5 
REMARK    2  A    between atoms: C_3  and  C_4 
REMARK    3  A    between atoms: C_3  and  C_5 
ROOT
HETATM    1  N   UNK N   1      36.460  10.540  15.839  0.00  0.00    -0.365 N 
HETATM    2  C   UNK N   1      36.174  12.661  15.153  0.00  0.00    -0.029 A 
HETATM    3  C   UNK N   1      35.816  12.585  16.473  0.00  0.00    -0.002 A 
HETATM    4  C   UNK N   1      36.004  11.290  16.861  0.00  0.00     0.042 A 
HETATM    5  C   UNK N   1      36.573  11.381  14.777  0.00  0.00     0.096 A 
HETATM    6  C   UNK N   1      35.363  13.561  17.359  0.00  0.00     0.014 A 
HETATM    7  C   UNK N   1      35.762  10.870  18.167  0.00  0.00     0.030 A 
HETATM    8  C   UNK N   1      35.101  13.171  18.685  0.00  0.00     0.001 A 
HETATM    9  C   UNK N   1      35.304  11.830  19.089  0.00  0.00     0.002 A 
HETATM   10  H   UNK N   1      36.669   9.579  15.857  0.00  0.00     0.165 HD
ENDROOT
BRANCH   2  11
HETATM   11  C   UNK N   1      36.210  13.899  14.317  0.00  0.00     0.071 C 
BRANCH  11  12
HETATM   12  C   UNK N   1      36.350  13.615  12.830  0.00  0.00     0.276 C 
BRANCH  12  13
HETATM   13  N   UNK N   1      35.023  13.430  12.258  0.00  0.00     0.080 N 
HETATM   14  C   UNK N   1      34.718  14.597  11.451  0.00  0.00     0.309 C 
HETATM   15  C   UNK N   1      35.080  12.291  11.357  0.00  0.00     0.309 C 
ENDBRANCH  12  13
ENDBRANCH  11  12
ENDBRANCH   2  11
TORSDOF 3
ENDMDL
MODEL 7
REMARK VINA RESULT:      -4.8      8.955     10.649
REMARK  3 active torsions:
REMARK  status: ('A' for Active; 'I' for Inactive)
REMARK    1  A    between atoms: N_1  and  C_5 
REMARK    2  A    between atoms: C_3  and  C_4 
REMARK    3  A    between atoms: C_3  and  C_5 
ROOT
HETATM    1  N   UNK N   1      28.438  18.217   3.792  0.00  0.00    -0.365 N 
HETATM    2  C   UNK N   1      29.030  17.698   5.897  0.00  0.00    -0.029 A 
HETATM    3  C   UNK N   1      28.266  18.834   5.934  0.00  0.00    -0.002 A 
HETATM    4  C   UNK N   1      27.918  19.121   4.646  0.00  0.00     0.042 A 
HETATM    5  C   UNK N   1      29.125  17.328   4.558  0.00  0.00     0.096 A 
HETATM    6  C   UNK N   1      27.835  19.617   7.004  0.00  0.00     0.014 A 
HETATM    7  C   UNK N   1      27.107  20.207   4.325  0.00  0.00     0.030 A 
HETATM    8  C   UNK N   1      27.020  20.727   6.717  0.00  0.00     0.001 A 
HETATM    9  C   UNK N   1      26.654  21.019   5.382  0.00  0.00     0.002 A 
HETATM   10  H   UNK N   1      28.340  18.202   2.813  0.00  0.00     0.165 HD
ENDROOT
BRANCH   2  11
HETATM   11  C   UNK N   1      29.574  16.960   7.077  0.00  0.00     0.071 C 
BRANCH  11  12
HETATM   12  C   UNK N   1      31.084  16.788   7.033  0.00  0.00     0.276 C 
BRANCH  12  13
HETATM   13  N   UNK N   1      31.623  17.011   8.368  0.00  0.00     0.080 N 
HETATM   14  C   UNK N   1      32.100  15.738   8.875  0.00  0.00     0.309 C 
HETATM   15  C   UNK N   1      32.779  17.882   8.244  0.00  0.00     0.309 C 
ENDBRANCH  12  13
ENDBRANCH  11  12
ENDBRANCH   2  11
TORSDOF 3
ENDMDL
MODEL 8
REMARK VINA RESULT:      -4.7      1.581      2.618
REMARK  3 active torsions:
REMARK  status: ('A' for Active; 'I' for Inactive)
REMARK    1  A    between atoms: N_1  and  C_5 
REMARK    2  A    between atoms: C_3  and  C_4 
REMARK    3  A    between atoms: C_3  and  C_5 
ROOT
HETATM    1  N   UNK N   1      24.838  13.152   8.704  0.00  0.00    -0.365 N 
HETATM    2  C   UNK N   1      22.756  13.783   8.140  0.00  0.00    -0.029 A 
HETATM    3  C   UNK N   1      22.699  13.153   9.354  0.00  0.00    -0.002 A 
HETATM    4  C   UNK N   1      23.975  12.787   9.673  0.00  0.00     0.042 A 
HETATM    5  C   UNK N   1      24.094  13.775   7.752  0.00  0.00     0.096 A 
HETATM    6  C   UNK N   1      21.626  12.898  10.207  0.00  0.00     0.014 A 
HETATM    7  C   UNK N   1      24.281  12.144  10.869  0.00  0.00     0.030 A 
HETATM    8  C   UNK N   1      21.897  12.244  11.423  0.00  0.00     0.001 A 
HETATM    9  C   UNK N   1      23.221  11.872  11.755  0.00  0.00     0.002 A 
HETATM   10  H   UNK N   1      25.811  13.000   8.689  0.00  0.00     0.165 HD
ENDROOT
BRANCH   2  11
HETATM   11  C   UNK N   1      21.615  14.428   7.424  0.00  0.00     0.071 C 
BRANCH  11  12
HETATM   12  C   UNK N   1      21.904  15.859   6.999  0.00  0.00     0.276 C 
BRANCH  12  13
HETATM   13  N   UNK N   1      20.709  16.665   7.211  0.00  0.00     0.080 N 
HETATM   14  C   UNK N   1      19.650  16.119   6.384  0.00  0.00     0.309 C 
HETATM   15  C   UNK N   1      20.298  16.499   8.595  0.00  0.00     0.309 C 
ENDBRANCH  12  13
ENDBRANCH  11  12
ENDBRANCH   2  11
TORSDOF 3
ENDMDL
MODEL 9
REMARK VINA RESULT:      -4.7      7.109      8.588
REMARK  3 active torsions:
REMARK  status: ('A' for Active; 'I' for Inactive)
REMARK    1  A    between atoms: N_1  and  C_5 
REMARK    2  A    between atoms: C_3  and  C_4 
REMARK    3  A    between atoms: C_3  and  C_5 
ROOT
HETATM    1  N   UNK N   1      24.287  18.125   5.330  0.00  0.00    -0.365 N 
HETATM    2  C   UNK N   1      22.991  19.153   3.809  0.00  0.00    -0.029 A 
HETATM    3  C   UNK N   1      24.275  19.603   3.653  0.00  0.00    -0.002 A 
HETATM    4  C   UNK N   1      25.038  18.959   4.584  0.00  0.00     0.042 A 
HETATM    5  C   UNK N   1      23.018  18.234   4.855  0.00  0.00     0.096 A 
HETATM    6  C   UNK N   1      24.827  20.509   2.748  0.00  0.00     0.014 A 
HETATM    7  C   UNK N   1      26.411  19.164   4.682  0.00  0.00     0.030 A 
HETATM    8  C   UNK N   1      26.212  20.746   2.822  0.00  0.00     0.001 A 
HETATM    9  C   UNK N   1      27.003  20.072   3.783  0.00  0.00     0.002 A 
HETATM   10  H   UNK N   1      24.594  17.552   6.069  0.00  0.00     0.165 HD
ENDROOT
BRANCH   2  11
HETATM   11  C   UNK N   1      21.818  19.516   2.958  0.00  0.00     0.071 C 
BRANCH  11  12
HETATM   12  C   UNK N   1      20.488  19.384   3.682  0.00  0.00     0.276 C 
BRANCH  12  13
HETATM   13  N   UNK N   1      19.660  18.416   2.974  0.00  0.00     0.080 N 
HETATM   14  C   UNK N   1      20.247  18.198   1.666  0.00  0.00     0.309 C 
HETATM   15  C   UNK N   1      19.735  17.154   3.692  0.00  0.00     0.309 C 
ENDBRANCH  12  13
ENDBRANCH  11  12
ENDBRANCH   2  11
TORSDOF 3
ENDMDL
