MODEL 1
REMARK VINA RESULT:      -5.5      0.000      0.000
REMARK  2 active torsions:
REMARK  status: ('A' for Active; 'I' for Inactive)
REMARK    1  A    between atoms: N_4  and  C_10 
REMARK    2  A    between atoms: C_5  and  C_7 
ROOT
HETATM    1  O   UNK N   1      34.921  13.104  14.184  0.00  0.00    -0.311 OA
HETATM    2  N   UNK N   1      36.307  14.531  13.259  0.00  0.00    -0.354 N 
ATOM      3  HN  UNK N   1      36.728  15.106  12.530  1.00  0.00     0.163 HD
HETATM    4  C   UNK N   1      35.762  13.470  15.199  0.00  0.00     0.182 A 
HETATM    5  C   UNK N   1      36.768  14.474  14.626  0.00  0.00     0.160 A 
HETATM    6  C   UNK N   1      35.301  13.762  13.089  0.00  0.00     0.213 A 
ENDROOT
BRANCH   4   7
HETATM    7  C   UNK N   1      35.593  12.898  16.567  0.00  0.00    -0.027 A 
HETATM    8  C   UNK N   1      35.256  13.714  17.655  0.00  0.00     0.010 A 
HETATM    9  C   UNK N   1      35.104  13.151  18.928  0.00  0.00     0.001 A 
HETATM   10  C   UNK N   1      35.287  11.776  19.114  0.00  0.00     0.000 A 
HETATM   11  C   UNK N   1      35.623  10.963  18.029  0.00  0.00     0.001 A 
HETATM   12  C   UNK N   1      35.775  11.524  16.760  0.00  0.00     0.010 A 
ENDBRANCH   4   7
BRANCH   6  13
HETATM   13  N   UNK N   1      34.648  13.622  11.847  0.00  0.00    -0.365 N 
HETATM   14  H   UNK N   1      34.332  12.737  11.554  0.00  0.00     0.159 HD
HETATM   15  H   UNK N   1      34.509  14.410  11.273  0.00  0.00     0.159 HD
ENDBRANCH   6  13
TORSDOF 2
ENDMDL
MODEL 2
REMARK VINA RESULT:      -5.5     17.373     19.265
REMARK  2 active torsions:
REMARK  status: ('A' for Active; 'I' for Inactive)
REMARK    1  A    between atoms: N_4  and  C_10 
REMARK    2  A    between atoms: C_5  and  C_7 
ROOT
HETATM    1  O   UNK N   1      22.271  20.627   1.771  0.00  0.00    -0.311 OA
HETATM    2  N   UNK N   1      20.321  20.059   2.604  0.00  0.00    -0.354 N 
ATOM      3  HN  UNK N   1      19.309  19.961   2.661  1.00  0.00     0.163 HD
HETATM    4  C   UNK N   1      22.570  20.025   2.962  0.00  0.00     0.182 A 
HETATM    5  C   UNK N   1      21.248  19.597   3.610  0.00  0.00     0.160 A 
HETATM    6  C   UNK N   1      20.945  20.609   1.633  0.00  0.00     0.213 A 
ENDROOT
BRANCH   4   7
HETATM    7  C   UNK N   1      23.988  19.888   3.407  0.00  0.00    -0.027 A 
HETATM    8  C   UNK N   1      24.337  19.032   4.459  0.00  0.00     0.010 A 
HETATM    9  C   UNK N   1      25.675  18.923   4.856  0.00  0.00     0.001 A 
HETATM   10  C   UNK N   1      26.663  19.668   4.203  0.00  0.00     0.000 A 
HETATM   11  C   UNK N   1      26.316  20.522   3.153  0.00  0.00     0.001 A 
HETATM   12  C   UNK N   1      24.981  20.630   2.758  0.00  0.00     0.010 A 
ENDBRANCH   4   7
BRANCH   6  13
HETATM   13  N   UNK N   1      20.285  21.151   0.510  0.00  0.00    -0.365 N 
HETATM   14  H   UNK N   1      19.512  20.683   0.121  0.00  0.00     0.159 HD
HETATM   15  H   UNK N   1      20.598  21.997   0.117  0.00  0.00     0.159 HD
ENDBRANCH   6  13
TORSDOF 2
ENDMDL
MODEL 3
REMARK VINA RESULT:      -5.3      1.044      2.026
REMARK  2 active torsions:
REMARK  status: ('A' for Active; 'I' for Inactive)
REMARK    1  A    between atoms: N_4  and  C_10 
REMARK    2  A    between atoms: C_5  and  C_7 
ROOT
HETATM    1  O   UNK N   1      36.274  13.547  14.737  0.00  0.00    -0.311 OA
HETATM    2  N   UNK N   1      35.134  12.763  13.033  0.00  0.00    -0.354 N 
ATOM      3  HN  UNK N   1      34.839  12.647  12.065  1.00  0.00     0.163 HD
HETATM    4  C   UNK N   1      35.404  12.648  15.291  0.00  0.00     0.182 A 
HETATM    5  C   UNK N   1      34.566  12.053  14.155  0.00  0.00     0.160 A 
HETATM    6  C   UNK N   1      36.057  13.559  13.422  0.00  0.00     0.213 A 
ENDROOT
BRANCH   4   7
HETATM    7  C   UNK N   1      35.402  12.406  16.764  0.00  0.00    -0.027 A 
HETATM    8  C   UNK N   1      35.662  11.133  17.289  0.00  0.00     0.010 A 
HETATM    9  C   UNK N   1      35.653  10.934  18.674  0.00  0.00     0.001 A 
HETATM   10  C   UNK N   1      35.385  12.004  19.535  0.00  0.00     0.000 A 
HETATM   11  C   UNK N   1      35.126  13.274  19.012  0.00  0.00     0.001 A 
HETATM   12  C   UNK N   1      35.134  13.472  17.631  0.00  0.00     0.010 A 
ENDBRANCH   4   7
BRANCH   6  13
HETATM   13  N   UNK N   1      36.782  14.379  12.533  0.00  0.00    -0.365 N 
HETATM   14  H   UNK N   1      36.697  14.247  11.562  0.00  0.00     0.159 HD
HETATM   15  H   UNK N   1      37.374  15.082  12.885  0.00  0.00     0.159 HD
ENDBRANCH   6  13
TORSDOF 2
ENDMDL
MODEL 4
REMARK VINA RESULT:      -4.9      7.399     10.740
REMARK  2 active torsions:
REMARK  status: ('A' for Active; 'I' for Inactive)
REMARK    1  A    between atoms: N_4  and  C_10 
REMARK    2  A    between atoms: C_5  and  C_7 
ROOT
HETATM    1  O   UNK N   1      33.044  15.881   8.751  0.00  0.00    -0.311 OA
HETATM    2  N   UNK N   1      34.567  16.956   9.908  0.00  0.00    -0.354 N 
ATOM      3  HN  UNK N   1      35.194  17.166  10.684  1.00  0.00     0.163 HD
HETATM    4  C   UNK N   1      33.388  16.942   7.960  0.00  0.00     0.182 A 
HETATM    5  C   UNK N   1      34.457  17.748   8.706  0.00  0.00     0.160 A 
HETATM    6  C   UNK N   1      33.771  15.957   9.866  0.00  0.00     0.213 A 
ENDROOT
BRANCH   4   7
HETATM    7  C   UNK N   1      32.740  17.137   6.630  0.00  0.00    -0.027 A 
HETATM    8  C   UNK N   1      33.502  17.415   5.488  0.00  0.00     0.010 A 
HETATM    9  C   UNK N   1      32.869  17.593   4.252  0.00  0.00     0.001 A 
HETATM   10  C   UNK N   1      31.477  17.493   4.157  0.00  0.00     0.000 A 
HETATM   11  C   UNK N   1      30.716  17.216   5.295  0.00  0.00     0.001 A 
HETATM   12  C   UNK N   1      31.348  17.039   6.527  0.00  0.00     0.010 A 
ENDBRANCH   4   7
BRANCH   6  13
HETATM   13  N   UNK N   1      33.671  15.016  10.911  0.00  0.00    -0.365 N 
HETATM   14  H   UNK N   1      32.892  15.028  11.512  0.00  0.00     0.159 HD
HETATM   15  H   UNK N   1      34.382  14.346  11.039  0.00  0.00     0.159 HD
ENDBRANCH   6  13
TORSDOF 2
ENDMDL
MODEL 5
REMARK VINA RESULT:      -4.9      7.383     10.706
REMARK  2 active torsions:
REMARK  status: ('A' for Active; 'I' for Inactive)
REMARK    1  A    between atoms: N_4  and  C_10 
REMARK    2  A    between atoms: C_5  and  C_7 
ROOT
HETATM    1  O   UNK N   1      33.038  15.874   8.781  0.00  0.00    -0.311 OA
HETATM    2  N   UNK N   1      34.577  16.947   9.918  0.00  0.00    -0.354 N 
ATOM      3  HN  UNK N   1      35.213  17.156  10.687  1.00  0.00     0.163 HD
HETATM    4  C   UNK N   1      33.375  16.934   7.984  0.00  0.00     0.182 A 
HETATM    5  C   UNK N   1      34.455  17.738   8.717  0.00  0.00     0.160 A 
HETATM    6  C   UNK N   1      33.778  15.950   9.887  0.00  0.00     0.213 A 
ENDROOT
BRANCH   4   7
HETATM    7  C   UNK N   1      32.713  17.128   6.661  0.00  0.00    -0.027 A 
HETATM    8  C   UNK N   1      31.321  17.041   6.530  0.00  0.00     0.010 A 
HETATM    9  C   UNK N   1      30.725  17.228   5.276  0.00  0.00     0.001 A 
HETATM   10  C   UNK N   1      31.518  17.501   4.157  0.00  0.00     0.000 A 
HETATM   11  C   UNK N   1      32.906  17.588   4.287  0.00  0.00     0.001 A 
HETATM   12  C   UNK N   1      33.500  17.401   5.537  0.00  0.00     0.010 A 
ENDBRANCH   4   7
BRANCH   6  13
HETATM   13  N   UNK N   1      33.688  15.010  10.934  0.00  0.00    -0.365 N 
HETATM   14  H   UNK N   1      34.502  14.577  11.278  0.00  0.00     0.159 HD
HETATM   15  H   UNK N   1      32.811  14.787  11.321  0.00  0.00     0.159 HD
ENDBRANCH   6  13
TORSDOF 2
ENDMDL
MODEL 6
REMARK VINA RESULT:      -4.9     10.570     13.413
REMARK  2 active torsions:
REMARK  status: ('A' for Active; 'I' for Inactive)
REMARK    1  A    between atoms: N_4  and  C_10 
REMARK    2  A    between atoms: C_5  and  C_7 
ROOT
HETATM    1  O   UNK N   1      29.932  17.917   7.709  0.00  0.00    -0.311 OA
HETATM    2  N   UNK N   1      29.230  17.310   9.697  0.00  0.00    -0.354 N 
ATOM      3  HN  UNK N   1      29.262  16.889  10.625  1.00  0.00     0.163 HD
HETATM    4  C   UNK N   1      28.646  18.378   7.773  0.00  0.00     0.182 A 
HETATM    5  C   UNK N   1      28.082  17.989   9.144  0.00  0.00     0.160 A 
HETATM    6  C   UNK N   1      30.200  17.308   8.863  0.00  0.00     0.213 A 
ENDROOT
BRANCH   4   7
HETATM    7  C   UNK N   1      28.046  19.113   6.620  0.00  0.00    -0.027 A 
HETATM    8  C   UNK N   1      28.147  18.616   5.314  0.00  0.00     0.010 A 
HETATM    9  C   UNK N   1      27.575  19.326   4.252  0.00  0.00     0.001 A 
HETATM   10  C   UNK N   1      26.904  20.529   4.493  0.00  0.00     0.000 A 
HETATM   11  C   UNK N   1      26.803  21.025   5.795  0.00  0.00     0.001 A 
HETATM   12  C   UNK N   1      27.373  20.317   6.854  0.00  0.00     0.010 A 
ENDBRANCH   4   7
BRANCH   6  13
HETATM   13  N   UNK N   1      31.446  16.711   9.144  0.00  0.00    -0.365 N 
HETATM   14  H   UNK N   1      31.486  15.778   9.453  0.00  0.00     0.159 HD
HETATM   15  H   UNK N   1      32.276  17.228   9.029  0.00  0.00     0.159 HD
ENDBRANCH   6  13
TORSDOF 2
ENDMDL
MODEL 7
REMARK VINA RESULT:      -4.8     25.667     27.237
REMARK  2 active torsions:
REMARK  status: ('A' for Active; 'I' for Inactive)
REMARK    1  A    between atoms: N_4  and  C_10 
REMARK    2  A    between atoms: C_5  and  C_7 
ROOT
HETATM    1  O   UNK N   1      27.709  28.943  -2.804  0.00  0.00    -0.311 OA
HETATM    2  N   UNK N   1      27.318  31.059  -2.375  0.00  0.00    -0.354 N 
ATOM      3  HN  UNK N   1      27.369  31.951  -1.884  1.00  0.00     0.163 HD
HETATM    4  C   UNK N   1      26.875  29.348  -3.811  0.00  0.00     0.182 A 
HETATM    5  C   UNK N   1      26.554  30.828  -3.579  0.00  0.00     0.160 A 
HETATM    6  C   UNK N   1      27.920  29.992  -2.010  0.00  0.00     0.213 A 
ENDROOT
BRANCH   4   7
HETATM    7  C   UNK N   1      26.448  28.389  -4.872  0.00  0.00    -0.027 A 
HETATM    8  C   UNK N   1      25.246  27.679  -4.764  0.00  0.00     0.010 A 
HETATM    9  C   UNK N   1      24.869  26.786  -5.774  0.00  0.00     0.001 A 
HETATM   10  C   UNK N   1      25.692  26.603  -6.891  0.00  0.00     0.000 A 
HETATM   11  C   UNK N   1      26.891  27.312  -7.000  0.00  0.00     0.001 A 
HETATM   12  C   UNK N   1      27.266  28.202  -5.992  0.00  0.00     0.010 A 
ENDBRANCH   4   7
BRANCH   6  13
HETATM   13  N   UNK N   1      28.739  29.932  -0.863  0.00  0.00    -0.365 N 
HETATM   14  H   UNK N   1      29.561  30.470  -0.817  0.00  0.00     0.159 HD
HETATM   15  H   UNK N   1      28.487  29.351  -0.109  0.00  0.00     0.159 HD
ENDBRANCH   6  13
TORSDOF 2
ENDMDL
MODEL 8
REMARK VINA RESULT:      -4.8      9.552     12.076
REMARK  2 active torsions:
REMARK  status: ('A' for Active; 'I' for Inactive)
REMARK    1  A    between atoms: N_4  and  C_10 
REMARK    2  A    between atoms: C_5  and  C_7 
ROOT
HETATM    1  O   UNK N   1      33.728  18.115   6.862  0.00  0.00    -0.311 OA
HETATM    2  N   UNK N   1      33.191  17.530   8.907  0.00  0.00    -0.354 N 
ATOM      3  HN  UNK N   1      33.254  17.470   9.923  1.00  0.00     0.163 HD
HETATM    4  C   UNK N   1      32.607  17.346   6.714  0.00  0.00     0.182 A 
HETATM    5  C   UNK N   1      32.167  16.895   8.111  0.00  0.00     0.160 A 
HETATM    6  C   UNK N   1      34.006  18.176   8.164  0.00  0.00     0.213 A 
ENDROOT
BRANCH   4   7
HETATM    7  C   UNK N   1      32.039  17.088   5.359  0.00  0.00    -0.027 A 
HETATM    8  C   UNK N   1      32.812  17.265   4.204  0.00  0.00     0.010 A 
HETATM    9  C   UNK N   1      32.254  17.015   2.945  0.00  0.00     0.001 A 
HETATM   10  C   UNK N   1      30.926  16.589   2.838  0.00  0.00     0.000 A 
HETATM   11  C   UNK N   1      30.154  16.412   3.989  0.00  0.00     0.001 A 
HETATM   12  C   UNK N   1      30.711  16.661   5.245  0.00  0.00     0.010 A 
ENDBRANCH   4   7
BRANCH   6  13
HETATM   13  N   UNK N   1      35.106  18.893   8.680  0.00  0.00    -0.365 N 
HETATM   14  H   UNK N   1      36.019  18.661   8.398  0.00  0.00     0.159 HD
HETATM   15  H   UNK N   1      34.959  19.625   9.322  0.00  0.00     0.159 HD
ENDBRANCH   6  13
TORSDOF 2
ENDMDL
MODEL 9
REMARK VINA RESULT:      -4.7     24.450     26.255
REMARK  2 active torsions:
REMARK  status: ('A' for Active; 'I' for Inactive)
REMARK    1  A    between atoms: N_4  and  C_10 
REMARK    2  A    between atoms: C_5  and  C_7 
ROOT
HETATM    1  O   UNK N   1      27.664  29.304  -1.181  0.00  0.00    -0.311 OA
HETATM    2  N   UNK N   1      29.410  30.614  -0.962  0.00  0.00    -0.354 N 
ATOM      3  HN  UNK N   1      30.121  31.175  -0.493  1.00  0.00     0.163 HD
HETATM    4  C   UNK N   1      28.087  29.527  -2.463  0.00  0.00     0.182 A 
HETATM    5  C   UNK N   1      29.315  30.442  -2.393  0.00  0.00     0.160 A 
HETATM    6  C   UNK N   1      28.482  29.969  -0.365  0.00  0.00     0.213 A 
ENDROOT
BRANCH   4   7
HETATM    7  C   UNK N   1      27.367  28.911  -3.616  0.00  0.00    -0.027 A 
HETATM    8  C   UNK N   1      27.899  28.961  -4.911  0.00  0.00     0.010 A 
HETATM    9  C   UNK N   1      27.203  28.375  -5.975  0.00  0.00     0.001 A 
HETATM   10  C   UNK N   1      25.978  27.740  -5.746  0.00  0.00     0.000 A 
HETATM   11  C   UNK N   1      25.447  27.690  -4.455  0.00  0.00     0.001 A 
HETATM   12  C   UNK N   1      26.141  28.274  -3.394  0.00  0.00     0.010 A 
ENDBRANCH   4   7
BRANCH   6  13
HETATM   13  N   UNK N   1      28.338  29.961   1.037  0.00  0.00    -0.365 N 
HETATM   14  H   UNK N   1      28.588  29.162   1.553  0.00  0.00     0.159 HD
HETATM   15  H   UNK N   1      27.986  30.756   1.500  0.00  0.00     0.159 HD
ENDBRANCH   6  13
TORSDOF 2
ENDMDL
