REMARK  7 active torsions:
REMARK  status: ('A' for Active; 'I' for Inactive)
REMARK    1  A    between atoms: N_2  and  C_3 
REMARK    2  A    between atoms: C_3  and  C_4 
REMARK    3  A    between atoms: C_4  and  C_5 
REMARK    4  A    between atoms: C_5  and  C_12 
REMARK    5  A    between atoms: C_5  and  C_13 
REMARK    6  A    between atoms: C_5  and  C_14 
REMARK    7  A    between atoms: C_14  and  C_15 
ROOT
HETATM    1  C   UNK N   1       5.624  -0.021  -0.358  0.00  0.00     0.076 C 
ENDROOT
BRANCH   1   2
HETATM    2  C   UNK N   1       4.586   0.057  -1.520  0.00  0.00     0.062 C 
BRANCH   2   3
HETATM    3  C   UNK N   1       3.134   0.532  -1.299  0.00  0.00     0.220 C 
HETATM    4  C   UNK N   1       2.680   1.027  -2.670  0.00  0.00     0.043 C 
BRANCH   3   5
HETATM    5  N   UNK N   1       2.217  -0.511  -0.787  0.00  0.00     0.092 N 
HETATM    6  C   UNK N   1       0.833   0.008  -0.832  0.00  0.00     0.273 C 
HETATM    7  C   UNK N   1      -0.163  -0.757   0.059  0.00  0.00     0.030 C 
HETATM    8  C   UNK N   1       0.384  -2.119   0.464  0.00  0.00     0.003 C 
HETATM    9  C   UNK N   1       1.744  -1.981   1.144  0.00  0.00     0.030 C 
HETATM   10  C   UNK N   1       2.533  -0.781   0.614  0.00  0.00     0.273 C 
ENDBRANCH   3   5
ENDBRANCH   2   3
ENDBRANCH   1   2
BRANCH   1  11
HETATM   11  C   UNK N   1       5.442  -1.345   0.383  0.00  0.00    -0.037 A 
HETATM   12  C   UNK N   1       5.461  -2.549  -0.350  0.00  0.00     0.009 A 
HETATM   13  C   UNK N   1       5.311  -3.779   0.292  0.00  0.00     0.001 A 
HETATM   14  C   UNK N   1       5.146  -3.825   1.677  0.00  0.00     0.000 A 
HETATM   15  C   UNK N   1       5.136  -2.642   2.420  0.00  0.00     0.001 A 
HETATM   16  C   UNK N   1       5.287  -1.407   1.779  0.00  0.00     0.009 A 
ENDBRANCH   1  11
BRANCH   1  17
HETATM   17  C   UNK N   1       5.506   1.237   0.535  0.00  0.00    -0.037 A 
HETATM   18  C   UNK N   1       4.326   1.496   1.255  0.00  0.00     0.009 A 
HETATM   19  C   UNK N   1       4.193   2.643   2.041  0.00  0.00     0.001 A 
HETATM   20  C   UNK N   1       5.243   3.558   2.121  0.00  0.00     0.000 A 
HETATM   21  C   UNK N   1       6.425   3.323   1.418  0.00  0.00     0.001 A 
HETATM   22  C   UNK N   1       6.555   2.175   0.631  0.00  0.00     0.009 A 
ENDBRANCH   1  17
BRANCH   1  23
HETATM   23  C   UNK N   1       7.028  -0.097  -0.975  0.00  0.00     0.144 C 
HETATM   24  O   UNK N   1       7.188  -0.046  -2.186  0.00  0.00    -0.296 OA
BRANCH  23  25
HETATM   25  C   UNK N   1       8.234  -0.242  -0.086  0.00  0.00     0.075 C 
HETATM   26  C   UNK N   1       8.936  -1.562  -0.341  0.00  0.00     0.013 C 
ENDBRANCH  23  25
ENDBRANCH   1  23
TORSDOF 7
