MODEL 1
REMARK VINA RESULT:      -6.7      0.000      0.000
REMARK  7 active torsions:
REMARK  status: ('A' for Active; 'I' for Inactive)
REMARK    1  A    between atoms: N_2  and  C_3 
REMARK    2  A    between atoms: C_3  and  C_4 
REMARK    3  A    between atoms: C_4  and  C_5 
REMARK    4  A    between atoms: C_5  and  C_12 
REMARK    5  A    between atoms: C_5  and  C_13 
REMARK    6  A    between atoms: C_5  and  C_14 
REMARK    7  A    between atoms: C_14  and  C_15 
ROOT
HETATM    1  C   UNK N   1      36.167  11.608  15.314  0.00  0.00     0.076 C 
ENDROOT
BRANCH   1   2
HETATM    2  C   UNK N   1      36.775  12.760  14.456  0.00  0.00     0.062 C 
BRANCH   2   3
HETATM    3  C   UNK N   1      36.295  13.061  13.020  0.00  0.00     0.220 C 
HETATM    4  C   UNK N   1      35.903  14.536  13.049  0.00  0.00     0.043 C 
BRANCH   3   5
HETATM    5  N   UNK N   1      37.304  12.806  11.968  0.00  0.00     0.092 N 
HETATM    6  C   UNK N   1      37.158  13.829  10.910  0.00  0.00     0.273 C 
HETATM    7  C   UNK N   1      37.810  13.453   9.567  0.00  0.00     0.030 C 
HETATM    8  C   UNK N   1      38.812  12.318   9.732  0.00  0.00     0.003 C 
HETATM    9  C   UNK N   1      38.158  11.105  10.390  0.00  0.00     0.030 C 
HETATM   10  C   UNK N   1      37.039  11.507  11.354  0.00  0.00     0.273 C 
ENDBRANCH   3   5
ENDBRANCH   2   3
ENDBRANCH   1   2
BRANCH   1  11
HETATM   11  C   UNK N   1      35.804  12.154  16.694  0.00  0.00    -0.037 A 
HETATM   12  C   UNK N   1      35.648  13.545  16.862  0.00  0.00     0.009 A 
HETATM   13  C   UNK N   1      35.305  14.082  18.103  0.00  0.00     0.001 A 
HETATM   14  C   UNK N   1      35.105  13.236  19.195  0.00  0.00     0.000 A 
HETATM   15  C   UNK N   1      35.244  11.854  19.044  0.00  0.00     0.001 A 
HETATM   16  C   UNK N   1      35.588  11.313  17.800  0.00  0.00     0.009 A 
ENDBRANCH   1  11
BRANCH   1  17
HETATM   17  C   UNK N   1      37.137  10.403  15.335  0.00  0.00    -0.037 A 
HETATM   18  C   UNK N   1      36.877   9.288  16.151  0.00  0.00     0.009 A 
HETATM   19  C   UNK N   1      37.759   8.206  16.204  0.00  0.00     0.001 A 
HETATM   20  C   UNK N   1      38.924   8.219  15.438  0.00  0.00     0.000 A 
HETATM   21  C   UNK N   1      39.205   9.313  14.618  0.00  0.00     0.001 A 
HETATM   22  C   UNK N   1      38.321  10.395  14.568  0.00  0.00     0.009 A 
ENDBRANCH   1  17
BRANCH   1  23
HETATM   23  C   UNK N   1      34.830  11.195  14.682  0.00  0.00     0.144 C 
HETATM   24  O   UNK N   1      33.818  11.858  14.858  0.00  0.00    -0.296 OA
BRANCH  23  25
HETATM   25  C   UNK N   1      34.750   9.953  13.836  0.00  0.00     0.075 C 
HETATM   26  C   UNK N   1      33.854  10.177  12.633  0.00  0.00     0.013 C 
ENDBRANCH  23  25
ENDBRANCH   1  23
TORSDOF 7
ENDMDL
MODEL 2
REMARK VINA RESULT:      -6.5     22.139     26.270
REMARK  7 active torsions:
REMARK  status: ('A' for Active; 'I' for Inactive)
REMARK    1  A    between atoms: N_2  and  C_3 
REMARK    2  A    between atoms: C_3  and  C_4 
REMARK    3  A    between atoms: C_4  and  C_5 
REMARK    4  A    between atoms: C_5  and  C_12 
REMARK    5  A    between atoms: C_5  and  C_13 
REMARK    6  A    between atoms: C_5  and  C_14 
REMARK    7  A    between atoms: C_14  and  C_15 
ROOT
HETATM    1  C   UNK N   1      27.724  24.606  -4.939  0.00  0.00     0.076 C 
ENDROOT
BRANCH   1   2
HETATM    2  C   UNK N   1      29.134  25.087  -5.404  0.00  0.00     0.062 C 
BRANCH   2   3
HETATM    3  C   UNK N   1      29.744  26.426  -4.938  0.00  0.00     0.220 C 
HETATM    4  C   UNK N   1      31.155  26.066  -4.481  0.00  0.00     0.043 C 
BRANCH   3   5
HETATM    5  N   UNK N   1      29.781  27.480  -5.977  0.00  0.00     0.092 N 
HETATM    6  C   UNK N   1      28.896  28.590  -5.562  0.00  0.00     0.273 C 
HETATM    7  C   UNK N   1      28.481  29.534  -6.706  0.00  0.00     0.030 C 
HETATM    8  C   UNK N   1      29.390  29.376  -7.917  0.00  0.00     0.003 C 
HETATM    9  C   UNK N   1      29.429  27.923  -8.384  0.00  0.00     0.030 C 
HETATM   10  C   UNK N   1      29.244  26.941  -7.225  0.00  0.00     0.273 C 
ENDBRANCH   3   5
ENDBRANCH   2   3
ENDBRANCH   1   2
BRANCH   1  11
HETATM   11  C   UNK N   1      27.207  23.559  -5.925  0.00  0.00    -0.037 A 
HETATM   12  C   UNK N   1      28.123  22.904  -6.773  0.00  0.00     0.009 A 
HETATM   13  C   UNK N   1      27.691  21.933  -7.677  0.00  0.00     0.001 A 
HETATM   14  C   UNK N   1      26.338  21.597  -7.743  0.00  0.00     0.000 A 
HETATM   15  C   UNK N   1      25.418  22.228  -6.902  0.00  0.00     0.001 A 
HETATM   16  C   UNK N   1      25.849  23.202  -5.994  0.00  0.00     0.009 A 
ENDBRANCH   1  11
BRANCH   1  17
HETATM   17  C   UNK N   1      26.791  25.825  -4.748  0.00  0.00    -0.037 A 
HETATM   18  C   UNK N   1      26.016  26.309  -5.817  0.00  0.00     0.009 A 
HETATM   19  C   UNK N   1      25.193  27.427  -5.669  0.00  0.00     0.001 A 
HETATM   20  C   UNK N   1      25.130  28.087  -4.441  0.00  0.00     0.000 A 
HETATM   21  C   UNK N   1      25.888  27.626  -3.364  0.00  0.00     0.001 A 
HETATM   22  C   UNK N   1      26.712  26.508  -3.516  0.00  0.00     0.009 A 
ENDBRANCH   1  17
BRANCH   1  23
HETATM   23  C   UNK N   1      27.889  23.857  -3.609  0.00  0.00     0.144 C 
HETATM   24  O   UNK N   1      26.965  23.776  -2.813  0.00  0.00    -0.296 OA
BRANCH  23  25
HETATM   25  C   UNK N   1      29.206  23.213  -3.266  0.00  0.00     0.075 C 
HETATM   26  C   UNK N   1      29.320  22.983  -1.771  0.00  0.00     0.013 C 
ENDBRANCH  23  25
ENDBRANCH   1  23
TORSDOF 7
ENDMDL
MODEL 3
REMARK VINA RESULT:      -6.5     22.085     26.028
REMARK  7 active torsions:
REMARK  status: ('A' for Active; 'I' for Inactive)
REMARK    1  A    between atoms: N_2  and  C_3 
REMARK    2  A    between atoms: C_3  and  C_4 
REMARK    3  A    between atoms: C_4  and  C_5 
REMARK    4  A    between atoms: C_5  and  C_12 
REMARK    5  A    between atoms: C_5  and  C_13 
REMARK    6  A    between atoms: C_5  and  C_14 
REMARK    7  A    between atoms: C_14  and  C_15 
ROOT
HETATM    1  C   UNK N   1      27.595  23.910  -5.972  0.00  0.00     0.076 C 
ENDROOT
BRANCH   1   2
HETATM    2  C   UNK N   1      26.505  24.795  -5.292  0.00  0.00     0.062 C 
BRANCH   2   3
HETATM    3  C   UNK N   1      26.408  26.316  -5.534  0.00  0.00     0.220 C 
HETATM    4  C   UNK N   1      24.936  26.560  -5.859  0.00  0.00     0.043 C 
BRANCH   3   5
HETATM    5  N   UNK N   1      26.838  27.150  -4.389  0.00  0.00     0.092 N 
HETATM    6  C   UNK N   1      25.920  28.303  -4.268  0.00  0.00     0.273 C 
HETATM    7  C   UNK N   1      26.475  29.474  -3.436  0.00  0.00     0.030 C 
HETATM    8  C   UNK N   1      27.655  29.038  -2.578  0.00  0.00     0.003 C 
HETATM    9  C   UNK N   1      28.746  28.400  -3.435  0.00  0.00     0.030 C 
HETATM   10  C   UNK N   1      28.171  27.685  -4.660  0.00  0.00     0.273 C 
ENDBRANCH   3   5
ENDBRANCH   2   3
ENDBRANCH   1   2
BRANCH   1  11
HETATM   11  C   UNK N   1      26.910  22.794  -6.759  0.00  0.00    -0.037 A 
HETATM   12  C   UNK N   1      25.520  22.610  -6.618  0.00  0.00     0.009 A 
HETATM   13  C   UNK N   1      24.855  21.610  -7.330  0.00  0.00     0.001 A 
HETATM   14  C   UNK N   1      25.570  20.783  -8.198  0.00  0.00     0.000 A 
HETATM   15  C   UNK N   1      26.946  20.959  -8.358  0.00  0.00     0.001 A 
HETATM   16  C   UNK N   1      27.615  21.961  -7.646  0.00  0.00     0.009 A 
ENDBRANCH   1  11
BRANCH   1  17
HETATM   17  C   UNK N   1      28.608  23.419  -4.910  0.00  0.00    -0.037 A 
HETATM   18  C   UNK N   1      29.532  22.404  -5.216  0.00  0.00     0.009 A 
HETATM   19  C   UNK N   1      30.432  21.929  -4.259  0.00  0.00     0.001 A 
HETATM   20  C   UNK N   1      30.423  22.463  -2.970  0.00  0.00     0.000 A 
HETATM   21  C   UNK N   1      29.518  23.472  -2.642  0.00  0.00     0.001 A 
HETATM   22  C   UNK N   1      28.618  23.945  -3.601  0.00  0.00     0.009 A 
ENDBRANCH   1  17
BRANCH   1  23
HETATM   23  C   UNK N   1      28.314  24.763  -7.028  0.00  0.00     0.144 C 
HETATM   24  O   UNK N   1      29.435  25.205  -6.824  0.00  0.00    -0.296 OA
BRANCH  23  25
HETATM   25  C   UNK N   1      27.635  25.070  -8.336  0.00  0.00     0.075 C 
HETATM   26  C   UNK N   1      27.973  26.473  -8.802  0.00  0.00     0.013 C 
ENDBRANCH  23  25
ENDBRANCH   1  23
TORSDOF 7
ENDMDL
MODEL 4
REMARK VINA RESULT:      -6.4     22.515     26.768
REMARK  7 active torsions:
REMARK  status: ('A' for Active; 'I' for Inactive)
REMARK    1  A    between atoms: N_2  and  C_3 
REMARK    2  A    between atoms: C_3  and  C_4 
REMARK    3  A    between atoms: C_4  and  C_5 
REMARK    4  A    between atoms: C_5  and  C_12 
REMARK    5  A    between atoms: C_5  and  C_13 
REMARK    6  A    between atoms: C_5  and  C_14 
REMARK    7  A    between atoms: C_14  and  C_15 
ROOT
HETATM    1  C   UNK N   1      26.950  26.325  -5.827  0.00  0.00     0.076 C 
ENDROOT
BRANCH   1   2
HETATM    2  C   UNK N   1      27.864  25.826  -4.666  0.00  0.00     0.062 C 
BRANCH   2   3
HETATM    3  C   UNK N   1      29.393  25.681  -4.824  0.00  0.00     0.220 C 
HETATM    4  C   UNK N   1      29.976  26.730  -3.879  0.00  0.00     0.043 C 
BRANCH   3   5
HETATM    5  N   UNK N   1      29.920  24.336  -4.505  0.00  0.00     0.092 N 
HETATM    6  C   UNK N   1      29.717  23.455  -5.675  0.00  0.00     0.273 C 
HETATM    7  C   UNK N   1      29.795  21.950  -5.361  0.00  0.00     0.030 C 
HETATM    8  C   UNK N   1      30.470  21.695  -4.020  0.00  0.00     0.003 C 
HETATM    9  C   UNK N   1      29.767  22.460  -2.901  0.00  0.00     0.030 C 
HETATM   10  C   UNK N   1      29.150  23.770  -3.399  0.00  0.00     0.273 C 
ENDBRANCH   3   5
ENDBRANCH   2   3
ENDBRANCH   1   2
BRANCH   1  11
HETATM   11  C   UNK N   1      26.377  25.115  -6.564  0.00  0.00    -0.037 A 
HETATM   12  C   UNK N   1      26.229  23.896  -5.871  0.00  0.00     0.009 A 
HETATM   13  C   UNK N   1      25.698  22.773  -6.505  0.00  0.00     0.001 A 
HETATM   14  C   UNK N   1      25.301  22.851  -7.841  0.00  0.00     0.000 A 
HETATM   15  C   UNK N   1      25.429  24.054  -8.540  0.00  0.00     0.001 A 
HETATM   16  C   UNK N   1      25.961  25.183  -7.906  0.00  0.00     0.009 A 
ENDBRANCH   1  11
BRANCH   1  17
HETATM   17  C   UNK N   1      27.734  27.312  -6.725  0.00  0.00    -0.037 A 
HETATM   18  C   UNK N   1      28.310  26.879  -7.932  0.00  0.00     0.009 A 
HETATM   19  C   UNK N   1      29.047  27.750  -8.738  0.00  0.00     0.001 A 
HETATM   20  C   UNK N   1      29.223  29.078  -8.347  0.00  0.00     0.000 A 
HETATM   21  C   UNK N   1      28.660  29.533  -7.155  0.00  0.00     0.001 A 
HETATM   22  C   UNK N   1      27.924  28.658  -6.350  0.00  0.00     0.009 A 
ENDBRANCH   1  17
BRANCH   1  23
HETATM   23  C   UNK N   1      25.734  27.030  -5.209  0.00  0.00     0.144 C 
HETATM   24  O   UNK N   1      24.750  27.298  -5.884  0.00  0.00    -0.296 OA
BRANCH  23  25
HETATM   25  C   UNK N   1      25.742  27.406  -3.752  0.00  0.00     0.075 C 
HETATM   26  C   UNK N   1      26.050  28.881  -3.578  0.00  0.00     0.013 C 
ENDBRANCH  23  25
ENDBRANCH   1  23
TORSDOF 7
ENDMDL
MODEL 5
REMARK VINA RESULT:      -6.4     10.995     13.903
REMARK  7 active torsions:
REMARK  status: ('A' for Active; 'I' for Inactive)
REMARK    1  A    between atoms: N_2  and  C_3 
REMARK    2  A    between atoms: C_3  and  C_4 
REMARK    3  A    between atoms: C_4  and  C_5 
REMARK    4  A    between atoms: C_5  and  C_12 
REMARK    5  A    between atoms: C_5  and  C_13 
REMARK    6  A    between atoms: C_5  and  C_14 
REMARK    7  A    between atoms: C_14  and  C_15 
ROOT
HETATM    1  C   UNK N   1      28.007  18.172   5.147  0.00  0.00     0.076 C 
ENDROOT
BRANCH   1   2
HETATM    2  C   UNK N   1      29.458  18.001   4.599  0.00  0.00     0.062 C 
BRANCH   2   3
HETATM    3  C   UNK N   1      30.426  16.930   5.146  0.00  0.00     0.220 C 
HETATM    4  C   UNK N   1      31.150  16.402   3.910  0.00  0.00     0.043 C 
BRANCH   3   5
HETATM    5  N   UNK N   1      31.393  17.430   6.148  0.00  0.00     0.092 N 
HETATM    6  C   UNK N   1      32.754  17.361   5.573  0.00  0.00     0.273 C 
HETATM    7  C   UNK N   1      33.888  17.416   6.612  0.00  0.00     0.030 C 
HETATM    8  C   UNK N   1      33.392  17.945   7.951  0.00  0.00     0.003 C 
HETATM    9  C   UNK N   1      32.212  17.120   8.460  0.00  0.00     0.030 C 
HETATM   10  C   UNK N   1      31.372  16.550   7.315  0.00  0.00     0.273 C 
ENDBRANCH   3   5
ENDBRANCH   2   3
ENDBRANCH   1   2
BRANCH   1  11
HETATM   11  C   UNK N   1      28.011  17.909   6.653  0.00  0.00    -0.037 A 
HETATM   12  C   UNK N   1      27.472  16.701   7.140  0.00  0.00     0.009 A 
HETATM   13  C   UNK N   1      27.468  16.420   8.506  0.00  0.00     0.001 A 
HETATM   14  C   UNK N   1      28.009  17.338   9.407  0.00  0.00     0.000 A 
HETATM   15  C   UNK N   1      28.558  18.535   8.941  0.00  0.00     0.001 A 
HETATM   16  C   UNK N   1      28.563  18.820   7.571  0.00  0.00     0.009 A 
ENDBRANCH   1  11
BRANCH   1  17
HETATM   17  C   UNK N   1      27.034  17.279   4.342  0.00  0.00    -0.037 A 
HETATM   18  C   UNK N   1      27.520  16.384   3.371  0.00  0.00     0.009 A 
HETATM   19  C   UNK N   1      26.652  15.593   2.615  0.00  0.00     0.001 A 
HETATM   20  C   UNK N   1      25.274  15.685   2.814  0.00  0.00     0.000 A 
HETATM   21  C   UNK N   1      24.767  16.563   3.772  0.00  0.00     0.001 A 
HETATM   22  C   UNK N   1      25.638  17.354   4.527  0.00  0.00     0.009 A 
ENDBRANCH   1  17
BRANCH   1  23
HETATM   23  C   UNK N   1      27.610  19.647   4.999  0.00  0.00     0.144 C 
HETATM   24  O   UNK N   1      28.228  20.394   4.254  0.00  0.00    -0.296 OA
BRANCH  23  25
HETATM   25  C   UNK N   1      26.448  20.197   5.781  0.00  0.00     0.075 C 
HETATM   26  C   UNK N   1      26.723  21.620   6.227  0.00  0.00     0.013 C 
ENDBRANCH  23  25
ENDBRANCH   1  23
TORSDOF 7
ENDMDL
MODEL 6
REMARK VINA RESULT:      -6.3     22.470     26.763
REMARK  7 active torsions:
REMARK  status: ('A' for Active; 'I' for Inactive)
REMARK    1  A    between atoms: N_2  and  C_3 
REMARK    2  A    between atoms: C_3  and  C_4 
REMARK    3  A    between atoms: C_4  and  C_5 
REMARK    4  A    between atoms: C_5  and  C_12 
REMARK    5  A    between atoms: C_5  and  C_13 
REMARK    6  A    between atoms: C_5  and  C_14 
REMARK    7  A    between atoms: C_14  and  C_15 
ROOT
HETATM    1  C   UNK N   1      26.850  24.837  -6.903  0.00  0.00     0.076 C 
ENDROOT
BRANCH   1   2
HETATM    2  C   UNK N   1      28.300  24.321  -6.647  0.00  0.00     0.062 C 
BRANCH   2   3
HETATM    3  C   UNK N   1      28.593  22.873  -6.200  0.00  0.00     0.220 C 
HETATM    4  C   UNK N   1      29.479  22.303  -7.305  0.00  0.00     0.043 C 
BRANCH   3   5
HETATM    5  N   UNK N   1      29.258  22.759  -4.882  0.00  0.00     0.092 N 
HETATM    6  C   UNK N   1      30.111  23.949  -4.675  0.00  0.00     0.273 C 
HETATM    7  C   UNK N   1      31.189  23.779  -3.589  0.00  0.00     0.030 C 
HETATM    8  C   UNK N   1      30.884  22.594  -2.682  0.00  0.00     0.003 C 
HETATM    9  C   UNK N   1      30.708  21.314  -3.496  0.00  0.00     0.030 C 
HETATM   10  C   UNK N   1      30.137  21.592  -4.888  0.00  0.00     0.273 C 
ENDBRANCH   3   5
ENDBRANCH   2   3
ENDBRANCH   1   2
BRANCH   1  11
HETATM   11  C   UNK N   1      26.769  25.409  -8.318  0.00  0.00    -0.037 A 
HETATM   12  C   UNK N   1      27.962  25.721  -9.001  0.00  0.00     0.009 A 
HETATM   13  C   UNK N   1      27.929  26.232 -10.299  0.00  0.00     0.001 A 
HETATM   14  C   UNK N   1      26.704  26.434 -10.937  0.00  0.00     0.000 A 
HETATM   15  C   UNK N   1      25.513  26.120 -10.278  0.00  0.00     0.001 A 
HETATM   16  C   UNK N   1      25.542  25.606  -8.977  0.00  0.00     0.009 A 
ENDBRANCH   1  11
BRANCH   1  17
HETATM   17  C   UNK N   1      26.441  25.827  -5.786  0.00  0.00    -0.037 A 
HETATM   18  C   UNK N   1      26.949  25.684  -4.482  0.00  0.00     0.009 A 
HETATM   19  C   UNK N   1      26.566  26.551  -3.456  0.00  0.00     0.001 A 
HETATM   20  C   UNK N   1      25.662  27.581  -3.715  0.00  0.00     0.000 A 
HETATM   21  C   UNK N   1      25.145  27.745  -5.001  0.00  0.00     0.001 A 
HETATM   22  C   UNK N   1      25.529  26.875  -6.026  0.00  0.00     0.009 A 
ENDBRANCH   1  17
BRANCH   1  23
HETATM   23  C   UNK N   1      25.905  23.628  -6.904  0.00  0.00     0.144 C 
HETATM   24  O   UNK N   1      25.163  23.406  -5.958  0.00  0.00    -0.296 OA
BRANCH  23  25
HETATM   25  C   UNK N   1      25.885  22.689  -8.081  0.00  0.00     0.075 C 
HETATM   26  C   UNK N   1      25.132  21.417  -7.743  0.00  0.00     0.013 C 
ENDBRANCH  23  25
ENDBRANCH   1  23
TORSDOF 7
ENDMDL
MODEL 7
REMARK VINA RESULT:      -6.3      9.559     13.038
REMARK  7 active torsions:
REMARK  status: ('A' for Active; 'I' for Inactive)
REMARK    1  A    between atoms: N_2  and  C_3 
REMARK    2  A    between atoms: C_3  and  C_4 
REMARK    3  A    between atoms: C_4  and  C_5 
REMARK    4  A    between atoms: C_5  and  C_12 
REMARK    5  A    between atoms: C_5  and  C_13 
REMARK    6  A    between atoms: C_5  and  C_14 
REMARK    7  A    between atoms: C_14  and  C_15 
ROOT
HETATM    1  C   UNK N   1      29.093  17.102   6.230  0.00  0.00     0.076 C 
ENDROOT
BRANCH   1   2
HETATM    2  C   UNK N   1      29.436  17.091   7.752  0.00  0.00     0.062 C 
BRANCH   2   3
HETATM    3  C   UNK N   1      30.457  18.067   8.375  0.00  0.00     0.220 C 
HETATM    4  C   UNK N   1      29.751  18.626   9.607  0.00  0.00     0.043 C 
BRANCH   3   5
HETATM    5  N   UNK N   1      31.750  17.449   8.746  0.00  0.00     0.092 N 
HETATM    6  C   UNK N   1      32.762  17.817   7.732  0.00  0.00     0.273 C 
HETATM    7  C   UNK N   1      34.011  16.916   7.723  0.00  0.00     0.030 C 
HETATM    8  C   UNK N   1      34.129  16.115   9.012  0.00  0.00     0.003 C 
HETATM    9  C   UNK N   1      32.861  15.303   9.269  0.00  0.00     0.030 C 
HETATM   10  C   UNK N   1      31.614  15.995   8.714  0.00  0.00     0.273 C 
ENDBRANCH   3   5
ENDBRANCH   2   3
ENDBRANCH   1   2
BRANCH   1  11
HETATM   11  C   UNK N   1      30.359  16.791   5.433  0.00  0.00    -0.037 A 
HETATM   12  C   UNK N   1      30.942  17.806   4.648  0.00  0.00     0.009 A 
HETATM   13  C   UNK N   1      32.105  17.565   3.916  0.00  0.00     0.001 A 
HETATM   14  C   UNK N   1      32.708  16.307   3.962  0.00  0.00     0.000 A 
HETATM   15  C   UNK N   1      32.150  15.293   4.745  0.00  0.00     0.001 A 
HETATM   16  C   UNK N   1      30.984  15.532   5.480  0.00  0.00     0.009 A 
ENDBRANCH   1  11
BRANCH   1  17
HETATM   17  C   UNK N   1      28.411  18.440   5.857  0.00  0.00    -0.037 A 
HETATM   18  C   UNK N   1      28.030  19.353   6.856  0.00  0.00     0.009 A 
HETATM   19  C   UNK N   1      27.386  20.550   6.537  0.00  0.00     0.001 A 
HETATM   20  C   UNK N   1      27.108  20.858   5.205  0.00  0.00     0.000 A 
HETATM   21  C   UNK N   1      27.477  19.970   4.195  0.00  0.00     0.001 A 
HETATM   22  C   UNK N   1      28.121  18.771   4.517  0.00  0.00     0.009 A 
ENDBRANCH   1  17
BRANCH   1  23
HETATM   23  C   UNK N   1      28.142  15.931   5.946  0.00  0.00     0.144 C 
HETATM   24  O   UNK N   1      28.367  15.142   5.039  0.00  0.00    -0.296 OA
BRANCH  23  25
HETATM   25  C   UNK N   1      26.908  15.741   6.786  0.00  0.00     0.075 C 
HETATM   26  C   UNK N   1      25.655  15.934   5.955  0.00  0.00     0.013 C 
ENDBRANCH  23  25
ENDBRANCH   1  23
TORSDOF 7
ENDMDL
MODEL 8
REMARK VINA RESULT:      -6.3     13.508     16.230
REMARK  7 active torsions:
REMARK  status: ('A' for Active; 'I' for Inactive)
REMARK    1  A    between atoms: N_2  and  C_3 
REMARK    2  A    between atoms: C_3  and  C_4 
REMARK    3  A    between atoms: C_4  and  C_5 
REMARK    4  A    between atoms: C_5  and  C_12 
REMARK    5  A    between atoms: C_5  and  C_13 
REMARK    6  A    between atoms: C_5  and  C_14 
REMARK    7  A    between atoms: C_14  and  C_15 
ROOT
HETATM    1  C   UNK N   1      21.634  14.047   8.052  0.00  0.00     0.076 C 
ENDROOT
BRANCH   1   2
HETATM    2  C   UNK N   1      22.645  15.046   7.410  0.00  0.00     0.062 C 
BRANCH   2   3
HETATM    3  C   UNK N   1      22.940  15.063   5.895  0.00  0.00     0.220 C 
HETATM    4  C   UNK N   1      22.556  16.470   5.446  0.00  0.00     0.043 C 
BRANCH   3   5
HETATM    5  N   UNK N   1      24.345  14.763   5.539  0.00  0.00     0.092 N 
HETATM    6  C   UNK N   1      24.538  13.297   5.557  0.00  0.00     0.273 C 
HETATM    7  C   UNK N   1      26.009  12.850   5.649  0.00  0.00     0.030 C 
HETATM    8  C   UNK N   1      26.959  13.982   5.283  0.00  0.00     0.003 C 
HETATM    9  C   UNK N   1      26.699  15.214   6.146  0.00  0.00     0.030 C 
HETATM   10  C   UNK N   1      25.229  15.329   6.556  0.00  0.00     0.273 C 
ENDBRANCH   3   5
ENDBRANCH   2   3
ENDBRANCH   1   2
BRANCH   1  11
HETATM   11  C   UNK N   1      22.326  13.304   9.195  0.00  0.00    -0.037 A 
HETATM   12  C   UNK N   1      23.729  13.168   9.173  0.00  0.00     0.009 A 
HETATM   13  C   UNK N   1      24.398  12.508  10.204  0.00  0.00     0.001 A 
HETATM   14  C   UNK N   1      23.677  11.980  11.276  0.00  0.00     0.000 A 
HETATM   15  C   UNK N   1      22.287  12.116  11.319  0.00  0.00     0.001 A 
HETATM   16  C   UNK N   1      21.613  12.778  10.286  0.00  0.00     0.009 A 
ENDBRANCH   1  11
BRANCH   1  17
HETATM   17  C   UNK N   1      21.038  13.130   6.958  0.00  0.00    -0.037 A 
HETATM   18  C   UNK N   1      21.406  11.775   6.880  0.00  0.00     0.009 A 
HETATM   19  C   UNK N   1      20.900  10.942   5.879  0.00  0.00     0.001 A 
HETATM   20  C   UNK N   1      20.012  11.452   4.931  0.00  0.00     0.000 A 
HETATM   21  C   UNK N   1      19.630  12.793   4.988  0.00  0.00     0.001 A 
HETATM   22  C   UNK N   1      20.138  13.624   5.990  0.00  0.00     0.009 A 
ENDBRANCH   1  17
BRANCH   1  23
HETATM   23  C   UNK N   1      20.517  14.860   8.721  0.00  0.00     0.144 C 
HETATM   24  O   UNK N   1      19.581  14.306   9.279  0.00  0.00    -0.296 OA
BRANCH  23  25
HETATM   25  C   UNK N   1      20.560  16.364   8.693  0.00  0.00     0.075 C 
HETATM   26  C   UNK N   1      19.159  16.944   8.677  0.00  0.00     0.013 C 
ENDBRANCH  23  25
ENDBRANCH   1  23
TORSDOF 7
ENDMDL
MODEL 9
REMARK VINA RESULT:      -6.3     22.180     26.203
REMARK  7 active torsions:
REMARK  status: ('A' for Active; 'I' for Inactive)
REMARK    1  A    between atoms: N_2  and  C_3 
REMARK    2  A    between atoms: C_3  and  C_4 
REMARK    3  A    between atoms: C_4  and  C_5 
REMARK    4  A    between atoms: C_5  and  C_12 
REMARK    5  A    between atoms: C_5  and  C_13 
REMARK    6  A    between atoms: C_5  and  C_14 
REMARK    7  A    between atoms: C_14  and  C_15 
ROOT
HETATM    1  C   UNK N   1      27.597  25.072  -4.750  0.00  0.00     0.076 C 
ENDROOT
BRANCH   1   2
HETATM    2  C   UNK N   1      26.541  26.184  -4.465  0.00  0.00     0.062 C 
BRANCH   2   3
HETATM    3  C   UNK N   1      26.099  27.198  -5.542  0.00  0.00     0.220 C 
HETATM    4  C   UNK N   1      24.594  26.982  -5.677  0.00  0.00     0.043 C 
BRANCH   3   5
HETATM    5  N   UNK N   1      26.400  28.611  -5.217  0.00  0.00     0.092 N 
HETATM    6  C   UNK N   1      27.671  28.990  -5.871  0.00  0.00     0.273 C 
HETATM    7  C   UNK N   1      28.339  30.247  -5.285  0.00  0.00     0.030 C 
HETATM    8  C   UNK N   1      27.358  31.062  -4.452  0.00  0.00     0.003 C 
HETATM    9  C   UNK N   1      26.729  30.205  -3.356  0.00  0.00     0.030 C 
HETATM   10  C   UNK N   1      26.601  28.738  -3.775  0.00  0.00     0.273 C 
ENDBRANCH   3   5
ENDBRANCH   2   3
ENDBRANCH   1   2
BRANCH   1  11
HETATM   11  C   UNK N   1      28.976  25.717  -4.877  0.00  0.00    -0.037 A 
HETATM   12  C   UNK N   1      29.446  26.541  -3.834  0.00  0.00     0.009 A 
HETATM   13  C   UNK N   1      30.706  27.138  -3.907  0.00  0.00     0.001 A 
HETATM   14  C   UNK N   1      31.518  26.915  -5.020  0.00  0.00     0.000 A 
HETATM   15  C   UNK N   1      31.072  26.092  -6.057  0.00  0.00     0.001 A 
HETATM   16  C   UNK N   1      29.810  25.492  -5.986  0.00  0.00     0.009 A 
ENDBRANCH   1  11
BRANCH   1  17
HETATM   17  C   UNK N   1      27.161  24.239  -5.979  0.00  0.00    -0.037 A 
HETATM   18  C   UNK N   1      26.070  23.355  -5.895  0.00  0.00     0.009 A 
HETATM   19  C   UNK N   1      25.684  22.574  -6.986  0.00  0.00     0.001 A 
HETATM   20  C   UNK N   1      26.387  22.661  -8.188  0.00  0.00     0.000 A 
HETATM   21  C   UNK N   1      27.471  23.531  -8.298  0.00  0.00     0.001 A 
HETATM   22  C   UNK N   1      27.857  24.311  -7.204  0.00  0.00     0.009 A 
ENDBRANCH   1  17
BRANCH   1  23
HETATM   23  C   UNK N   1      27.689  24.171  -3.510  0.00  0.00     0.144 C 
HETATM   24  O   UNK N   1      26.854  24.237  -2.619  0.00  0.00    -0.296 OA
BRANCH  23  25
HETATM   25  C   UNK N   1      28.822  23.189  -3.375  0.00  0.00     0.075 C 
HETATM   26  C   UNK N   1      29.229  23.032  -1.923  0.00  0.00     0.013 C 
ENDBRANCH  23  25
ENDBRANCH   1  23
TORSDOF 7
ENDMDL
