MODEL 1
REMARK VINA RESULT:      -7.6      0.000      0.000
REMARK  4 active torsions:
REMARK  status: ('A' for Active; 'I' for Inactive)
REMARK    1  A    between atoms: C_10  and  C_11 
REMARK    2  A    between atoms: C_11  and  C_12 
REMARK    3  A    between atoms: C_15  and  C_17 
REMARK    4  A    between atoms: C_19  and  C_23 
ROOT
HETATM    1  O   UNK N   1      36.019  11.629  14.739  0.00  0.00    -0.314 OA
HETATM    2  C   UNK N   1      35.469  11.609  13.544  0.00  0.00     0.055 A 
HETATM    3  C   UNK N   1      35.183  11.091  15.596  0.00  0.00     0.086 A 
HETATM    4  C   UNK N   1      34.221  11.031  13.605  0.00  0.00     0.035 A 
HETATM    5  C   UNK N   1      34.031  10.697  14.933  0.00  0.00     0.040 A 
ENDROOT
BRANCH   2   6
HETATM    6  C   UNK N   1      36.034  12.242  12.308  0.00  0.00     0.088 C 
BRANCH   6   7
HETATM    7  C   UNK N   1      34.997  13.014  11.502  0.00  0.00     0.176 C 
HETATM    8  C   UNK N   1      35.012  14.510  11.682  0.00  0.00     0.237 C 
HETATM    9  O   UNK N   1      35.743  15.043  12.500  0.00  0.00    -0.272 OA
HETATM   10  N   UNK N   1      34.163  15.256  10.933  0.00  0.00    -0.303 N 
HETATM   11  C   UNK N   1      33.472  14.649   9.845  0.00  0.00     0.180 C 
HETATM   12  H   UNK N   1      34.024  16.209  11.139  0.00  0.00     0.171 HD
HETATM   13  S   UNK N   1      32.478  15.389   9.126  0.00  0.00    -0.040 SA
HETATM   14  N   UNK N   1      33.991  13.437   9.296  0.00  0.00    -0.303 N 
HETATM   15  C   UNK N   1      34.847  12.691  10.038  0.00  0.00     0.237 C 
HETATM   16  H   UNK N   1      33.731  13.147   8.393  0.00  0.00     0.171 HD
HETATM   17  O   UNK N   1      35.472  11.780   9.518  0.00  0.00    -0.272 OA
ENDBRANCH   6   7
ENDBRANCH   2   6
BRANCH   3  18
HETATM   18  C   UNK N   1      35.358  11.040  17.073  0.00  0.00     0.013 A 
HETATM   19  C   UNK N   1      35.274  12.172  17.940  0.00  0.00     0.060 A 
HETATM   20  C   UNK N   1      35.404  11.978  19.326  0.00  0.00     0.017 A 
HETATM   21  C   UNK N   1      35.608  10.708  19.861  0.00  0.00     0.001 A 
HETATM   22  C   UNK N   1      35.710   9.608  19.017  0.00  0.00     0.001 A 
HETATM   23  C   UNK N   1      35.591   9.775  17.640  0.00  0.00     0.015 A 
BRANCH  19  24
HETATM   24  C   UNK N   1      35.090  13.586  17.442  0.00  0.00     0.418 C 
HETATM   25  F   UNK N   1      33.965  13.654  16.640  0.00  0.00    -0.166 F 
HETATM   26  F   UNK N   1      34.966  14.455  18.501  0.00  0.00    -0.166 F 
HETATM   27  F   UNK N   1      36.180  13.994  16.689  0.00  0.00    -0.166 F 
ENDBRANCH  19  24
ENDBRANCH   3  18
TORSDOF 4
ENDMDL
MODEL 2
REMARK VINA RESULT:      -7.6      5.942      9.847
REMARK  4 active torsions:
REMARK  status: ('A' for Active; 'I' for Inactive)
REMARK    1  A    between atoms: C_10  and  C_11 
REMARK    2  A    between atoms: C_11  and  C_12 
REMARK    3  A    between atoms: C_15  and  C_17 
REMARK    4  A    between atoms: C_19  and  C_23 
ROOT
HETATM    1  O   UNK N   1      32.835  16.126   8.294  0.00  0.00    -0.314 OA
HETATM    2  C   UNK N   1      34.142  16.251   8.376  0.00  0.00     0.055 A 
HETATM    3  C   UNK N   1      32.308  17.317   8.137  0.00  0.00     0.086 A 
HETATM    4  C   UNK N   1      34.501  17.575   8.263  0.00  0.00     0.035 A 
HETATM    5  C   UNK N   1      33.316  18.270   8.111  0.00  0.00     0.040 A 
ENDROOT
BRANCH   2   6
HETATM    6  C   UNK N   1      35.110  15.149   8.687  0.00  0.00     0.088 C 
BRANCH   6   7
HETATM    7  C   UNK N   1      35.126  14.762  10.161  0.00  0.00     0.176 C 
HETATM    8  C   UNK N   1      35.166  13.283  10.446  0.00  0.00     0.237 C 
HETATM    9  O   UNK N   1      35.087  12.461   9.549  0.00  0.00    -0.272 OA
HETATM   10  N   UNK N   1      35.258  12.880  11.738  0.00  0.00    -0.303 N 
HETATM   11  C   UNK N   1      35.557  13.838  12.750  0.00  0.00     0.180 C 
HETATM   12  H   UNK N   1      35.118  11.935  11.975  0.00  0.00     0.171 HD
HETATM   13  S   UNK N   1      35.532  13.453  14.129  0.00  0.00    -0.040 SA
HETATM   14  N   UNK N   1      36.173  15.068  12.366  0.00  0.00    -0.303 N 
HETATM   15  C   UNK N   1      36.091  15.471  11.074  0.00  0.00     0.237 C 
HETATM   16  H   UNK N   1      36.650  15.615  13.030  0.00  0.00     0.171 HD
HETATM   17  O   UNK N   1      36.788  16.392  10.675  0.00  0.00    -0.272 OA
ENDBRANCH   6   7
ENDBRANCH   2   6
BRANCH   3  18
HETATM   18  C   UNK N   1      30.854  17.637   8.137  0.00  0.00     0.013 A 
HETATM   19  C   UNK N   1      29.965  17.372   7.052  0.00  0.00     0.060 A 
HETATM   20  C   UNK N   1      28.600  17.672   7.203  0.00  0.00     0.017 A 
HETATM   21  C   UNK N   1      28.107  18.216   8.387  0.00  0.00     0.001 A 
HETATM   22  C   UNK N   1      28.975  18.493   9.437  0.00  0.00     0.001 A 
HETATM   23  C   UNK N   1      30.332  18.210   9.311  0.00  0.00     0.015 A 
BRANCH  19  24
HETATM   24  C   UNK N   1      30.420  16.817   5.723  0.00  0.00     0.418 C 
HETATM   25  F   UNK N   1      31.419  17.620   5.202  0.00  0.00    -0.166 F 
HETATM   26  F   UNK N   1      30.881  15.530   5.873  0.00  0.00    -0.166 F 
HETATM   27  F   UNK N   1      29.374  16.786   4.813  0.00  0.00    -0.166 F 
ENDBRANCH  19  24
ENDBRANCH   3  18
TORSDOF 4
ENDMDL
MODEL 3
REMARK VINA RESULT:      -7.5      2.487      3.782
REMARK  4 active torsions:
REMARK  status: ('A' for Active; 'I' for Inactive)
REMARK    1  A    between atoms: C_10  and  C_11 
REMARK    2  A    between atoms: C_11  and  C_12 
REMARK    3  A    between atoms: C_15  and  C_17 
REMARK    4  A    between atoms: C_19  and  C_23 
ROOT
HETATM    1  O   UNK N   1      35.844  13.728  11.428  0.00  0.00    -0.314 OA
HETATM    2  C   UNK N   1      36.779  13.941  10.528  0.00  0.00     0.055 A 
HETATM    3  C   UNK N   1      36.242  12.767  12.229  0.00  0.00     0.086 A 
HETATM    4  C   UNK N   1      37.845  13.095  10.740  0.00  0.00     0.035 A 
HETATM    5  C   UNK N   1      37.499  12.331  11.838  0.00  0.00     0.040 A 
ENDROOT
BRANCH   2   6
HETATM    6  C   UNK N   1      36.670  14.864   9.352  0.00  0.00     0.088 C 
BRANCH   6   7
HETATM    7  C   UNK N   1      35.253  15.376   9.120  0.00  0.00     0.176 C 
HETATM    8  C   UNK N   1      34.938  16.720   9.722  0.00  0.00     0.237 C 
HETATM    9  O   UNK N   1      35.742  17.301  10.432  0.00  0.00    -0.272 OA
HETATM   10  N   UNK N   1      33.717  17.261   9.485  0.00  0.00    -0.303 N 
HETATM   11  C   UNK N   1      32.875  16.678   8.495  0.00  0.00     0.180 C 
HETATM   12  H   UNK N   1      33.416  18.048   9.992  0.00  0.00     0.171 HD
HETATM   13  S   UNK N   1      31.537  17.157   8.322  0.00  0.00    -0.040 SA
HETATM   14  N   UNK N   1      33.467  15.849   7.494  0.00  0.00    -0.303 N 
HETATM   15  C   UNK N   1      34.692  15.313   7.723  0.00  0.00     0.237 C 
HETATM   16  H   UNK N   1      32.994  15.670   6.650  0.00  0.00     0.171 HD
HETATM   17  O   UNK N   1      35.312  14.791   6.809  0.00  0.00    -0.272 OA
ENDBRANCH   6   7
ENDBRANCH   2   6
BRANCH   3  18
HETATM   18  C   UNK N   1      35.428  12.127  13.297  0.00  0.00     0.013 A 
HETATM   19  C   UNK N   1      35.441  12.516  14.671  0.00  0.00     0.060 A 
HETATM   20  C   UNK N   1      34.580  11.864  15.570  0.00  0.00     0.017 A 
HETATM   21  C   UNK N   1      33.719  10.855  15.143  0.00  0.00     0.001 A 
HETATM   22  C   UNK N   1      33.719  10.462  13.811  0.00  0.00     0.001 A 
HETATM   23  C   UNK N   1      34.567  11.088  12.900  0.00  0.00     0.015 A 
BRANCH  19  24
HETATM   24  C   UNK N   1      36.366  13.573  15.225  0.00  0.00     0.418 C 
HETATM   25  F   UNK N   1      35.982  13.897  16.514  0.00  0.00    -0.166 F 
HETATM   26  F   UNK N   1      37.666  13.123  15.221  0.00  0.00    -0.166 F 
HETATM   27  F   UNK N   1      36.318  14.727  14.458  0.00  0.00    -0.166 F 
ENDBRANCH  19  24
ENDBRANCH   3  18
TORSDOF 4
ENDMDL
MODEL 4
REMARK VINA RESULT:      -7.5      8.571     12.785
REMARK  4 active torsions:
REMARK  status: ('A' for Active; 'I' for Inactive)
REMARK    1  A    between atoms: C_10  and  C_11 
REMARK    2  A    between atoms: C_11  and  C_12 
REMARK    3  A    between atoms: C_15  and  C_17 
REMARK    4  A    between atoms: C_19  and  C_23 
ROOT
HETATM    1  O   UNK N   1      29.503  17.842   5.348  0.00  0.00    -0.314 OA
HETATM    2  C   UNK N   1      30.254  17.278   6.269  0.00  0.00     0.055 A 
HETATM    3  C   UNK N   1      28.333  18.122   5.874  0.00  0.00     0.086 A 
HETATM    4  C   UNK N   1      29.562  17.184   7.456  0.00  0.00     0.035 A 
HETATM    5  C   UNK N   1      28.316  17.726   7.203  0.00  0.00     0.040 A 
ENDROOT
BRANCH   2   6
HETATM    6  C   UNK N   1      31.615  16.689   6.050  0.00  0.00     0.088 C 
BRANCH   6   7
HETATM    7  C   UNK N   1      32.495  16.733   7.293  0.00  0.00     0.176 C 
HETATM    8  C   UNK N   1      32.662  15.424   8.021  0.00  0.00     0.237 C 
HETATM    9  O   UNK N   1      32.045  14.427   7.683  0.00  0.00    -0.272 OA
HETATM   10  N   UNK N   1      33.495  15.385   9.091  0.00  0.00    -0.303 N 
HETATM   11  C   UNK N   1      34.360  16.488   9.344  0.00  0.00     0.180 C 
HETATM   12  H   UNK N   1      33.501  14.602   9.687  0.00  0.00     0.171 HD
HETATM   13  S   UNK N   1      35.151  16.517  10.538  0.00  0.00    -0.040 SA
HETATM   14  N   UNK N   1      34.656  17.385   8.274  0.00  0.00    -0.303 N 
HETATM   15  C   UNK N   1      33.831  17.422   7.198  0.00  0.00     0.237 C 
HETATM   16  H   UNK N   1      35.447  17.969   8.316  0.00  0.00     0.171 HD
HETATM   17  O   UNK N   1      34.175  18.008   6.183  0.00  0.00    -0.272 OA
ENDBRANCH   6   7
ENDBRANCH   2   6
BRANCH   3  18
HETATM   18  C   UNK N   1      27.147  18.641   5.140  0.00  0.00     0.013 A 
HETATM   19  C   UNK N   1      26.589  19.943   5.317  0.00  0.00     0.060 A 
HETATM   20  C   UNK N   1      25.499  20.330   4.518  0.00  0.00     0.017 A 
HETATM   21  C   UNK N   1      24.963  19.470   3.562  0.00  0.00     0.001 A 
HETATM   22  C   UNK N   1      25.492  18.194   3.402  0.00  0.00     0.001 A 
HETATM   23  C   UNK N   1      26.569  17.785   4.185  0.00  0.00     0.015 A 
BRANCH  19  24
HETATM   24  C   UNK N   1      27.084  20.925   6.352  0.00  0.00     0.418 C 
HETATM   25  F   UNK N   1      28.424  21.195   6.132  0.00  0.00    -0.166 F 
HETATM   26  F   UNK N   1      26.354  22.089   6.298  0.00  0.00    -0.166 F 
HETATM   27  F   UNK N   1      26.955  20.406   7.631  0.00  0.00    -0.166 F 
ENDBRANCH  19  24
ENDBRANCH   3  18
TORSDOF 4
ENDMDL
MODEL 5
REMARK VINA RESULT:      -7.3      2.656      3.676
REMARK  4 active torsions:
REMARK  status: ('A' for Active; 'I' for Inactive)
REMARK    1  A    between atoms: C_10  and  C_11 
REMARK    2  A    between atoms: C_11  and  C_12 
REMARK    3  A    between atoms: C_15  and  C_17 
REMARK    4  A    between atoms: C_19  and  C_23 
ROOT
HETATM    1  O   UNK N   1      36.312  14.257  12.419  0.00  0.00    -0.314 OA
HETATM    2  C   UNK N   1      36.887  14.007  11.263  0.00  0.00     0.055 A 
HETATM    3  C   UNK N   1      36.536  13.248  13.227  0.00  0.00     0.086 A 
HETATM    4  C   UNK N   1      37.523  12.786  11.303  0.00  0.00     0.035 A 
HETATM    5  C   UNK N   1      37.295  12.290  12.572  0.00  0.00     0.040 A 
ENDROOT
BRANCH   2   6
HETATM    6  C   UNK N   1      36.765  14.842  10.024  0.00  0.00     0.088 C 
BRANCH   6   7
HETATM    7  C   UNK N   1      35.324  15.205   9.684  0.00  0.00     0.176 C 
HETATM    8  C   UNK N   1      34.949  16.649   9.891  0.00  0.00     0.237 C 
HETATM    9  O   UNK N   1      35.727  17.441  10.395  0.00  0.00    -0.272 OA
HETATM   10  N   UNK N   1      33.702  17.047   9.534  0.00  0.00    -0.303 N 
HETATM   11  C   UNK N   1      32.884  16.172   8.762  0.00  0.00     0.180 C 
HETATM   12  H   UNK N   1      33.366  17.931   9.806  0.00  0.00     0.171 HD
HETATM   13  S   UNK N   1      31.523  16.524   8.486  0.00  0.00    -0.040 SA
HETATM   14  N   UNK N   1      33.510  15.123   8.024  0.00  0.00    -0.303 N 
HETATM   15  C   UNK N   1      34.760  14.728   8.372  0.00  0.00     0.237 C 
HETATM   16  H   UNK N   1      33.041  14.693   7.273  0.00  0.00     0.171 HD
HETATM   17  O   UNK N   1      35.399  13.998   7.630  0.00  0.00    -0.272 OA
ENDBRANCH   6   7
ENDBRANCH   2   6
BRANCH   3  18
HETATM   18  C   UNK N   1      35.950  13.068  14.583  0.00  0.00     0.013 A 
HETATM   19  C   UNK N   1      34.982  12.075  14.924  0.00  0.00     0.060 A 
HETATM   20  C   UNK N   1      34.550  11.975  16.258  0.00  0.00     0.017 A 
HETATM   21  C   UNK N   1      35.052  12.822  17.244  0.00  0.00     0.001 A 
HETATM   22  C   UNK N   1      35.979  13.802  16.911  0.00  0.00     0.001 A 
HETATM   23  C   UNK N   1      36.418  13.925  15.595  0.00  0.00     0.015 A 
BRANCH  19  24
HETATM   24  C   UNK N   1      34.361  11.140  13.913  0.00  0.00     0.418 C 
HETATM   25  F   UNK N   1      34.112  11.827  12.738  0.00  0.00    -0.166 F 
HETATM   26  F   UNK N   1      35.196  10.075  13.668  0.00  0.00    -0.166 F 
HETATM   27  F   UNK N   1      33.157  10.633  14.378  0.00  0.00    -0.166 F 
ENDBRANCH  19  24
ENDBRANCH   3  18
TORSDOF 4
ENDMDL
MODEL 6
REMARK VINA RESULT:      -7.3      2.756      3.645
REMARK  4 active torsions:
REMARK  status: ('A' for Active; 'I' for Inactive)
REMARK    1  A    between atoms: C_10  and  C_11 
REMARK    2  A    between atoms: C_11  and  C_12 
REMARK    3  A    between atoms: C_15  and  C_17 
REMARK    4  A    between atoms: C_19  and  C_23 
ROOT
HETATM    1  O   UNK N   1      34.930  13.155  14.727  0.00  0.00    -0.314 OA
HETATM    2  C   UNK N   1      35.535  13.828  13.772  0.00  0.00     0.055 A 
HETATM    3  C   UNK N   1      35.632  13.270  15.830  0.00  0.00     0.086 A 
HETATM    4  C   UNK N   1      36.680  14.418  14.257  0.00  0.00     0.035 A 
HETATM    5  C   UNK N   1      36.748  14.057  15.589  0.00  0.00     0.040 A 
ENDROOT
BRANCH   2   6
HETATM    6  C   UNK N   1      35.135  13.850  12.327  0.00  0.00     0.088 C 
BRANCH   6   7
HETATM    7  C   UNK N   1      36.300  13.597  11.378  0.00  0.00     0.176 C 
HETATM    8  C   UNK N   1      36.147  12.414  10.457  0.00  0.00     0.237 C 
HETATM    9  O   UNK N   1      35.194  11.658  10.548  0.00  0.00    -0.272 OA
HETATM   10  N   UNK N   1      37.118  12.185   9.538  0.00  0.00    -0.303 N 
HETATM   11  C   UNK N   1      38.109  13.182   9.305  0.00  0.00     0.180 C 
HETATM   12  H   UNK N   1      37.139  11.338   9.038  0.00  0.00     0.171 HD
HETATM   13  S   UNK N   1      39.211  12.905   8.433  0.00  0.00    -0.040 SA
HETATM   14  N   UNK N   1      37.829  14.528   9.689  0.00  0.00    -0.303 N 
HETATM   15  C   UNK N   1      36.853  14.764  10.602  0.00  0.00     0.237 C 
HETATM   16  H   UNK N   1      38.336  15.275   9.298  0.00  0.00     0.171 HD
HETATM   17  O   UNK N   1      36.445  15.901  10.781  0.00  0.00    -0.272 OA
ENDBRANCH   6   7
ENDBRANCH   2   6
BRANCH   3  18
HETATM   18  C   UNK N   1      35.372  12.554  17.109  0.00  0.00     0.013 A 
HETATM   19  C   UNK N   1      35.261  11.136  17.237  0.00  0.00     0.060 A 
HETATM   20  C   UNK N   1      35.070  10.581  18.514  0.00  0.00     0.017 A 
HETATM   21  C   UNK N   1      34.993  11.388  19.647  0.00  0.00     0.001 A 
HETATM   22  C   UNK N   1      35.080  12.770  19.522  0.00  0.00     0.001 A 
HETATM   23  C   UNK N   1      35.264  13.344  18.267  0.00  0.00     0.015 A 
BRANCH  19  24
HETATM   24  C   UNK N   1      35.299  10.191  16.059  0.00  0.00     0.418 C 
HETATM   25  F   UNK N   1      34.148  10.342  15.306  0.00  0.00    -0.166 F 
HETATM   26  F   UNK N   1      36.405  10.439  15.281  0.00  0.00    -0.166 F 
HETATM   27  F   UNK N   1      35.367   8.872  16.481  0.00  0.00    -0.166 F 
ENDBRANCH  19  24
ENDBRANCH   3  18
TORSDOF 4
ENDMDL
MODEL 7
REMARK VINA RESULT:      -7.3      1.763      2.121
REMARK  4 active torsions:
REMARK  status: ('A' for Active; 'I' for Inactive)
REMARK    1  A    between atoms: C_10  and  C_11 
REMARK    2  A    between atoms: C_11  and  C_12 
REMARK    3  A    between atoms: C_15  and  C_17 
REMARK    4  A    between atoms: C_19  and  C_23 
ROOT
HETATM    1  O   UNK N   1      36.480  13.095  14.204  0.00  0.00    -0.314 OA
HETATM    2  C   UNK N   1      35.942  13.514  13.079  0.00  0.00     0.055 A 
HETATM    3  C   UNK N   1      35.797  12.062  14.638  0.00  0.00     0.086 A 
HETATM    4  C   UNK N   1      34.861  12.727  12.747  0.00  0.00     0.035 A 
HETATM    5  C   UNK N   1      34.762  11.788  13.756  0.00  0.00     0.040 A 
ENDROOT
BRANCH   2   6
HETATM    6  C   UNK N   1      36.337  14.746  12.324  0.00  0.00     0.088 C 
BRANCH   6   7
HETATM    7  C   UNK N   1      35.878  14.732  10.870  0.00  0.00     0.176 C 
HETATM    8  C   UNK N   1      35.343  16.038  10.342  0.00  0.00     0.237 C 
HETATM    9  O   UNK N   1      35.198  17.005  11.071  0.00  0.00    -0.272 OA
HETATM   10  N   UNK N   1      34.991  16.106   9.035  0.00  0.00    -0.303 N 
HETATM   11  C   UNK N   1      35.357  15.047   8.155  0.00  0.00     0.180 C 
HETATM   12  H   UNK N   1      34.486  16.880   8.696  0.00  0.00     0.171 HD
HETATM   13  S   UNK N   1      34.884  15.043   6.803  0.00  0.00    -0.040 SA
HETATM   14  N   UNK N   1      36.427  14.181   8.536  0.00  0.00    -0.303 N 
HETATM   15  C   UNK N   1      36.789  14.116   9.841  0.00  0.00     0.237 C 
HETATM   16  H   UNK N   1      36.895  13.640   7.860  0.00  0.00     0.171 HD
HETATM   17  O   UNK N   1      37.830  13.562  10.160  0.00  0.00    -0.272 OA
ENDBRANCH   6   7
ENDBRANCH   2   6
BRANCH   3  18
HETATM   18  C   UNK N   1      35.989  11.374  15.944  0.00  0.00     0.013 A 
HETATM   19  C   UNK N   1      35.620  11.920  17.211  0.00  0.00     0.060 A 
HETATM   20  C   UNK N   1      35.804  11.142  18.367  0.00  0.00     0.017 A 
HETATM   21  C   UNK N   1      36.333   9.855  18.294  0.00  0.00     0.001 A 
HETATM   22  C   UNK N   1      36.712   9.330  17.064  0.00  0.00     0.001 A 
HETATM   23  C   UNK N   1      36.545  10.083  15.904  0.00  0.00     0.015 A 
BRANCH  19  24
HETATM   24  C   UNK N   1      35.072  13.317  17.385  0.00  0.00     0.418 C 
HETATM   25  F   UNK N   1      34.733  13.521  18.711  0.00  0.00    -0.166 F 
HETATM   26  F   UNK N   1      36.003  14.249  16.989  0.00  0.00    -0.166 F 
HETATM   27  F   UNK N   1      33.935  13.505  16.615  0.00  0.00    -0.166 F 
ENDBRANCH  19  24
ENDBRANCH   3  18
TORSDOF 4
ENDMDL
MODEL 8
REMARK VINA RESULT:      -7.2      7.589     10.948
REMARK  4 active torsions:
REMARK  status: ('A' for Active; 'I' for Inactive)
REMARK    1  A    between atoms: C_10  and  C_11 
REMARK    2  A    between atoms: C_11  and  C_12 
REMARK    3  A    between atoms: C_15  and  C_17 
REMARK    4  A    between atoms: C_19  and  C_23 
ROOT
HETATM    1  O   UNK N   1      31.514  16.593   6.149  0.00  0.00    -0.314 OA
HETATM    2  C   UNK N   1      32.468  17.239   5.516  0.00  0.00     0.055 A 
HETATM    3  C   UNK N   1      30.428  16.620   5.412  0.00  0.00     0.086 A 
HETATM    4  C   UNK N   1      32.004  17.710   4.308  0.00  0.00     0.035 A 
HETATM    5  C   UNK N   1      30.682  17.314   4.238  0.00  0.00     0.040 A 
ENDROOT
BRANCH   2   6
HETATM    6  C   UNK N   1      33.828  17.554   6.064  0.00  0.00     0.088 C 
BRANCH   6   7
HETATM    7  C   UNK N   1      34.049  17.006   7.470  0.00  0.00     0.176 C 
HETATM    8  C   UNK N   1      34.730  15.665   7.548  0.00  0.00     0.237 C 
HETATM    9  O   UNK N   1      34.989  15.025   6.542  0.00  0.00    -0.272 OA
HETATM   10  N   UNK N   1      35.022  15.162   8.773  0.00  0.00    -0.303 N 
HETATM   11  C   UNK N   1      34.906  16.002   9.919  0.00  0.00     0.180 C 
HETATM   12  H   UNK N   1      35.310  14.226   8.871  0.00  0.00     0.171 HD
HETATM   13  S   UNK N   1      35.087  15.452  11.229  0.00  0.00    -0.040 SA
HETATM   14  N   UNK N   1      34.921  17.417   9.734  0.00  0.00    -0.303 N 
HETATM   15  C   UNK N   1      34.638  17.925   8.508  0.00  0.00     0.237 C 
HETATM   16  H   UNK N   1      35.133  18.017  10.485  0.00  0.00     0.171 HD
HETATM   17  O   UNK N   1      34.858  19.102   8.267  0.00  0.00    -0.272 OA
ENDBRANCH   6   7
ENDBRANCH   2   6
BRANCH   3  18
HETATM   18  C   UNK N   1      29.084  16.125   5.818  0.00  0.00     0.013 A 
HETATM   19  C   UNK N   1      28.238  16.764   6.774  0.00  0.00     0.060 A 
HETATM   20  C   UNK N   1      26.966  16.222   7.026  0.00  0.00     0.017 A 
HETATM   21  C   UNK N   1      26.522  15.082   6.360  0.00  0.00     0.001 A 
HETATM   22  C   UNK N   1      27.352  14.446   5.444  0.00  0.00     0.001 A 
HETATM   23  C   UNK N   1      28.619  14.960   5.181  0.00  0.00     0.015 A 
BRANCH  19  24
HETATM   24  C   UNK N   1      28.653  17.981   7.566  0.00  0.00     0.418 C 
HETATM   25  F   UNK N   1      27.702  18.251   8.535  0.00  0.00    -0.166 F 
HETATM   26  F   UNK N   1      29.879  17.775   8.155  0.00  0.00    -0.166 F 
HETATM   27  F   UNK N   1      28.761  19.095   6.747  0.00  0.00    -0.166 F 
ENDBRANCH  19  24
ENDBRANCH   3  18
TORSDOF 4
ENDMDL
MODEL 9
REMARK VINA RESULT:      -7.1      8.164     12.243
REMARK  4 active torsions:
REMARK  status: ('A' for Active; 'I' for Inactive)
REMARK    1  A    between atoms: C_10  and  C_11 
REMARK    2  A    between atoms: C_11  and  C_12 
REMARK    3  A    between atoms: C_15  and  C_17 
REMARK    4  A    between atoms: C_19  and  C_23 
ROOT
HETATM    1  O   UNK N   1      30.770  17.417   5.514  0.00  0.00    -0.314 OA
HETATM    2  C   UNK N   1      31.532  17.433   6.586  0.00  0.00     0.055 A 
HETATM    3  C   UNK N   1      29.518  17.311   5.891  0.00  0.00     0.086 A 
HETATM    4  C   UNK N   1      30.759  17.338   7.721  0.00  0.00     0.035 A 
HETATM    5  C   UNK N   1      29.453  17.256   7.275  0.00  0.00     0.040 A 
ENDROOT
BRANCH   2   6
HETATM    6  C   UNK N   1      33.031  17.413   6.597  0.00  0.00     0.088 C 
BRANCH   6   7
HETATM    7  C   UNK N   1      33.617  16.981   7.936  0.00  0.00     0.176 C 
HETATM    8  C   UNK N   1      34.193  15.590   7.979  0.00  0.00     0.237 C 
HETATM    9  O   UNK N   1      34.098  14.834   7.026  0.00  0.00    -0.272 OA
HETATM   10  N   UNK N   1      34.795  15.178   9.122  0.00  0.00    -0.303 N 
HETATM   11  C   UNK N   1      35.083  16.130  10.142  0.00  0.00     0.180 C 
HETATM   12  H   UNK N   1      35.031  14.231   9.246  0.00  0.00     0.171 HD
HETATM   13  S   UNK N   1      35.602  15.692  11.403  0.00  0.00    -0.040 SA
HETATM   14  N   UNK N   1      35.144  17.513   9.791  0.00  0.00    -0.303 N 
HETATM   15  C   UNK N   1      34.550  17.928   8.644  0.00  0.00     0.237 C 
HETATM   16  H   UNK N   1      35.610  18.155  10.372  0.00  0.00     0.171 HD
HETATM   17  O   UNK N   1      34.773  19.048   8.211  0.00  0.00    -0.272 OA
ENDBRANCH   6   7
ENDBRANCH   2   6
BRANCH   3  18
HETATM   18  C   UNK N   1      28.348  17.122   4.990  0.00  0.00     0.013 A 
HETATM   19  C   UNK N   1      27.507  18.176   4.519  0.00  0.00     0.060 A 
HETATM   20  C   UNK N   1      26.467  17.869   3.626  0.00  0.00     0.017 A 
HETATM   21  C   UNK N   1      26.248  16.563   3.194  0.00  0.00     0.001 A 
HETATM   22  C   UNK N   1      27.052  15.532   3.667  0.00  0.00     0.001 A 
HETATM   23  C   UNK N   1      28.086  15.810   4.557  0.00  0.00     0.015 A 
BRANCH  19  24
HETATM   24  C   UNK N   1      27.652  19.613   4.963  0.00  0.00     0.418 C 
HETATM   25  F   UNK N   1      27.480  19.695   6.334  0.00  0.00    -0.166 F 
HETATM   26  F   UNK N   1      28.889  20.101   4.614  0.00  0.00    -0.166 F 
HETATM   27  F   UNK N   1      26.697  20.418   4.361  0.00  0.00    -0.166 F 
ENDBRANCH  19  24
ENDBRANCH   3  18
TORSDOF 4
ENDMDL
