MODEL 1
REMARK VINA RESULT:      -5.6      0.000      0.000
REMARK  8 active torsions:
REMARK  status: ('A' for Active; 'I' for Inactive)
REMARK    1  A    between atoms: C_5  and  O_1 
REMARK    2  A    between atoms: C_6  and  N_2 
REMARK    3  A    between atoms: C_3  and  C_4 
REMARK    4  A    between atoms: C_3  and  C_5 
REMARK    5  A    between atoms: C_3  and  C_7 
REMARK    6  A    between atoms: C_3  and  C_8 
REMARK    7  A    between atoms: C_4  and  C_6 
REMARK    8  A    between atoms: C_5  and  C_9 
ROOT
HETATM    1  C   UNK N   1      27.795  24.667  -4.866  0.00  0.00     0.042 C 
ENDROOT
BRANCH   1   2
HETATM    2  C   UNK N   1      29.162  25.165  -5.400  0.00  0.00     0.057 C 
BRANCH   2   3
HETATM    3  C   UNK N   1      29.676  26.435  -4.699  0.00  0.00     0.219 C 
HETATM    4  C   UNK N   1      29.977  27.539  -5.710  0.00  0.00     0.043 C 
BRANCH   3   5
HETATM    5  N   UNK N   1      30.783  26.165  -3.769  0.00  0.00     0.084 N 
HETATM    6  C   UNK N   1      31.234  27.415  -3.179  0.00  0.00     0.309 C 
HETATM    7  C   UNK N   1      31.916  25.529  -4.430  0.00  0.00     0.309 C 
ENDBRANCH   3   5
ENDBRANCH   2   3
ENDBRANCH   1   2
BRANCH   1   8
HETATM    8  C   UNK N   1      27.968  24.052  -3.449  0.00  0.00     0.135 C 
BRANCH   8   9
HETATM    9  O   UNK N   1      26.734  23.605  -2.961  0.00  0.00    -0.394 OA
HETATM   10  H   UNK N   1      26.083  22.890  -2.880  0.00  0.00     0.210 HD
ENDBRANCH   8   9
BRANCH   8  11
HETATM   11  C   UNK N   1      29.008  22.937  -3.339  0.00  0.00     0.028 C 
HETATM   12  C   UNK N   1      29.829  23.084  -2.070  0.00  0.00     0.007 C 
ENDBRANCH   8  11
ENDBRANCH   1   8
BRANCH   1  13
HETATM   13  C   UNK N   1      26.920  25.922  -4.653  0.00  0.00    -0.042 A 
HETATM   14  C   UNK N   1      26.700  26.510  -3.398  0.00  0.00     0.008 A 
HETATM   15  C   UNK N   1      25.887  27.640  -3.266  0.00  0.00     0.001 A 
HETATM   16  C   UNK N   1      25.280  28.200  -4.390  0.00  0.00     0.000 A 
HETATM   17  C   UNK N   1      25.487  27.635  -5.647  0.00  0.00     0.001 A 
HETATM   18  C   UNK N   1      26.300  26.506  -5.779  0.00  0.00     0.008 A 
ENDBRANCH   1  13
BRANCH   1  19
HETATM   19  C   UNK N   1      27.286  23.573  -5.842  0.00  0.00    -0.042 A 
HETATM   20  C   UNK N   1      28.219  22.898  -6.657  0.00  0.00     0.008 A 
HETATM   21  C   UNK N   1      27.806  21.931  -7.577  0.00  0.00     0.001 A 
HETATM   22  C   UNK N   1      26.453  21.625  -7.704  0.00  0.00     0.000 A 
HETATM   23  C   UNK N   1      25.514  22.284  -6.911  0.00  0.00     0.001 A 
HETATM   24  C   UNK N   1      25.929  23.251  -5.990  0.00  0.00     0.008 A 
ENDBRANCH   1  19
TORSDOF 8
ENDMDL
MODEL 2
REMARK VINA RESULT:      -5.4      2.108      5.625
REMARK  8 active torsions:
REMARK  status: ('A' for Active; 'I' for Inactive)
REMARK    1  A    between atoms: C_5  and  O_1 
REMARK    2  A    between atoms: C_6  and  N_2 
REMARK    3  A    between atoms: C_3  and  C_4 
REMARK    4  A    between atoms: C_3  and  C_5 
REMARK    5  A    between atoms: C_3  and  C_7 
REMARK    6  A    between atoms: C_3  and  C_8 
REMARK    7  A    between atoms: C_4  and  C_6 
REMARK    8  A    between atoms: C_5  and  C_9 
ROOT
HETATM    1  C   UNK N   1      27.715  25.471  -5.248  0.00  0.00     0.042 C 
ENDROOT
BRANCH   1   2
HETATM    2  C   UNK N   1      27.845  24.741  -6.608  0.00  0.00     0.057 C 
BRANCH   2   3
HETATM    3  C   UNK N   1      27.427  23.260  -6.560  0.00  0.00     0.219 C 
HETATM    4  C   UNK N   1      28.635  22.341  -6.728  0.00  0.00     0.043 C 
BRANCH   3   5
HETATM    5  N   UNK N   1      26.315  22.952  -7.472  0.00  0.00     0.084 N 
HETATM    6  C   UNK N   1      26.440  21.581  -7.939  0.00  0.00     0.309 C 
HETATM    7  C   UNK N   1      26.290  23.836  -8.631  0.00  0.00     0.309 C 
ENDBRANCH   3   5
ENDBRANCH   2   3
ENDBRANCH   1   2
BRANCH   1   8
HETATM    8  C   UNK N   1      26.267  25.327  -4.700  0.00  0.00     0.135 C 
BRANCH   8   9
HETATM    9  O   UNK N   1      26.141  26.003  -3.482  0.00  0.00    -0.394 OA
HETATM   10  H   UNK N   1      26.565  26.453  -2.734  0.00  0.00     0.210 HD
ENDBRANCH   8   9
BRANCH   8  11
HETATM   11  C   UNK N   1      25.157  25.763  -5.658  0.00  0.00     0.028 C 
HETATM   12  C   UNK N   1      24.711  27.183  -5.358  0.00  0.00     0.007 C 
ENDBRANCH   8  11
ENDBRANCH   1   8
BRANCH   1  13
HETATM   13  C   UNK N   1      28.599  24.698  -4.245  0.00  0.00    -0.042 A 
HETATM   14  C   UNK N   1      28.086  23.862  -3.241  0.00  0.00     0.008 A 
HETATM   15  C   UNK N   1      28.937  23.196  -2.353  0.00  0.00     0.001 A 
HETATM   16  C   UNK N   1      30.319  23.357  -2.457  0.00  0.00     0.000 A 
HETATM   17  C   UNK N   1      30.852  24.179  -3.448  0.00  0.00     0.001 A 
HETATM   18  C   UNK N   1      30.001  24.844  -4.335  0.00  0.00     0.008 A 
ENDBRANCH   1  13
BRANCH   1  19
HETATM   19  C   UNK N   1      28.024  26.971  -5.494  0.00  0.00    -0.042 A 
HETATM   20  C   UNK N   1      28.032  27.458  -6.819  0.00  0.00     0.008 A 
HETATM   21  C   UNK N   1      28.340  28.791  -7.096  0.00  0.00     0.001 A 
HETATM   22  C   UNK N   1      28.651  29.663  -6.055  0.00  0.00     0.000 A 
HETATM   23  C   UNK N   1      28.653  29.203  -4.739  0.00  0.00     0.001 A 
HETATM   24  C   UNK N   1      28.344  27.867  -4.464  0.00  0.00     0.008 A 
ENDBRANCH   1  19
TORSDOF 8
ENDMDL
MODEL 3
REMARK VINA RESULT:      -5.3      2.058      5.147
REMARK  8 active torsions:
REMARK  status: ('A' for Active; 'I' for Inactive)
REMARK    1  A    between atoms: C_5  and  O_1 
REMARK    2  A    between atoms: C_6  and  N_2 
REMARK    3  A    between atoms: C_3  and  C_4 
REMARK    4  A    between atoms: C_3  and  C_5 
REMARK    5  A    between atoms: C_3  and  C_7 
REMARK    6  A    between atoms: C_3  and  C_8 
REMARK    7  A    between atoms: C_4  and  C_6 
REMARK    8  A    between atoms: C_5  and  C_9 
ROOT
HETATM    1  C   UNK N   1      27.446  24.247  -5.627  0.00  0.00     0.042 C 
ENDROOT
BRANCH   1   2
HETATM    2  C   UNK N   1      27.729  25.446  -6.567  0.00  0.00     0.057 C 
BRANCH   2   3
HETATM    3  C   UNK N   1      28.237  25.035  -7.960  0.00  0.00     0.219 C 
HETATM    4  C   UNK N   1      29.724  25.344  -8.118  0.00  0.00     0.043 C 
BRANCH   3   5
HETATM    5  N   UNK N   1      27.403  25.563  -9.051  0.00  0.00     0.084 N 
HETATM    6  C   UNK N   1      26.219  26.193  -8.490  0.00  0.00     0.309 C 
HETATM    7  C   UNK N   1      26.979  24.520  -9.976  0.00  0.00     0.309 C 
ENDBRANCH   3   5
ENDBRANCH   2   3
ENDBRANCH   1   2
BRANCH   1   8
HETATM    8  C   UNK N   1      26.216  24.552  -4.728  0.00  0.00     0.135 C 
BRANCH   8   9
HETATM    9  O   UNK N   1      26.427  24.059  -3.435  0.00  0.00    -0.394 OA
HETATM   10  H   UNK N   1      26.951  23.509  -2.831  0.00  0.00     0.210 HD
ENDBRANCH   8   9
BRANCH   8  11
HETATM   11  C   UNK N   1      25.796  26.021  -4.665  0.00  0.00     0.028 C 
HETATM   12  C   UNK N   1      26.276  26.666  -3.377  0.00  0.00     0.007 C 
ENDBRANCH   8  11
ENDBRANCH   1   8
BRANCH   1  13
HETATM   13  C   UNK N   1      27.002  23.074  -6.527  0.00  0.00    -0.042 A 
HETATM   14  C   UNK N   1      27.899  22.213  -7.179  0.00  0.00     0.008 A 
HETATM   15  C   UNK N   1      27.436  21.174  -7.993  0.00  0.00     0.001 A 
HETATM   16  C   UNK N   1      26.065  20.980  -8.167  0.00  0.00     0.000 A 
HETATM   17  C   UNK N   1      25.156  21.820  -7.526  0.00  0.00     0.001 A 
HETATM   18  C   UNK N   1      25.619  22.858  -6.714  0.00  0.00     0.008 A 
ENDBRANCH   1  13
BRANCH   1  19
HETATM   19  C   UNK N   1      28.700  24.053  -4.732  0.00  0.00    -0.042 A 
HETATM   20  C   UNK N   1      29.461  25.185  -4.368  0.00  0.00     0.008 A 
HETATM   21  C   UNK N   1      30.617  25.058  -3.596  0.00  0.00     0.001 A 
HETATM   22  C   UNK N   1      31.039  23.799  -3.177  0.00  0.00     0.000 A 
HETATM   23  C   UNK N   1      30.305  22.666  -3.529  0.00  0.00     0.001 A 
HETATM   24  C   UNK N   1      29.147  22.795  -4.303  0.00  0.00     0.008 A 
ENDBRANCH   1  19
TORSDOF 8
ENDMDL
MODEL 4
REMARK VINA RESULT:      -5.3      2.299      3.174
REMARK  8 active torsions:
REMARK  status: ('A' for Active; 'I' for Inactive)
REMARK    1  A    between atoms: C_5  and  O_1 
REMARK    2  A    between atoms: C_6  and  N_2 
REMARK    3  A    between atoms: C_3  and  C_4 
REMARK    4  A    between atoms: C_3  and  C_5 
REMARK    5  A    between atoms: C_3  and  C_7 
REMARK    6  A    between atoms: C_3  and  C_8 
REMARK    7  A    between atoms: C_4  and  C_6 
REMARK    8  A    between atoms: C_5  and  C_9 
ROOT
HETATM    1  C   UNK N   1      27.308  25.709  -6.192  0.00  0.00     0.042 C 
ENDROOT
BRANCH   1   2
HETATM    2  C   UNK N   1      28.818  25.469  -5.938  0.00  0.00     0.057 C 
BRANCH   2   3
HETATM    3  C   UNK N   1      29.178  25.308  -4.450  0.00  0.00     0.219 C 
HETATM    4  C   UNK N   1      30.102  26.431  -3.982  0.00  0.00     0.043 C 
BRANCH   3   5
HETATM    5  N   UNK N   1      29.671  23.961  -4.125  0.00  0.00     0.084 N 
HETATM    6  C   UNK N   1      28.974  23.463  -2.950  0.00  0.00     0.309 C 
HETATM    7  C   UNK N   1      31.103  23.948  -3.855  0.00  0.00     0.309 C 
ENDBRANCH   3   5
ENDBRANCH   2   3
ENDBRANCH   1   2
BRANCH   1   8
HETATM    8  C   UNK N   1      26.477  24.521  -5.633  0.00  0.00     0.135 C 
BRANCH   8   9
HETATM    9  O   UNK N   1      25.108  24.773  -5.787  0.00  0.00    -0.394 OA
HETATM   10  H   UNK N   1      24.265  25.044  -5.393  0.00  0.00     0.210 HD
ENDBRANCH   8   9
BRANCH   8  11
HETATM   11  C   UNK N   1      26.823  23.148  -6.212  0.00  0.00     0.028 C 
HETATM   12  C   UNK N   1      25.606  22.509  -6.857  0.00  0.00     0.007 C 
ENDBRANCH   8  11
ENDBRANCH   1   8
BRANCH   1  13
HETATM   13  C   UNK N   1      26.902  26.922  -5.326  0.00  0.00    -0.042 A 
HETATM   14  C   UNK N   1      26.151  26.816  -4.145  0.00  0.00     0.008 A 
HETATM   15  C   UNK N   1      25.803  27.953  -3.409  0.00  0.00     0.001 A 
HETATM   16  C   UNK N   1      26.202  29.217  -3.845  0.00  0.00     0.000 A 
HETATM   17  C   UNK N   1      26.952  29.346  -5.013  0.00  0.00     0.001 A 
HETATM   18  C   UNK N   1      27.300  28.210  -5.748  0.00  0.00     0.008 A 
ENDBRANCH   1  13
BRANCH   1  19
HETATM   19  C   UNK N   1      27.105  25.801  -7.728  0.00  0.00    -0.042 A 
HETATM   20  C   UNK N   1      28.226  25.662  -8.574  0.00  0.00     0.008 A 
HETATM   21  C   UNK N   1      28.101  25.773  -9.960  0.00  0.00     0.001 A 
HETATM   22  C   UNK N   1      26.855  26.032 -10.528  0.00  0.00     0.000 A 
HETATM   23  C   UNK N   1      25.735  26.178  -9.709  0.00  0.00     0.001 A 
HETATM   24  C   UNK N   1      25.862  26.065  -8.321  0.00  0.00     0.008 A 
ENDBRANCH   1  19
TORSDOF 8
ENDMDL
MODEL 5
REMARK VINA RESULT:      -5.3      0.879      1.536
REMARK  8 active torsions:
REMARK  status: ('A' for Active; 'I' for Inactive)
REMARK    1  A    between atoms: C_5  and  O_1 
REMARK    2  A    between atoms: C_6  and  N_2 
REMARK    3  A    between atoms: C_3  and  C_4 
REMARK    4  A    between atoms: C_3  and  C_5 
REMARK    5  A    between atoms: C_3  and  C_7 
REMARK    6  A    between atoms: C_3  and  C_8 
REMARK    7  A    between atoms: C_4  and  C_6 
REMARK    8  A    between atoms: C_5  and  C_9 
ROOT
HETATM    1  C   UNK N   1      27.843  24.713  -4.826  0.00  0.00     0.042 C 
ENDROOT
BRANCH   1   2
HETATM    2  C   UNK N   1      29.238  25.182  -5.311  0.00  0.00     0.057 C 
BRANCH   2   3
HETATM    3  C   UNK N   1      29.211  26.515  -6.080  0.00  0.00     0.219 C 
HETATM    4  C   UNK N   1      29.202  26.281  -7.589  0.00  0.00     0.043 C 
BRANCH   3   5
HETATM    5  N   UNK N   1      30.253  27.453  -5.631  0.00  0.00     0.084 N 
HETATM    6  C   UNK N   1      30.819  26.982  -4.378  0.00  0.00     0.309 C 
HETATM    7  C   UNK N   1      29.732  28.799  -5.428  0.00  0.00     0.309 C 
ENDBRANCH   3   5
ENDBRANCH   2   3
ENDBRANCH   1   2
BRANCH   1   8
HETATM    8  C   UNK N   1      27.951  24.104  -3.400  0.00  0.00     0.135 C 
BRANCH   8   9
HETATM    9  O   UNK N   1      26.680  23.762  -2.923  0.00  0.00    -0.394 OA
HETATM   10  H   UNK N   1      25.843  23.289  -3.055  0.00  0.00     0.210 HD
ENDBRANCH   8   9
BRANCH   8  11
HETATM   11  C   UNK N   1      28.897  22.910  -3.266  0.00  0.00     0.028 C 
HETATM   12  C   UNK N   1      29.923  23.153  -2.173  0.00  0.00     0.007 C 
ENDBRANCH   8  11
ENDBRANCH   1   8
BRANCH   1  13
HETATM   13  C   UNK N   1      26.984  25.985  -4.653  0.00  0.00    -0.042 A 
HETATM   14  C   UNK N   1      25.986  26.376  -5.558  0.00  0.00     0.008 A 
HETATM   15  C   UNK N   1      25.247  27.546  -5.354  0.00  0.00     0.001 A 
HETATM   16  C   UNK N   1      25.498  28.345  -4.238  0.00  0.00     0.000 A 
HETATM   17  C   UNK N   1      26.483  27.974  -3.324  0.00  0.00     0.001 A 
HETATM   18  C   UNK N   1      27.221  26.805  -3.528  0.00  0.00     0.008 A 
ENDBRANCH   1  13
BRANCH   1  19
HETATM   19  C   UNK N   1      27.351  23.622  -5.815  0.00  0.00    -0.042 A 
HETATM   20  C   UNK N   1      28.303  22.916  -6.580  0.00  0.00     0.008 A 
HETATM   21  C   UNK N   1      27.908  21.951  -7.510  0.00  0.00     0.001 A 
HETATM   22  C   UNK N   1      26.555  21.678  -7.696  0.00  0.00     0.000 A 
HETATM   23  C   UNK N   1      25.597  22.368  -6.953  0.00  0.00     0.001 A 
HETATM   24  C   UNK N   1      25.995  23.334  -6.023  0.00  0.00     0.008 A 
ENDBRANCH   1  19
TORSDOF 8
ENDMDL
MODEL 6
REMARK VINA RESULT:      -5.3      1.976      5.052
REMARK  8 active torsions:
REMARK  status: ('A' for Active; 'I' for Inactive)
REMARK    1  A    between atoms: C_5  and  O_1 
REMARK    2  A    between atoms: C_6  and  N_2 
REMARK    3  A    between atoms: C_3  and  C_4 
REMARK    4  A    between atoms: C_3  and  C_5 
REMARK    5  A    between atoms: C_3  and  C_7 
REMARK    6  A    between atoms: C_3  and  C_8 
REMARK    7  A    between atoms: C_4  and  C_6 
REMARK    8  A    between atoms: C_5  and  C_9 
ROOT
HETATM    1  C   UNK N   1      27.707  24.028  -6.172  0.00  0.00     0.042 C 
ENDROOT
BRANCH   1   2
HETATM    2  C   UNK N   1      28.422  23.438  -4.930  0.00  0.00     0.057 C 
BRANCH   2   3
HETATM    3  C   UNK N   1      29.893  23.063  -5.182  0.00  0.00     0.219 C 
HETATM    4  C   UNK N   1      30.086  21.549  -5.175  0.00  0.00     0.043 C 
BRANCH   3   5
HETATM    5  N   UNK N   1      30.824  23.784  -4.300  0.00  0.00     0.084 N 
HETATM    6  C   UNK N   1      32.178  23.310  -4.536  0.00  0.00     0.309 C 
HETATM    7  C   UNK N   1      30.506  23.594  -2.890  0.00  0.00     0.309 C 
ENDBRANCH   3   5
ENDBRANCH   2   3
ENDBRANCH   1   2
BRANCH   1   8
HETATM    8  C   UNK N   1      28.755  24.517  -7.210  0.00  0.00     0.135 C 
BRANCH   8   9
HETATM    9  O   UNK N   1      28.179  24.586  -8.484  0.00  0.00    -0.394 OA
HETATM   10  H   UNK N   1      28.045  25.078  -9.309  0.00  0.00     0.210 HD
ENDBRANCH   8   9
BRANCH   8  11
HETATM   11  C   UNK N   1      29.443  25.841  -6.875  0.00  0.00     0.028 C 
HETATM   12  C   UNK N   1      29.265  26.844  -8.002  0.00  0.00     0.007 C 
ENDBRANCH   8  11
ENDBRANCH   1   8
BRANCH   1  13
HETATM   13  C   UNK N   1      26.978  22.855  -6.862  0.00  0.00    -0.042 A 
HETATM   14  C   UNK N   1      27.613  21.945  -7.722  0.00  0.00     0.008 A 
HETATM   15  C   UNK N   1      26.897  20.908  -8.328  0.00  0.00     0.001 A 
HETATM   16  C   UNK N   1      25.531  20.765  -8.083  0.00  0.00     0.000 A 
HETATM   17  C   UNK N   1      24.880  21.654  -7.230  0.00  0.00     0.001 A 
HETATM   18  C   UNK N   1      25.596  22.690  -6.624  0.00  0.00     0.008 A 
ENDBRANCH   1  13
BRANCH   1  19
HETATM   19  C   UNK N   1      26.861  25.236  -5.689  0.00  0.00    -0.042 A 
HETATM   20  C   UNK N   1      26.980  25.661  -4.348  0.00  0.00     0.008 A 
HETATM   21  C   UNK N   1      26.214  26.720  -3.856  0.00  0.00     0.001 A 
HETATM   22  C   UNK N   1      25.309  27.370  -4.692  0.00  0.00     0.000 A 
HETATM   23  C   UNK N   1      25.171  26.964  -6.019  0.00  0.00     0.001 A 
HETATM   24  C   UNK N   1      25.941  25.904  -6.510  0.00  0.00     0.008 A 
ENDBRANCH   1  19
TORSDOF 8
ENDMDL
MODEL 7
REMARK VINA RESULT:      -5.1      1.453      4.912
REMARK  8 active torsions:
REMARK  status: ('A' for Active; 'I' for Inactive)
REMARK    1  A    between atoms: C_5  and  O_1 
REMARK    2  A    between atoms: C_6  and  N_2 
REMARK    3  A    between atoms: C_3  and  C_4 
REMARK    4  A    between atoms: C_3  and  C_5 
REMARK    5  A    between atoms: C_3  and  C_7 
REMARK    6  A    between atoms: C_3  and  C_8 
REMARK    7  A    between atoms: C_4  and  C_6 
REMARK    8  A    between atoms: C_5  and  C_9 
ROOT
HETATM    1  C   UNK N   1      28.167  24.771  -4.636  0.00  0.00     0.042 C 
ENDROOT
BRANCH   1   2
HETATM    2  C   UNK N   1      26.857  25.567  -4.860  0.00  0.00     0.057 C 
BRANCH   2   3
HETATM    3  C   UNK N   1      26.954  27.049  -4.455  0.00  0.00     0.219 C 
HETATM    4  C   UNK N   1      26.227  27.309  -3.137  0.00  0.00     0.043 C 
BRANCH   3   5
HETATM    5  N   UNK N   1      26.562  27.963  -5.539  0.00  0.00     0.084 N 
HETATM    6  C   UNK N   1      26.394  27.208  -6.770  0.00  0.00     0.309 C 
HETATM    7  C   UNK N   1      27.556  29.006  -5.766  0.00  0.00     0.309 C 
ENDBRANCH   3   5
ENDBRANCH   2   3
ENDBRANCH   1   2
BRANCH   1   8
HETATM    8  C   UNK N   1      28.151  24.101  -3.233  0.00  0.00     0.135 C 
BRANCH   8   9
HETATM    9  O   UNK N   1      26.833  23.874  -2.820  0.00  0.00    -0.394 OA
HETATM   10  H   UNK N   1      26.142  23.246  -2.556  0.00  0.00     0.210 HD
ENDBRANCH   8   9
BRANCH   8  11
HETATM   11  C   UNK N   1      28.966  22.812  -3.112  0.00  0.00     0.028 C 
HETATM   12  C   UNK N   1      30.122  22.991  -2.145  0.00  0.00     0.007 C 
ENDBRANCH   8  11
ENDBRANCH   1   8
BRANCH   1  13
HETATM   13  C   UNK N   1      28.149  23.598  -5.639  0.00  0.00    -0.042 A 
HETATM   14  C   UNK N   1      29.275  22.815  -5.939  0.00  0.00     0.008 A 
HETATM   15  C   UNK N   1      29.200  21.771  -6.866  0.00  0.00     0.001 A 
HETATM   16  C   UNK N   1      27.994  21.494  -7.511  0.00  0.00     0.000 A 
HETATM   17  C   UNK N   1      26.862  22.256  -7.227  0.00  0.00     0.001 A 
HETATM   18  C   UNK N   1      26.937  23.299  -6.300  0.00  0.00     0.008 A 
ENDBRANCH   1  13
BRANCH   1  19
HETATM   19  C   UNK N   1      29.342  25.782  -4.708  0.00  0.00    -0.042 A 
HETATM   20  C   UNK N   1      29.854  26.145  -5.972  0.00  0.00     0.008 A 
HETATM   21  C   UNK N   1      30.934  27.022  -6.088  0.00  0.00     0.001 A 
HETATM   22  C   UNK N   1      31.528  27.549  -4.944  0.00  0.00     0.000 A 
HETATM   23  C   UNK N   1      31.041  27.201  -3.684  0.00  0.00     0.001 A 
HETATM   24  C   UNK N   1      29.959  26.322  -3.570  0.00  0.00     0.008 A 
ENDBRANCH   1  19
TORSDOF 8
ENDMDL
MODEL 8
REMARK VINA RESULT:      -5.1      2.019      4.511
REMARK  8 active torsions:
REMARK  status: ('A' for Active; 'I' for Inactive)
REMARK    1  A    between atoms: C_5  and  O_1 
REMARK    2  A    between atoms: C_6  and  N_2 
REMARK    3  A    between atoms: C_3  and  C_4 
REMARK    4  A    between atoms: C_3  and  C_5 
REMARK    5  A    between atoms: C_3  and  C_7 
REMARK    6  A    between atoms: C_3  and  C_8 
REMARK    7  A    between atoms: C_4  and  C_6 
REMARK    8  A    between atoms: C_5  and  C_9 
ROOT
HETATM    1  C   UNK N   1      28.826  25.477  -5.203  0.00  0.00     0.042 C 
ENDROOT
BRANCH   1   2
HETATM    2  C   UNK N   1      28.665  24.615  -6.480  0.00  0.00     0.057 C 
BRANCH   2   3
HETATM    3  C   UNK N   1      28.185  23.179  -6.202  0.00  0.00     0.219 C 
HETATM    4  C   UNK N   1      29.274  22.160  -6.531  0.00  0.00     0.043 C 
BRANCH   3   5
HETATM    5  N   UNK N   1      26.886  22.881  -6.825  0.00  0.00     0.084 N 
HETATM    6  C   UNK N   1      26.775  23.606  -8.080  0.00  0.00     0.309 C 
HETATM    7  C   UNK N   1      25.766  23.256  -5.971  0.00  0.00     0.309 C 
ENDBRANCH   3   5
ENDBRANCH   2   3
ENDBRANCH   1   2
BRANCH   1   8
HETATM    8  C   UNK N   1      29.936  26.544  -5.416  0.00  0.00     0.135 C 
BRANCH   8   9
HETATM    9  O   UNK N   1      30.047  26.864  -6.774  0.00  0.00    -0.394 OA
HETATM   10  H   UNK N   1      29.971  27.524  -7.480  0.00  0.00     0.210 HD
ENDBRANCH   8   9
BRANCH   8  11
HETATM   11  C   UNK N   1      29.786  27.822  -4.588  0.00  0.00     0.028 C 
HETATM   12  C   UNK N   1      30.928  27.962  -3.598  0.00  0.00     0.007 C 
ENDBRANCH   8  11
ENDBRANCH   1   8
BRANCH   1  13
HETATM   13  C   UNK N   1      27.519  26.287  -5.049  0.00  0.00    -0.042 A 
HETATM   14  C   UNK N   1      26.731  26.702  -6.133  0.00  0.00     0.008 A 
HETATM   15  C   UNK N   1      25.563  27.444  -5.931  0.00  0.00     0.001 A 
HETATM   16  C   UNK N   1      25.165  27.783  -4.638  0.00  0.00     0.000 A 
HETATM   17  C   UNK N   1      25.931  27.379  -3.545  0.00  0.00     0.001 A 
HETATM   18  C   UNK N   1      27.098  26.637  -3.747  0.00  0.00     0.008 A 
ENDBRANCH   1  13
BRANCH   1  19
HETATM   19  C   UNK N   1      29.241  24.526  -4.049  0.00  0.00    -0.042 A 
HETATM   20  C   UNK N   1      30.610  24.245  -3.856  0.00  0.00     0.008 A 
HETATM   21  C   UNK N   1      31.032  23.367  -2.856  0.00  0.00     0.001 A 
HETATM   22  C   UNK N   1      30.094  22.749  -2.032  0.00  0.00     0.000 A 
HETATM   23  C   UNK N   1      28.735  23.009  -2.208  0.00  0.00     0.001 A 
HETATM   24  C   UNK N   1      28.315  23.889  -3.211  0.00  0.00     0.008 A 
ENDBRANCH   1  19
TORSDOF 8
ENDMDL
MODEL 9
REMARK VINA RESULT:      -5.1      1.793      4.943
REMARK  8 active torsions:
REMARK  status: ('A' for Active; 'I' for Inactive)
REMARK    1  A    between atoms: C_5  and  O_1 
REMARK    2  A    between atoms: C_6  and  N_2 
REMARK    3  A    between atoms: C_3  and  C_4 
REMARK    4  A    between atoms: C_3  and  C_5 
REMARK    5  A    between atoms: C_3  and  C_7 
REMARK    6  A    between atoms: C_3  and  C_8 
REMARK    7  A    between atoms: C_4  and  C_6 
REMARK    8  A    between atoms: C_5  and  C_9 
ROOT
HETATM    1  C   UNK N   1      27.627  24.988  -5.140  0.00  0.00     0.042 C 
ENDROOT
BRANCH   1   2
HETATM    2  C   UNK N   1      28.417  25.249  -6.448  0.00  0.00     0.057 C 
BRANCH   2   3
HETATM    3  C   UNK N   1      27.841  26.393  -7.302  0.00  0.00     0.219 C 
HETATM    4  C   UNK N   1      27.162  25.854  -8.559  0.00  0.00     0.043 C 
BRANCH   3   5
HETATM    5  N   UNK N   1      28.823  27.456  -7.568  0.00  0.00     0.084 N 
HETATM    6  C   UNK N   1      30.044  27.180  -6.828  0.00  0.00     0.309 C 
HETATM    7  C   UNK N   1      28.332  28.771  -7.178  0.00  0.00     0.309 C 
ENDBRANCH   3   5
ENDBRANCH   2   3
ENDBRANCH   1   2
BRANCH   1   8
HETATM    8  C   UNK N   1      26.483  23.969  -5.402  0.00  0.00     0.135 C 
BRANCH   8   9
HETATM    9  O   UNK N   1      25.311  24.641  -5.768  0.00  0.00    -0.394 OA
HETATM   10  H   UNK N   1      24.537  24.704  -6.350  0.00  0.00     0.210 HD
ENDBRANCH   8   9
BRANCH   8  11
HETATM   11  C   UNK N   1      26.798  22.874  -6.422  0.00  0.00     0.028 C 
HETATM   12  C   UNK N   1      25.526  22.343  -7.057  0.00  0.00     0.007 C 
ENDBRANCH   8  11
ENDBRANCH   1   8
BRANCH   1  13
HETATM   13  C   UNK N   1      28.594  24.264  -4.177  0.00  0.00    -0.042 A 
HETATM   14  C   UNK N   1      28.180  23.623  -3.000  0.00  0.00     0.008 A 
HETATM   15  C   UNK N   1      29.104  22.993  -2.160  0.00  0.00     0.001 A 
HETATM   16  C   UNK N   1      30.460  22.996  -2.487  0.00  0.00     0.000 A 
HETATM   17  C   UNK N   1      30.894  23.624  -3.654  0.00  0.00     0.001 A 
HETATM   18  C   UNK N   1      29.970  24.252  -4.492  0.00  0.00     0.008 A 
ENDBRANCH   1  13
BRANCH   1  19
HETATM   19  C   UNK N   1      27.017  26.341  -4.689  0.00  0.00    -0.042 A 
HETATM   20  C   UNK N   1      27.753  27.163  -3.808  0.00  0.00     0.008 A 
HETATM   21  C   UNK N   1      27.232  28.372  -3.345  0.00  0.00     0.001 A 
HETATM   22  C   UNK N   1      25.962  28.782  -3.746  0.00  0.00     0.000 A 
HETATM   23  C   UNK N   1      25.215  27.983  -4.612  0.00  0.00     0.001 A 
HETATM   24  C   UNK N   1      25.740  26.772  -5.076  0.00  0.00     0.008 A 
ENDBRANCH   1  19
TORSDOF 8
ENDMDL
