REMARK  5 active torsions:
REMARK  status: ('A' for Active; 'I' for Inactive)
REMARK    1  A    between atoms: C_4  and  O_1 
REMARK    2  A    between atoms: O_1  and  C_15 
REMARK    3  A    between atoms: C_4  and  C_10 
REMARK    4  A    between atoms: C_5  and  C_9 
REMARK    5  A    between atoms: C_15  and  C_18 
ROOT
HETATM    1  N   UNK N   1       4.189  -2.677  -0.340  0.00  0.00     0.084 N 
HETATM    2  C   UNK N   1       2.967  -0.041   0.381  0.00  0.00     0.104 C 
HETATM    3  C   UNK N   1       2.498  -0.861  -0.854  0.00  0.00     0.053 C 
HETATM    4  C   UNK N   1       3.462  -1.046   1.431  0.00  0.00     0.074 C 
HETATM    5  C   UNK N   1       3.576  -1.829  -1.376  0.00  0.00     0.279 C 
HETATM    6  C   UNK N   1       4.566  -1.967   0.890  0.00  0.00     0.275 C 
HETATM    7  C   UNK N   1       3.376  -3.846  -0.048  0.00  0.00     0.309 C 
ENDROOT
BRANCH   2   8
HETATM    8  O   UNK N   1       1.895   0.656   0.939  0.00  0.00    -0.305 OA
BRANCH   8   9
HETATM    9  C   UNK N   1       1.100   1.548   0.278  0.00  0.00     0.259 C 
HETATM   10  O   UNK N   1       1.131   1.636  -0.941  0.00  0.00    -0.265 OA
BRANCH   9  11
HETATM   11  C   UNK N   1       0.196   2.445   1.055  0.00  0.00     0.106 C 
HETATM   12  C   UNK N   1       0.571   3.895   0.802  0.00  0.00     0.015 C 
ENDBRANCH   9  11
ENDBRANCH   8   9
ENDBRANCH   2   8
BRANCH   2  13
HETATM   13  C   UNK N   1       4.100   0.946   0.039  0.00  0.00    -0.023 A 
HETATM   14  C   UNK N   1       3.978   2.312   0.360  0.00  0.00     0.010 A 
HETATM   15  C   UNK N   1       5.007   3.213   0.079  0.00  0.00     0.001 A 
HETATM   16  C   UNK N   1       6.181   2.763  -0.527  0.00  0.00     0.000 A 
HETATM   17  C   UNK N   1       6.324   1.413  -0.851  0.00  0.00     0.001 A 
HETATM   18  C   UNK N   1       5.294   0.512  -0.568  0.00  0.00     0.010 A 
ENDBRANCH   2  13
BRANCH   3  19
HETATM   19  C   UNK N   1       1.106  -1.517  -0.752  0.00  0.00     0.005 C 
HETATM   20  C   UNK N   1       0.864  -2.341   0.502  0.00  0.00     0.005 C 
ENDBRANCH   3  19
TORSDOF 5
