MODEL 1
REMARK VINA RESULT:      -5.8      0.000      0.000
REMARK  5 active torsions:
REMARK  status: ('A' for Active; 'I' for Inactive)
REMARK    1  A    between atoms: C_4  and  O_1 
REMARK    2  A    between atoms: O_1  and  C_15 
REMARK    3  A    between atoms: C_4  and  C_10 
REMARK    4  A    between atoms: C_5  and  C_9 
REMARK    5  A    between atoms: C_15  and  C_18 
ROOT
HETATM    1  N   UNK N   1      26.672  23.950  -6.863  0.00  0.00     0.084 N 
HETATM    2  C   UNK N   1      27.602  25.671  -4.597  0.00  0.00     0.104 C 
HETATM    3  C   UNK N   1      28.085  25.894  -6.058  0.00  0.00     0.053 C 
HETATM    4  C   UNK N   1      26.185  25.085  -4.672  0.00  0.00     0.074 C 
HETATM    5  C   UNK N   1      27.979  24.625  -6.925  0.00  0.00     0.279 C 
HETATM    6  C   UNK N   1      26.124  23.797  -5.508  0.00  0.00     0.275 C 
HETATM    7  C   UNK N   1      25.705  24.562  -7.759  0.00  0.00     0.309 C 
ENDROOT
BRANCH   2   8
HETATM    8  O   UNK N   1      27.517  26.888  -3.920  0.00  0.00    -0.305 OA
BRANCH   8   9
HETATM    9  C   UNK N   1      26.401  27.377  -3.305  0.00  0.00     0.259 C 
HETATM   10  O   UNK N   1      26.031  26.935  -2.227  0.00  0.00    -0.265 OA
BRANCH   9  11
HETATM   11  C   UNK N   1      25.606  28.451  -3.968  0.00  0.00     0.106 C 
HETATM   12  C   UNK N   1      26.415  29.736  -4.011  0.00  0.00     0.015 C 
ENDBRANCH   9  11
ENDBRANCH   8   9
ENDBRANCH   2   8
BRANCH   2  13
HETATM   13  C   UNK N   1      28.516  24.709  -3.813  0.00  0.00    -0.023 A 
HETATM   14  C   UNK N   1      29.907  24.709  -4.032  0.00  0.00     0.010 A 
HETATM   15  C   UNK N   1      30.750  23.860  -3.311  0.00  0.00     0.001 A 
HETATM   16  C   UNK N   1      30.216  22.997  -2.353  0.00  0.00     0.000 A 
HETATM   17  C   UNK N   1      28.840  22.983  -2.118  0.00  0.00     0.001 A 
HETATM   18  C   UNK N   1      27.998  23.834  -2.839  0.00  0.00     0.010 A 
ENDBRANCH   2  13
BRANCH   3  19
HETATM   19  C   UNK N   1      27.548  27.151  -6.772  0.00  0.00     0.005 C 
HETATM   20  C   UNK N   1      28.536  28.298  -6.902  0.00  0.00     0.005 C 
ENDBRANCH   3  19
TORSDOF 5
ENDMDL
MODEL 2
REMARK VINA RESULT:      -5.5     15.944     18.288
REMARK  5 active torsions:
REMARK  status: ('A' for Active; 'I' for Inactive)
REMARK    1  A    between atoms: C_4  and  O_1 
REMARK    2  A    between atoms: O_1  and  C_15 
REMARK    3  A    between atoms: C_4  and  C_10 
REMARK    4  A    between atoms: C_5  and  C_9 
REMARK    5  A    between atoms: C_15  and  C_18 
ROOT
HETATM    1  N   UNK N   1      22.561  12.677   5.890  0.00  0.00     0.084 N 
HETATM    2  C   UNK N   1      21.921  14.229   8.368  0.00  0.00     0.104 C 
HETATM    3  C   UNK N   1      22.897  14.766   7.284  0.00  0.00     0.053 C 
HETATM    4  C   UNK N   1      20.894  13.339   7.653  0.00  0.00     0.074 C 
HETATM    5  C   UNK N   1      23.527  13.646   6.435  0.00  0.00     0.279 C 
HETATM    6  C   UNK N   1      21.554  12.207   6.851  0.00  0.00     0.275 C 
HETATM    7  C   UNK N   1      21.941  13.162   4.668  0.00  0.00     0.309 C 
ENDROOT
BRANCH   2   8
HETATM    8  O   UNK N   1      21.224  15.282   8.961  0.00  0.00    -0.305 OA
BRANCH   8   9
HETATM    9  C   UNK N   1      19.865  15.418   8.986  0.00  0.00     0.259 C 
HETATM   10  O   UNK N   1      19.165  14.635   9.612  0.00  0.00    -0.265 OA
BRANCH   9  11
HETATM   11  C   UNK N   1      19.222  16.524   8.219  0.00  0.00     0.106 C 
HETATM   12  C   UNK N   1      18.435  17.415   9.165  0.00  0.00     0.015 C 
ENDBRANCH   9  11
ENDBRANCH   8   9
ENDBRANCH   2   8
BRANCH   2  13
HETATM   13  C   UNK N   1      22.641  13.411   9.458  0.00  0.00    -0.023 A 
HETATM   14  C   UNK N   1      21.905  12.784  10.483  0.00  0.00     0.010 A 
HETATM   15  C   UNK N   1      22.542  12.019  11.462  0.00  0.00     0.001 A 
HETATM   16  C   UNK N   1      23.929  11.864  11.433  0.00  0.00     0.000 A 
HETATM   17  C   UNK N   1      24.676  12.473  10.424  0.00  0.00     0.001 A 
HETATM   18  C   UNK N   1      24.038  13.238   9.444  0.00  0.00     0.010 A 
ENDBRANCH   2  13
BRANCH   3  19
HETATM   19  C   UNK N   1      22.391  15.948   6.432  0.00  0.00     0.005 C 
HETATM   20  C   UNK N   1      23.434  16.602   5.540  0.00  0.00     0.005 C 
ENDBRANCH   3  19
TORSDOF 5
ENDMDL
MODEL 3
REMARK VINA RESULT:      -5.3      2.198      4.057
REMARK  5 active torsions:
REMARK  status: ('A' for Active; 'I' for Inactive)
REMARK    1  A    between atoms: C_4  and  O_1 
REMARK    2  A    between atoms: O_1  and  C_15 
REMARK    3  A    between atoms: C_4  and  C_10 
REMARK    4  A    between atoms: C_5  and  C_9 
REMARK    5  A    between atoms: C_15  and  C_18 
ROOT
HETATM    1  N   UNK N   1      29.349  27.026  -5.402  0.00  0.00     0.084 N 
HETATM    2  C   UNK N   1      27.686  24.556  -5.094  0.00  0.00     0.104 C 
HETATM    3  C   UNK N   1      27.459  25.822  -4.220  0.00  0.00     0.053 C 
HETATM    4  C   UNK N   1      28.229  25.033  -6.449  0.00  0.00     0.074 C 
HETATM    5  C   UNK N   1      28.712  26.710  -4.112  0.00  0.00     0.279 C 
HETATM    6  C   UNK N   1      29.502  25.880  -6.308  0.00  0.00     0.275 C 
HETATM    7  C   UNK N   1      28.697  28.142  -6.066  0.00  0.00     0.309 C 
ENDROOT
BRANCH   2   8
HETATM    8  O   UNK N   1      26.475  23.905  -5.332  0.00  0.00    -0.305 OA
BRANCH   8   9
HETATM    9  C   UNK N   1      25.964  23.608  -6.563  0.00  0.00     0.259 C 
HETATM   10  O   UNK N   1      25.282  24.419  -7.173  0.00  0.00    -0.265 OA
BRANCH   9  11
HETATM   11  C   UNK N   1      26.221  22.267  -7.163  0.00  0.00     0.106 C 
HETATM   12  C   UNK N   1      24.901  21.571  -7.448  0.00  0.00     0.015 C 
ENDBRANCH   9  11
ENDBRANCH   8   9
ENDBRANCH   2   8
BRANCH   2  13
HETATM   13  C   UNK N   1      28.684  23.570  -4.458  0.00  0.00    -0.023 A 
HETATM   14  C   UNK N   1      29.363  22.627  -5.254  0.00  0.00     0.010 A 
HETATM   15  C   UNK N   1      30.289  21.745  -4.695  0.00  0.00     0.001 A 
HETATM   16  C   UNK N   1      30.557  21.791  -3.326  0.00  0.00     0.000 A 
HETATM   17  C   UNK N   1      29.898  22.719  -2.519  0.00  0.00     0.001 A 
HETATM   18  C   UNK N   1      28.972  23.603  -3.080  0.00  0.00     0.010 A 
ENDBRANCH   2  13
BRANCH   3  19
HETATM   19  C   UNK N   1      26.177  26.631  -4.505  0.00  0.00     0.005 C 
HETATM   20  C   UNK N   1      25.839  27.701  -3.480  0.00  0.00     0.005 C 
ENDBRANCH   3  19
TORSDOF 5
ENDMDL
MODEL 4
REMARK VINA RESULT:      -5.3      2.242      4.335
REMARK  5 active torsions:
REMARK  status: ('A' for Active; 'I' for Inactive)
REMARK    1  A    between atoms: C_4  and  O_1 
REMARK    2  A    between atoms: O_1  and  C_15 
REMARK    3  A    between atoms: C_4  and  C_10 
REMARK    4  A    between atoms: C_5  and  C_9 
REMARK    5  A    between atoms: C_15  and  C_18 
ROOT
HETATM    1  N   UNK N   1      27.654  28.080  -3.552  0.00  0.00     0.084 N 
HETATM    2  C   UNK N   1      28.317  25.621  -5.126  0.00  0.00     0.104 C 
HETATM    3  C   UNK N   1      26.850  26.042  -4.826  0.00  0.00     0.053 C 
HETATM    4  C   UNK N   1      29.152  26.907  -5.197  0.00  0.00     0.074 C 
HETATM    5  C   UNK N   1      26.726  26.937  -3.579  0.00  0.00     0.279 C 
HETATM    6  C   UNK N   1      29.039  27.754  -3.921  0.00  0.00     0.275 C 
HETATM    7  C   UNK N   1      27.151  29.203  -4.325  0.00  0.00     0.309 C 
ENDROOT
BRANCH   2   8
HETATM    8  O   UNK N   1      28.400  24.997  -6.371  0.00  0.00    -0.305 OA
BRANCH   8   9
HETATM    9  C   UNK N   1      28.183  23.670  -6.608  0.00  0.00     0.259 C 
HETATM   10  O   UNK N   1      27.075  23.176  -6.456  0.00  0.00    -0.265 OA
BRANCH   9  11
HETATM   11  C   UNK N   1      29.319  22.803  -7.037  0.00  0.00     0.106 C 
HETATM   12  C   UNK N   1      29.481  21.650  -6.062  0.00  0.00     0.015 C 
ENDBRANCH   9  11
ENDBRANCH   8   9
ENDBRANCH   2   8
BRANCH   2  13
HETATM   13  C   UNK N   1      28.897  24.690  -4.044  0.00  0.00    -0.023 A 
HETATM   14  C   UNK N   1      28.041  23.968  -3.190  0.00  0.00     0.010 A 
HETATM   15  C   UNK N   1      28.552  23.101  -2.222  0.00  0.00     0.001 A 
HETATM   16  C   UNK N   1      29.932  22.937  -2.092  0.00  0.00     0.000 A 
HETATM   17  C   UNK N   1      30.798  23.641  -2.931  0.00  0.00     0.001 A 
HETATM   18  C   UNK N   1      30.285  24.507  -3.900  0.00  0.00     0.010 A 
ENDBRANCH   2  13
BRANCH   3  19
HETATM   19  C   UNK N   1      26.031  26.569  -6.022  0.00  0.00     0.005 C 
HETATM   20  C   UNK N   1      24.626  27.045  -5.690  0.00  0.00     0.005 C 
ENDBRANCH   3  19
TORSDOF 5
ENDMDL
MODEL 5
REMARK VINA RESULT:      -5.3     11.395     13.440
REMARK  5 active torsions:
REMARK  status: ('A' for Active; 'I' for Inactive)
REMARK    1  A    between atoms: C_4  and  O_1 
REMARK    2  A    between atoms: O_1  and  C_15 
REMARK    3  A    between atoms: C_4  and  C_10 
REMARK    4  A    between atoms: C_5  and  C_9 
REMARK    5  A    between atoms: C_15  and  C_18 
ROOT
HETATM    1  N   UNK N   1      27.068  14.922   5.647  0.00  0.00     0.084 N 
HETATM    2  C   UNK N   1      28.354  17.622   5.502  0.00  0.00     0.104 C 
HETATM    3  C   UNK N   1      28.925  16.391   4.743  0.00  0.00     0.053 C 
HETATM    4  C   UNK N   1      26.835  17.426   5.605  0.00  0.00     0.074 C 
HETATM    5  C   UNK N   1      28.510  15.050   5.376  0.00  0.00     0.279 C 
HETATM    6  C   UNK N   1      26.456  16.099   6.280  0.00  0.00     0.275 C 
HETATM    7  C   UNK N   1      26.330  14.515   4.463  0.00  0.00     0.309 C 
ENDROOT
BRANCH   2   8
HETATM    8  O   UNK N   1      28.579  18.790   4.774  0.00  0.00    -0.305 OA
BRANCH   8   9
HETATM    9  C   UNK N   1      27.693  19.820   4.635  0.00  0.00     0.259 C 
HETATM   10  O   UNK N   1      26.904  19.850   3.702  0.00  0.00    -0.265 OA
BRANCH   9  11
HETATM   11  C   UNK N   1      27.703  20.938   5.624  0.00  0.00     0.106 C 
HETATM   12  C   UNK N   1      26.342  21.045   6.290  0.00  0.00     0.015 C 
ENDBRANCH   9  11
ENDBRANCH   8   9
ENDBRANCH   2   8
BRANCH   2  13
HETATM   13  C   UNK N   1      28.951  17.773   6.915  0.00  0.00    -0.023 A 
HETATM   14  C   UNK N   1      30.294  17.429   7.163  0.00  0.00     0.010 A 
HETATM   15  C   UNK N   1      30.855  17.585   8.432  0.00  0.00     0.001 A 
HETATM   16  C   UNK N   1      30.082  18.091   9.478  0.00  0.00     0.000 A 
HETATM   17  C   UNK N   1      28.749  18.440   9.254  0.00  0.00     0.001 A 
HETATM   18  C   UNK N   1      28.189  18.285   7.983  0.00  0.00     0.010 A 
ENDBRANCH   2  13
BRANCH   3  19
HETATM   19  C   UNK N   1      28.769  16.399   3.208  0.00  0.00     0.005 C 
HETATM   20  C   UNK N   1      29.393  15.219   2.483  0.00  0.00     0.005 C 
ENDBRANCH   3  19
TORSDOF 5
ENDMDL
MODEL 6
REMARK VINA RESULT:      -5.3      4.661      7.202
REMARK  5 active torsions:
REMARK  status: ('A' for Active; 'I' for Inactive)
REMARK    1  A    between atoms: C_4  and  O_1 
REMARK    2  A    between atoms: O_1  and  C_15 
REMARK    3  A    between atoms: C_4  and  C_10 
REMARK    4  A    between atoms: C_5  and  C_9 
REMARK    5  A    between atoms: C_15  and  C_18 
ROOT
HETATM    1  N   UNK N   1      33.776  21.715  -6.821  0.00  0.00     0.084 N 
HETATM    2  C   UNK N   1      31.406  21.083  -5.106  0.00  0.00     0.104 C 
HETATM    3  C   UNK N   1      32.553  20.060  -5.342  0.00  0.00     0.053 C 
HETATM    4  C   UNK N   1      32.025  22.486  -5.189  0.00  0.00     0.074 C 
HETATM    5  C   UNK N   1      33.331  20.322  -6.645  0.00  0.00     0.279 C 
HETATM    6  C   UNK N   1      32.756  22.728  -6.518  0.00  0.00     0.275 C 
HETATM    7  C   UNK N   1      35.014  21.980  -6.107  0.00  0.00     0.309 C 
ENDROOT
BRANCH   2   8
HETATM    8  O   UNK N   1      30.876  20.933  -3.824  0.00  0.00    -0.305 OA
BRANCH   8   9
HETATM    9  C   UNK N   1      30.785  21.920  -2.884  0.00  0.00     0.259 C 
HETATM   10  O   UNK N   1      31.726  22.176  -2.146  0.00  0.00    -0.265 OA
BRANCH   9  11
HETATM   11  C   UNK N   1      29.511  22.683  -2.739  0.00  0.00     0.106 C 
HETATM   12  C   UNK N   1      29.722  24.121  -3.181  0.00  0.00     0.015 C 
ENDBRANCH   9  11
ENDBRANCH   8   9
ENDBRANCH   2   8
BRANCH   2  13
HETATM   13  C   UNK N   1      30.277  20.956  -6.147  0.00  0.00    -0.023 A 
HETATM   14  C   UNK N   1      30.122  19.770  -6.891  0.00  0.00     0.010 A 
HETATM   15  C   UNK N   1      29.088  19.631  -7.819  0.00  0.00     0.001 A 
HETATM   16  C   UNK N   1      28.186  20.678  -8.019  0.00  0.00     0.000 A 
HETATM   17  C   UNK N   1      28.320  21.861  -7.291  0.00  0.00     0.001 A 
HETATM   18  C   UNK N   1      29.354  21.998  -6.361  0.00  0.00     0.010 A 
ENDBRANCH   2  13
BRANCH   3  19
HETATM   19  C   UNK N   1      33.478  19.779  -4.141  0.00  0.00     0.005 C 
HETATM   20  C   UNK N   1      34.223  18.454  -4.188  0.00  0.00     0.005 C 
ENDBRANCH   3  19
TORSDOF 5
ENDMDL
MODEL 7
REMARK VINA RESULT:      -5.1     12.192     13.923
REMARK  5 active torsions:
REMARK  status: ('A' for Active; 'I' for Inactive)
REMARK    1  A    between atoms: C_4  and  O_1 
REMARK    2  A    between atoms: O_1  and  C_15 
REMARK    3  A    between atoms: C_4  and  C_10 
REMARK    4  A    between atoms: C_5  and  C_9 
REMARK    5  A    between atoms: C_15  and  C_18 
ROOT
HETATM    1  N   UNK N   1      27.347  16.600   4.312  0.00  0.00     0.084 N 
HETATM    2  C   UNK N   1      29.791  17.161   5.947  0.00  0.00     0.104 C 
HETATM    3  C   UNK N   1      28.916  18.298   5.350  0.00  0.00     0.053 C 
HETATM    4  C   UNK N   1      28.863  15.968   6.217  0.00  0.00     0.074 C 
HETATM    5  C   UNK N   1      28.104  17.849   4.121  0.00  0.00     0.279 C 
HETATM    6  C   UNK N   1      28.101  15.519   4.961  0.00  0.00     0.275 C 
HETATM    7  C   UNK N   1      26.078  16.835   4.981  0.00  0.00     0.309 C 
ENDROOT
BRANCH   2   8
HETATM    8  O   UNK N   1      30.335  17.555   7.169  0.00  0.00    -0.305 OA
BRANCH   8   9
HETATM    9  C   UNK N   1      31.468  17.043   7.734  0.00  0.00     0.259 C 
HETATM   10  O   UNK N   1      31.477  15.921   8.221  0.00  0.00    -0.265 OA
BRANCH   9  11
HETATM   11  C   UNK N   1      32.708  17.871   7.779  0.00  0.00     0.106 C 
HETATM   12  C   UNK N   1      33.863  17.099   7.164  0.00  0.00     0.015 C 
ENDBRANCH   9  11
ENDBRANCH   8   9
ENDBRANCH   2   8
BRANCH   2  13
HETATM   13  C   UNK N   1      30.924  16.726   4.996  0.00  0.00    -0.023 A 
HETATM   14  C   UNK N   1      31.635  17.685   4.248  0.00  0.00     0.010 A 
HETATM   15  C   UNK N   1      32.680  17.308   3.402  0.00  0.00     0.001 A 
HETATM   16  C   UNK N   1      33.036  15.963   3.291  0.00  0.00     0.000 A 
HETATM   17  C   UNK N   1      32.345  14.997   4.025  0.00  0.00     0.001 A 
HETATM   18  C   UNK N   1      31.301  15.375   4.872  0.00  0.00     0.010 A 
ENDBRANCH   2  13
BRANCH   3  19
HETATM   19  C   UNK N   1      28.076  19.115   6.353  0.00  0.00     0.005 C 
HETATM   20  C   UNK N   1      27.444  20.380   5.797  0.00  0.00     0.005 C 
ENDBRANCH   3  19
TORSDOF 5
ENDMDL
MODEL 8
REMARK VINA RESULT:      -5.1      3.195      5.538
REMARK  5 active torsions:
REMARK  status: ('A' for Active; 'I' for Inactive)
REMARK    1  A    between atoms: C_4  and  O_1 
REMARK    2  A    between atoms: O_1  and  C_15 
REMARK    3  A    between atoms: C_4  and  C_10 
REMARK    4  A    between atoms: C_5  and  C_9 
REMARK    5  A    between atoms: C_15  and  C_18 
ROOT
HETATM    1  N   UNK N   1      28.737  26.061  -8.824  0.00  0.00     0.084 N 
HETATM    2  C   UNK N   1      26.126  24.950  -7.871  0.00  0.00     0.104 C 
HETATM    3  C   UNK N   1      26.208  26.037  -8.980  0.00  0.00     0.053 C 
HETATM    4  C   UNK N   1      27.406  24.107  -7.966  0.00  0.00     0.074 C 
HETATM    5  C   UNK N   1      27.506  26.863  -8.915  0.00  0.00     0.279 C 
HETATM    6  C   UNK N   1      28.680  24.958  -7.855  0.00  0.00     0.275 C 
HETATM    7  C   UNK N   1      29.177  25.596 -10.129  0.00  0.00     0.309 C 
ENDROOT
BRANCH   2   8
HETATM    8  O   UNK N   1      25.044  24.100  -8.101  0.00  0.00    -0.305 OA
BRANCH   8   9
HETATM    9  C   UNK N   1      25.132  22.774  -8.418  0.00  0.00     0.259 C 
HETATM   10  O   UNK N   1      25.286  22.412  -9.575  0.00  0.00    -0.265 OA
BRANCH   9  11
HETATM   11  C   UNK N   1      25.016  21.750  -7.339  0.00  0.00     0.106 C 
HETATM   12  C   UNK N   1      25.499  20.405  -7.854  0.00  0.00     0.015 C 
ENDBRANCH   9  11
ENDBRANCH   8   9
ENDBRANCH   2   8
BRANCH   2  13
HETATM   13  C   UNK N   1      26.012  25.556  -6.458  0.00  0.00    -0.023 A 
HETATM   14  C   UNK N   1      26.478  24.843  -5.336  0.00  0.00     0.010 A 
HETATM   15  C   UNK N   1      26.405  25.390  -4.054  0.00  0.00     0.001 A 
HETATM   16  C   UNK N   1      25.866  26.664  -3.869  0.00  0.00     0.000 A 
HETATM   17  C   UNK N   1      25.401  27.389  -4.967  0.00  0.00     0.001 A 
HETATM   18  C   UNK N   1      25.476  26.841  -6.251  0.00  0.00     0.010 A 
ENDBRANCH   2  13
BRANCH   3  19
HETATM   19  C   UNK N   1      25.862  25.581 -10.412  0.00  0.00     0.005 C 
HETATM   20  C   UNK N   1      24.539  26.093 -10.957  0.00  0.00     0.005 C 
ENDBRANCH   3  19
TORSDOF 5
ENDMDL
MODEL 9
REMARK VINA RESULT:      -5.0     22.051     24.802
REMARK  5 active torsions:
REMARK  status: ('A' for Active; 'I' for Inactive)
REMARK    1  A    between atoms: C_4  and  O_1 
REMARK    2  A    between atoms: O_1  and  C_15 
REMARK    3  A    between atoms: C_4  and  C_10 
REMARK    4  A    between atoms: C_5  and  C_9 
REMARK    5  A    between atoms: C_15  and  C_18 
ROOT
HETATM    1  N   UNK N   1      34.984  10.441  11.083  0.00  0.00     0.084 N 
HETATM    2  C   UNK N   1      35.069  11.550  13.862  0.00  0.00     0.104 C 
HETATM    3  C   UNK N   1      35.732  12.279  12.659  0.00  0.00     0.053 C 
HETATM    4  C   UNK N   1      33.868  10.768  13.312  0.00  0.00     0.074 C 
HETATM    5  C   UNK N   1      36.083  11.327  11.500  0.00  0.00     0.279 C 
HETATM    6  C   UNK N   1      34.260   9.798  12.188  0.00  0.00     0.275 C 
HETATM    7  C   UNK N   1      34.071  11.108  10.169  0.00  0.00     0.309 C 
ENDROOT
BRANCH   2   8
HETATM    8  O   UNK N   1      34.582  12.476  14.785  0.00  0.00    -0.305 OA
BRANCH   8   9
HETATM    9  C   UNK N   1      35.312  13.064  15.778  0.00  0.00     0.259 C 
HETATM   10  O   UNK N   1      36.220  13.840  15.516  0.00  0.00    -0.265 OA
BRANCH   9  11
HETATM   11  C   UNK N   1      35.014  12.738  17.203  0.00  0.00     0.106 C 
HETATM   12  C   UNK N   1      35.253  13.963  18.069  0.00  0.00     0.015 C 
ENDBRANCH   9  11
ENDBRANCH   8   9
ENDBRANCH   2   8
BRANCH   2  13
HETATM   13  C   UNK N   1      36.035  10.579  14.569  0.00  0.00    -0.023 A 
HETATM   14  C   UNK N   1      35.537   9.554  15.397  0.00  0.00     0.010 A 
HETATM   15  C   UNK N   1      36.399   8.651  16.023  0.00  0.00     0.001 A 
HETATM   16  C   UNK N   1      37.777   8.755  15.830  0.00  0.00     0.000 A 
HETATM   17  C   UNK N   1      38.292   9.762  15.011  0.00  0.00     0.001 A 
HETATM   18  C   UNK N   1      37.428  10.664  14.384  0.00  0.00     0.010 A 
ENDBRANCH   2  13
BRANCH   3  19
HETATM   19  C   UNK N   1      35.045  13.574  12.180  0.00  0.00     0.005 C 
HETATM   20  C   UNK N   1      35.917  14.818  12.195  0.00  0.00     0.005 C 
ENDBRANCH   3  19
TORSDOF 5
ENDMDL
