MODEL 1
REMARK VINA RESULT:      -5.1      0.000      0.000
REMARK  5 active torsions:
REMARK  status: ('A' for Active; 'I' for Inactive)
REMARK    1  A    between atoms: C_2  and  C_13 
REMARK    2  A    between atoms: C_6  and  C_7 
REMARK    3  A    between atoms: C_7  and  N_8 
REMARK    4  A    between atoms: N_8  and  C_9 
REMARK    5  A    between atoms: C_13  and  N_14 
ROOT
HETATM    1  C   UNK N   1      31.439  18.002   8.575  0.00  0.00     0.017 A 
HETATM    2  C   UNK N   1      30.049  17.952   8.428  0.00  0.00    -0.041 A 
HETATM    3  C   UNK N   1      29.500  17.441   7.247  0.00  0.00     0.009 A 
HETATM    4  C   UNK N   1      30.339  16.985   6.223  0.00  0.00     0.001 A 
HETATM    5  C   UNK N   1      31.730  17.039   6.378  0.00  0.00     0.009 A 
HETATM    6  C   UNK N   1      32.281  17.552   7.563  0.00  0.00    -0.040 A 
ENDROOT
BRANCH   6   7
HETATM    7  C   UNK N   1      33.753  17.642   7.803  0.00  0.00     0.159 C 
BRANCH   7   8
HETATM    8  N   UNK N   1      34.103  17.747   9.197  0.00  0.00    -0.376 N 
HETATM    9  H   UNK N   1      33.856  18.554   9.704  0.00  0.00     0.161 HD
BRANCH   8  10
HETATM   10  C   UNK N   1      34.801  16.693   9.842  0.00  0.00     0.066 C 
HETATM   11  C   UNK N   1      35.137  15.458   9.083  0.00  0.00     0.088 C 
HETATM   12  N   UNK N   1      35.144  16.795  11.073  0.00  0.00    -0.389 N 
HETATM   13  H   UNK N   1      34.924  17.609  11.580  0.00  0.00     0.157 HD
ATOM     14  HN  UNK N   1      35.646  16.030  11.527  1.00  0.00     0.157 HD
ENDBRANCH   8  10
ENDBRANCH   7   8
ENDBRANCH   6   7
BRANCH   2  15
HETATM   15  C   UNK N   1      29.141  18.437   9.518  0.00  0.00     0.150 C 
BRANCH  15  16
HETATM   16  N   UNK N   1      27.743  18.417   9.109  0.00  0.00    -0.426 N 
HETATM   17  H   UNK N   1      27.451  18.908   8.263  0.00  0.00     0.150 HD
HETATM   18  H   UNK N   1      27.055  17.912   9.668  0.00  0.00     0.150 HD
ENDBRANCH  15  16
ENDBRANCH   2  15
TORSDOF 5
ENDMDL
MODEL 2
REMARK VINA RESULT:      -5.1      1.269      4.913
REMARK  5 active torsions:
REMARK  status: ('A' for Active; 'I' for Inactive)
REMARK    1  A    between atoms: C_2  and  C_13 
REMARK    2  A    between atoms: C_6  and  C_7 
REMARK    3  A    between atoms: C_7  and  N_8 
REMARK    4  A    between atoms: N_8  and  C_9 
REMARK    5  A    between atoms: C_13  and  N_14 
ROOT
HETATM    1  C   UNK N   1      32.134  17.391   7.620  0.00  0.00     0.017 A 
HETATM    2  C   UNK N   1      33.472  17.587   7.264  0.00  0.00    -0.041 A 
HETATM    3  C   UNK N   1      33.840  17.534   5.915  0.00  0.00     0.009 A 
HETATM    4  C   UNK N   1      32.873  17.285   4.933  0.00  0.00     0.001 A 
HETATM    5  C   UNK N   1      31.535  17.090   5.298  0.00  0.00     0.009 A 
HETATM    6  C   UNK N   1      31.166  17.144   6.652  0.00  0.00    -0.040 A 
ENDROOT
BRANCH   6   7
HETATM    7  C   UNK N   1      29.760  16.946   7.120  0.00  0.00     0.159 C 
BRANCH   7   8
HETATM    8  N   UNK N   1      29.088  18.175   7.454  0.00  0.00    -0.376 N 
HETATM    9  H   UNK N   1      28.905  18.839   6.751  0.00  0.00     0.161 HD
BRANCH   8  10
HETATM   10  C   UNK N   1      28.688  18.434   8.791  0.00  0.00     0.066 C 
HETATM   11  C   UNK N   1      29.718  18.723   9.826  0.00  0.00     0.088 C 
HETATM   12  N   UNK N   1      27.448  18.420   9.117  0.00  0.00    -0.389 N 
HETATM   13  H   UNK N   1      26.762  18.229   8.436  0.00  0.00     0.157 HD
ATOM     14  HN  UNK N   1      27.172  18.608  10.081  1.00  0.00     0.157 HD
ENDBRANCH   8  10
ENDBRANCH   7   8
ENDBRANCH   6   7
BRANCH   2  15
HETATM   15  C   UNK N   1      34.516  17.854   8.307  0.00  0.00     0.150 C 
BRANCH  15  16
HETATM   16  N   UNK N   1      34.164  17.260   9.590  0.00  0.00    -0.426 N 
HETATM   17  H   UNK N   1      33.188  17.065   9.812  0.00  0.00     0.150 HD
HETATM   18  H   UNK N   1      34.895  17.039  10.266  0.00  0.00     0.150 HD
ENDBRANCH  15  16
ENDBRANCH   2  15
TORSDOF 5
ENDMDL
MODEL 3
REMARK VINA RESULT:      -5.1      9.176     11.993
REMARK  5 active torsions:
REMARK  status: ('A' for Active; 'I' for Inactive)
REMARK    1  A    between atoms: C_2  and  C_13 
REMARK    2  A    between atoms: C_6  and  C_7 
REMARK    3  A    between atoms: C_7  and  N_8 
REMARK    4  A    between atoms: N_8  and  C_9 
REMARK    5  A    between atoms: C_13  and  N_14 
ROOT
HETATM    1  C   UNK N   1      22.671  13.407   9.438  0.00  0.00     0.017 A 
HETATM    2  C   UNK N   1      23.285  12.561  10.366  0.00  0.00    -0.041 A 
HETATM    3  C   UNK N   1      22.514  11.970  11.373  0.00  0.00     0.009 A 
HETATM    4  C   UNK N   1      21.139  12.226  11.447  0.00  0.00     0.001 A 
HETATM    5  C   UNK N   1      20.532  13.075  10.513  0.00  0.00     0.009 A 
HETATM    6  C   UNK N   1      21.305  13.668   9.502  0.00  0.00    -0.040 A 
ENDROOT
BRANCH   6   7
HETATM    7  C   UNK N   1      20.731  14.584   8.470  0.00  0.00     0.159 C 
BRANCH   7   8
HETATM    8  N   UNK N   1      19.934  15.647   9.026  0.00  0.00    -0.376 N 
HETATM    9  H   UNK N   1      19.356  15.471   9.804  0.00  0.00     0.161 HD
BRANCH   8  10
HETATM   10  C   UNK N   1      19.976  16.947   8.458  0.00  0.00     0.066 C 
HETATM   11  C   UNK N   1      20.746  17.181   7.205  0.00  0.00     0.088 C 
HETATM   12  N   UNK N   1      19.357  17.923   9.012  0.00  0.00    -0.389 N 
HETATM   13  H   UNK N   1      18.846  17.775   9.841  0.00  0.00     0.157 HD
ATOM     14  HN  UNK N   1      19.395  18.854   8.595  1.00  0.00     0.157 HD
ENDBRANCH   8  10
ENDBRANCH   7   8
ENDBRANCH   6   7
BRANCH   2  15
HETATM   15  C   UNK N   1      24.755  12.279  10.297  0.00  0.00     0.150 C 
BRANCH  15  16
HETATM   16  N   UNK N   1      25.549  13.434  10.697  0.00  0.00    -0.426 N 
HETATM   17  H   UNK N   1      25.262  14.372  10.417  0.00  0.00     0.150 HD
HETATM   18  H   UNK N   1      26.391  13.304  11.258  0.00  0.00     0.150 HD
ENDBRANCH  15  16
ENDBRANCH   2  15
TORSDOF 5
ENDMDL
MODEL 4
REMARK VINA RESULT:      -4.9      2.912      5.412
REMARK  5 active torsions:
REMARK  status: ('A' for Active; 'I' for Inactive)
REMARK    1  A    between atoms: C_2  and  C_13 
REMARK    2  A    between atoms: C_6  and  C_7 
REMARK    3  A    between atoms: C_7  and  N_8 
REMARK    4  A    between atoms: N_8  and  C_9 
REMARK    5  A    between atoms: C_13  and  N_14 
ROOT
HETATM    1  C   UNK N   1      31.363  16.890   5.200  0.00  0.00     0.017 A 
HETATM    2  C   UNK N   1      32.653  17.001   4.671  0.00  0.00    -0.041 A 
HETATM    3  C   UNK N   1      33.717  17.331   5.518  0.00  0.00     0.009 A 
HETATM    4  C   UNK N   1      33.488  17.547   6.882  0.00  0.00     0.001 A 
HETATM    5  C   UNK N   1      32.193  17.434   7.403  0.00  0.00     0.009 A 
HETATM    6  C   UNK N   1      31.124  17.103   6.554  0.00  0.00    -0.040 A 
ENDROOT
BRANCH   6   7
HETATM    7  C   UNK N   1      29.716  16.964   7.035  0.00  0.00     0.159 C 
BRANCH   7   8
HETATM    8  N   UNK N   1      29.120  18.213   7.434  0.00  0.00    -0.376 N 
HETATM    9  H   UNK N   1      28.982  18.925   6.767  0.00  0.00     0.161 HD
BRANCH   8  10
HETATM   10  C   UNK N   1      28.729  18.424   8.782  0.00  0.00     0.066 C 
HETATM   11  C   UNK N   1      29.765  18.701   9.815  0.00  0.00     0.088 C 
HETATM   12  N   UNK N   1      27.494  18.377   9.120  0.00  0.00    -0.389 N 
HETATM   13  H   UNK N   1      26.804  18.194   8.441  0.00  0.00     0.157 HD
ATOM     14  HN  UNK N   1      27.225  18.530  10.092  1.00  0.00     0.157 HD
ENDBRANCH   8  10
ENDBRANCH   7   8
ENDBRANCH   6   7
BRANCH   2  15
HETATM   15  C   UNK N   1      32.910  16.771   3.212  0.00  0.00     0.150 C 
BRANCH  15  16
HETATM   16  N   UNK N   1      31.774  17.172   2.392  0.00  0.00    -0.426 N 
HETATM   17  H   UNK N   1      30.832  17.161   2.783  0.00  0.00     0.150 HD
HETATM   18  H   UNK N   1      31.921  17.464   1.426  0.00  0.00     0.150 HD
ENDBRANCH  15  16
ENDBRANCH   2  15
TORSDOF 5
ENDMDL
MODEL 5
REMARK VINA RESULT:      -4.9     10.303     12.846
REMARK  5 active torsions:
REMARK  status: ('A' for Active; 'I' for Inactive)
REMARK    1  A    between atoms: C_2  and  C_13 
REMARK    2  A    between atoms: C_6  and  C_7 
REMARK    3  A    between atoms: C_7  and  N_8 
REMARK    4  A    between atoms: N_8  and  C_9 
REMARK    5  A    between atoms: C_13  and  N_14 
ROOT
HETATM    1  C   UNK N   1      35.648  11.268  17.474  0.00  0.00     0.017 A 
HETATM    2  C   UNK N   1      35.823  12.269  16.513  0.00  0.00    -0.041 A 
HETATM    3  C   UNK N   1      35.620  13.607  16.869  0.00  0.00     0.009 A 
HETATM    4  C   UNK N   1      35.245  13.937  18.177  0.00  0.00     0.001 A 
HETATM    5  C   UNK N   1      35.072  12.928  19.133  0.00  0.00     0.009 A 
HETATM    6  C   UNK N   1      35.275  11.585  18.776  0.00  0.00    -0.040 A 
ENDROOT
BRANCH   6   7
HETATM    7  C   UNK N   1      35.110  10.454  19.739  0.00  0.00     0.159 C 
BRANCH   7   8
HETATM    8  N   UNK N   1      34.754  10.879  21.069  0.00  0.00    -0.376 N 
HETATM    9  H   UNK N   1      35.395  11.401  21.604  0.00  0.00     0.161 HD
BRANCH   8  10
HETATM   10  C   UNK N   1      33.484  10.549  21.611  0.00  0.00     0.066 C 
HETATM   11  C   UNK N   1      32.767   9.339  21.125  0.00  0.00     0.088 C 
HETATM   12  N   UNK N   1      32.949  11.283  22.515  0.00  0.00    -0.389 N 
HETATM   13  H   UNK N   1      33.419  12.085  22.841  0.00  0.00     0.157 HD
ATOM     14  HN  UNK N   1      32.036  11.036  22.897  1.00  0.00     0.157 HD
ENDBRANCH   8  10
ENDBRANCH   7   8
ENDBRANCH   6   7
BRANCH   2  15
HETATM   15  C   UNK N   1      36.225  11.927  15.109  0.00  0.00     0.150 C 
BRANCH  15  16
HETATM   16  N   UNK N   1      37.178  12.888  14.569  0.00  0.00    -0.426 N 
HETATM   17  H   UNK N   1      37.133  13.867  14.852  0.00  0.00     0.150 HD
HETATM   18  H   UNK N   1      37.892  12.580  13.908  0.00  0.00     0.150 HD
ENDBRANCH  15  16
ENDBRANCH   2  15
TORSDOF 5
ENDMDL
MODEL 6
REMARK VINA RESULT:      -4.8      2.296      3.415
REMARK  5 active torsions:
REMARK  status: ('A' for Active; 'I' for Inactive)
REMARK    1  A    between atoms: C_2  and  C_13 
REMARK    2  A    between atoms: C_6  and  C_7 
REMARK    3  A    between atoms: C_7  and  N_8 
REMARK    4  A    between atoms: N_8  and  C_9 
REMARK    5  A    between atoms: C_13  and  N_14 
ROOT
HETATM    1  C   UNK N   1      33.541  17.549   5.911  0.00  0.00     0.017 A 
HETATM    2  C   UNK N   1      32.541  17.255   4.980  0.00  0.00    -0.041 A 
HETATM    3  C   UNK N   1      31.225  17.070   5.419  0.00  0.00     0.009 A 
HETATM    4  C   UNK N   1      30.917  17.179   6.781  0.00  0.00     0.001 A 
HETATM    5  C   UNK N   1      31.925  17.474   7.707  0.00  0.00     0.009 A 
HETATM    6  C   UNK N   1      33.245  17.660   7.267  0.00  0.00    -0.040 A 
ENDROOT
BRANCH   6   7
HETATM    7  C   UNK N   1      34.375  17.977   8.193  0.00  0.00     0.159 C 
BRANCH   7   8
HETATM    8  N   UNK N   1      34.225  17.394   9.502  0.00  0.00    -0.376 N 
HETATM    9  H   UNK N   1      33.522  17.723  10.107  0.00  0.00     0.161 HD
BRANCH   8  10
HETATM   10  C   UNK N   1      35.086  16.347   9.923  0.00  0.00     0.066 C 
HETATM   11  C   UNK N   1      35.232  15.128   9.080  0.00  0.00     0.088 C 
HETATM   12  N   UNK N   1      35.739  16.439  11.022  0.00  0.00    -0.389 N 
HETATM   13  H   UNK N   1      35.646  17.242  11.584  0.00  0.00     0.157 HD
ATOM     14  HN  UNK N   1      36.354  15.679  11.314  1.00  0.00     0.157 HD
ENDBRANCH   8  10
ENDBRANCH   7   8
ENDBRANCH   6   7
BRANCH   2  15
HETATM   15  C   UNK N   1      32.859  17.135   3.520  0.00  0.00     0.150 C 
BRANCH  15  16
HETATM   16  N   UNK N   1      31.660  17.216   2.695  0.00  0.00    -0.426 N 
HETATM   17  H   UNK N   1      31.573  17.950   1.992  0.00  0.00     0.150 HD
HETATM   18  H   UNK N   1      30.908  16.539   2.821  0.00  0.00     0.150 HD
ENDBRANCH  15  16
ENDBRANCH   2  15
TORSDOF 5
ENDMDL
MODEL 7
REMARK VINA RESULT:      -4.8      2.146      3.042
REMARK  5 active torsions:
REMARK  status: ('A' for Active; 'I' for Inactive)
REMARK    1  A    between atoms: C_2  and  C_13 
REMARK    2  A    between atoms: C_6  and  C_7 
REMARK    3  A    between atoms: C_7  and  N_8 
REMARK    4  A    between atoms: N_8  and  C_9 
REMARK    5  A    between atoms: C_13  and  N_14 
ROOT
HETATM    1  C   UNK N   1      30.131  17.407   7.022  0.00  0.00     0.017 A 
HETATM    2  C   UNK N   1      28.927  18.072   6.774  0.00  0.00    -0.041 A 
HETATM    3  C   UNK N   1      28.180  18.566   7.849  0.00  0.00     0.009 A 
HETATM    4  C   UNK N   1      28.637  18.392   9.161  0.00  0.00     0.001 A 
HETATM    5  C   UNK N   1      29.845  17.725   9.401  0.00  0.00     0.009 A 
HETATM    6  C   UNK N   1      30.595  17.229   8.322  0.00  0.00    -0.040 A 
ENDROOT
BRANCH   6   7
HETATM    7  C   UNK N   1      31.892  16.507   8.497  0.00  0.00     0.159 C 
BRANCH   7   8
HETATM    8  N   UNK N   1      32.962  17.352   8.961  0.00  0.00    -0.376 N 
HETATM    9  H   UNK N   1      33.047  17.551   9.922  0.00  0.00     0.161 HD
BRANCH   8  10
HETATM   10  C   UNK N   1      33.895  17.899   8.042  0.00  0.00     0.066 C 
HETATM   11  C   UNK N   1      33.846  17.491   6.611  0.00  0.00     0.088 C 
HETATM   12  N   UNK N   1      34.779  18.741   8.431  0.00  0.00    -0.389 N 
HETATM   13  H   UNK N   1      34.816  19.015   9.376  0.00  0.00     0.157 HD
ATOM     14  HN  UNK N   1      35.445  19.127   7.761  1.00  0.00     0.157 HD
ENDBRANCH   8  10
ENDBRANCH   7   8
ENDBRANCH   6   7
BRANCH   2  15
HETATM   15  C   UNK N   1      28.427  18.264   5.374  0.00  0.00     0.150 C 
BRANCH  15  16
HETATM   16  N   UNK N   1      29.438  17.912   4.384  0.00  0.00    -0.426 N 
HETATM   17  H   UNK N   1      29.298  18.155   3.403  0.00  0.00     0.150 HD
HETATM   18  H   UNK N   1      30.285  17.423   4.673  0.00  0.00     0.150 HD
ENDBRANCH  15  16
ENDBRANCH   2  15
TORSDOF 5
ENDMDL
MODEL 8
REMARK VINA RESULT:      -4.7      8.625     11.365
REMARK  5 active torsions:
REMARK  status: ('A' for Active; 'I' for Inactive)
REMARK    1  A    between atoms: C_2  and  C_13 
REMARK    2  A    between atoms: C_6  and  C_7 
REMARK    3  A    between atoms: C_7  and  N_8 
REMARK    4  A    between atoms: N_8  and  C_9 
REMARK    5  A    between atoms: C_13  and  N_14 
ROOT
HETATM    1  C   UNK N   1      35.451  11.096  17.641  0.00  0.00     0.017 A 
HETATM    2  C   UNK N   1      35.417  11.329  19.019  0.00  0.00    -0.041 A 
HETATM    3  C   UNK N   1      35.268  12.638  19.492  0.00  0.00     0.009 A 
HETATM    4  C   UNK N   1      35.155  13.702  18.590  0.00  0.00     0.001 A 
HETATM    5  C   UNK N   1      35.190  13.460  17.211  0.00  0.00     0.009 A 
HETATM    6  C   UNK N   1      35.339  12.147  16.735  0.00  0.00    -0.040 A 
ENDROOT
BRANCH   6   7
HETATM    7  C   UNK N   1      35.386  11.809  15.280  0.00  0.00     0.159 C 
BRANCH   7   8
HETATM    8  N   UNK N   1      35.210  12.950  14.419  0.00  0.00    -0.376 N 
HETATM    9  H   UNK N   1      34.327  13.382  14.353  0.00  0.00     0.161 HD
BRANCH   8  10
HETATM   10  C   UNK N   1      36.301  13.456  13.667  0.00  0.00     0.066 C 
HETATM   11  C   UNK N   1      36.971  12.585  12.662  0.00  0.00     0.088 C 
HETATM   12  N   UNK N   1      36.717  14.656  13.843  0.00  0.00    -0.389 N 
HETATM   13  H   UNK N   1      36.278  15.237  14.506  0.00  0.00     0.157 HD
ATOM     14  HN  UNK N   1      37.502  15.009  13.295  1.00  0.00     0.157 HD
ENDBRANCH   8  10
ENDBRANCH   7   8
ENDBRANCH   6   7
BRANCH   2  15
HETATM   15  C   UNK N   1      35.537  10.197  19.995  0.00  0.00     0.150 C 
BRANCH  15  16
HETATM   16  N   UNK N   1      34.867  10.494  21.255  0.00  0.00    -0.426 N 
HETATM   17  H   UNK N   1      34.841  11.451  21.606  0.00  0.00     0.150 HD
HETATM   18  H   UNK N   1      34.425   9.744  21.786  0.00  0.00     0.150 HD
ENDBRANCH  15  16
ENDBRANCH   2  15
TORSDOF 5
ENDMDL
MODEL 9
REMARK VINA RESULT:      -4.7      2.489      4.299
REMARK  5 active torsions:
REMARK  status: ('A' for Active; 'I' for Inactive)
REMARK    1  A    between atoms: C_2  and  C_13 
REMARK    2  A    between atoms: C_6  and  C_7 
REMARK    3  A    between atoms: C_7  and  N_8 
REMARK    4  A    between atoms: N_8  and  C_9 
REMARK    5  A    between atoms: C_13  and  N_14 
ROOT
HETATM    1  C   UNK N   1      30.773  17.031   6.225  0.00  0.00     0.017 A 
HETATM    2  C   UNK N   1      30.875  17.145   4.835  0.00  0.00    -0.041 A 
HETATM    3  C   UNK N   1      32.118  17.427   4.257  0.00  0.00     0.009 A 
HETATM    4  C   UNK N   1      33.247  17.595   5.067  0.00  0.00     0.001 A 
HETATM    5  C   UNK N   1      33.136  17.480   6.459  0.00  0.00     0.009 A 
HETATM    6  C   UNK N   1      31.890  17.196   7.039  0.00  0.00    -0.040 A 
ENDROOT
BRANCH   6   7
HETATM    7  C   UNK N   1      31.691  17.059   8.514  0.00  0.00     0.159 C 
BRANCH   7   8
HETATM    8  N   UNK N   1      30.774  18.024   9.063  0.00  0.00    -0.376 N 
HETATM    9  H   UNK N   1      30.993  18.984   9.024  0.00  0.00     0.161 HD
BRANCH   8  10
HETATM   10  C   UNK N   1      29.558  17.601   9.659  0.00  0.00     0.066 C 
HETATM   11  C   UNK N   1      28.261  18.098   9.121  0.00  0.00     0.088 C 
HETATM   12  N   UNK N   1      29.564  16.794  10.655  0.00  0.00    -0.389 N 
HETATM   13  H   UNK N   1      30.418  16.462  11.014  0.00  0.00     0.157 HD
ATOM     14  HN  UNK N   1      28.682  16.497  11.075  1.00  0.00     0.157 HD
ENDBRANCH   8  10
ENDBRANCH   7   8
ENDBRANCH   6   7
BRANCH   2  15
HETATM   15  C   UNK N   1      29.673  16.967   3.957  0.00  0.00     0.150 C 
BRANCH  15  16
HETATM   16  N   UNK N   1      28.767  18.105   4.042  0.00  0.00    -0.426 N 
HETATM   17  H   UNK N   1      28.197  18.366   3.237  0.00  0.00     0.150 HD
HETATM   18  H   UNK N   1      28.702  18.642   4.907  0.00  0.00     0.150 HD
ENDBRANCH  15  16
ENDBRANCH   2  15
TORSDOF 5
ENDMDL
