REMARK  8 active torsions:
REMARK  status: ('A' for Active; 'I' for Inactive)
REMARK    1  A    between atoms: N_2  and  C_4 
REMARK    2  A    between atoms: N_2  and  C_6 
REMARK    3  A    between atoms: N_3  and  C_5 
REMARK    4  A    between atoms: N_3  and  C_10 
REMARK       I    between atoms: N_3  and  C_12 
REMARK    5  A    between atoms: C_4  and  C_5 
REMARK    6  A    between atoms: C_6  and  C_8 
REMARK    7  A    between atoms: C_8  and  C_11 
REMARK    8  A    between atoms: C_12  and  C_13 
ROOT
HETATM    1  C   UNK N   1       3.295  -0.353  -0.278  0.00  0.00     0.236 C 
HETATM    2  C   UNK N   1       3.993   0.952  -0.666  0.00  0.00     0.044 C 
ENDROOT
BRANCH   1   3
HETATM    3  N   UNK N   1       1.898  -0.187   0.157  0.00  0.00     0.090 N 
HETATM    4  C   UNK N   1       1.144  -1.308  -0.382  0.00  0.00     0.310 C 
BRANCH   3   5
HETATM    5  C   UNK N   1       1.267   1.028  -0.343  0.00  0.00     0.277 C 
BRANCH   5   6
HETATM    6  C   UNK N   1       1.084   1.995   0.814  0.00  0.00     0.068 C 
BRANCH   6   7
HETATM    7  C   UNK N   1       1.297   3.400   0.372  0.00  0.00    -0.057 A 
HETATM    8  C   UNK N   1       0.194   4.228   0.149  0.00  0.00     0.007 A 
HETATM    9  C   UNK N   1       0.382   5.555  -0.248  0.00  0.00     0.001 A 
HETATM   10  C   UNK N   1       1.676   6.059  -0.412  0.00  0.00     0.000 A 
HETATM   11  C   UNK N   1       2.783   5.235  -0.181  0.00  0.00     0.001 A 
HETATM   12  C   UNK N   1       2.594   3.906   0.211  0.00  0.00     0.007 A 
ENDBRANCH   6   7
ENDBRANCH   5   6
ENDBRANCH   3   5
ENDBRANCH   1   3
BRANCH   1  13
HETATM   13  C   UNK N   1       4.080  -0.990   0.862  0.00  0.00     0.167 C 
BRANCH  13  14
HETATM   14  N   UNK N   1       5.121  -1.878   0.374  0.00  0.00    -0.316 N 
HETATM   15  C   UNK N   1       6.406  -1.394   0.253  0.00  0.00     0.224 C 
HETATM   16  O   UNK N   1       7.315  -2.108  -0.142  0.00  0.00    -0.273 OA
BRANCH  14  17
HETATM   17  C   UNK N   1       4.769  -3.256   0.112  0.00  0.00     0.037 A 
HETATM   18  C   UNK N   1       5.740  -4.228  -0.195  0.00  0.00     0.029 A 
HETATM   19  C   UNK N   1       5.381  -5.564  -0.400  0.00  0.00     0.002 A 
HETATM   20  C   UNK N   1       4.043  -5.950  -0.304  0.00  0.00     0.000 A 
HETATM   21  C   UNK N   1       3.065  -5.002  -0.003  0.00  0.00     0.002 A 
HETATM   22  C   UNK N   1       3.426  -3.669   0.209  0.00  0.00     0.029 A 
ENDBRANCH  14  17
BRANCH  15  23
HETATM   23  C   UNK N   1       6.733   0.028   0.619  0.00  0.00     0.099 C 
HETATM   24  C   UNK N   1       7.277   0.782  -0.582  0.00  0.00     0.014 C 
ENDBRANCH  15  23
ENDBRANCH  13  14
ENDBRANCH   1  13
TORSDOF 8
