MODEL 1
REMARK VINA RESULT:      -5.6      0.000      0.000
REMARK  8 active torsions:
REMARK  status: ('A' for Active; 'I' for Inactive)
REMARK    1  A    between atoms: N_2  and  C_4 
REMARK    2  A    between atoms: N_2  and  C_6 
REMARK    3  A    between atoms: N_3  and  C_5 
REMARK    4  A    between atoms: N_3  and  C_10 
REMARK       I    between atoms: N_3  and  C_12 
REMARK    5  A    between atoms: C_4  and  C_5 
REMARK    6  A    between atoms: C_6  and  C_8 
REMARK    7  A    between atoms: C_8  and  C_11 
REMARK    8  A    between atoms: C_12  and  C_13 
ROOT
HETATM    1  C   UNK N   1      26.117  23.581  -7.605  0.00  0.00     0.236 C 
HETATM    2  C   UNK N   1      25.250  22.321  -7.653  0.00  0.00     0.044 C 
ENDROOT
BRANCH   1   3
HETATM    3  N   UNK N   1      25.663  24.663  -8.495  0.00  0.00     0.090 N 
HETATM    4  C   UNK N   1      26.395  24.526  -9.745  0.00  0.00     0.310 C 
BRANCH   3   5
HETATM    5  C   UNK N   1      25.942  25.999  -7.984  0.00  0.00     0.277 C 
BRANCH   5   6
HETATM    6  C   UNK N   1      25.525  26.061  -6.525  0.00  0.00     0.068 C 
BRANCH   6   7
HETATM    7  C   UNK N   1      26.054  27.290  -5.872  0.00  0.00    -0.057 A 
HETATM    8  C   UNK N   1      25.563  27.673  -4.622  0.00  0.00     0.007 A 
HETATM    9  C   UNK N   1      26.066  28.814  -3.990  0.00  0.00     0.001 A 
HETATM   10  C   UNK N   1      27.070  29.568  -4.605  0.00  0.00     0.000 A 
HETATM   11  C   UNK N   1      27.571  29.182  -5.854  0.00  0.00     0.001 A 
HETATM   12  C   UNK N   1      27.063  28.043  -6.487  0.00  0.00     0.007 A 
ENDBRANCH   6   7
ENDBRANCH   5   6
ENDBRANCH   3   5
ENDBRANCH   1   3
BRANCH   1  13
HETATM   13  C   UNK N   1      27.536  23.195  -8.003  0.00  0.00     0.167 C 
BRANCH  13  14
HETATM   14  N   UNK N   1      28.359  22.886  -6.846  0.00  0.00    -0.316 N 
HETATM   15  C   UNK N   1      28.946  21.641  -6.761  0.00  0.00     0.224 C 
HETATM   16  O   UNK N   1      29.655  21.342  -5.812  0.00  0.00    -0.273 OA
BRANCH  14  17
HETATM   17  C   UNK N   1      28.585  23.933  -5.875  0.00  0.00     0.037 A 
HETATM   18  C   UNK N   1      29.480  24.993  -6.116  0.00  0.00     0.029 A 
HETATM   19  C   UNK N   1      29.648  26.019  -5.182  0.00  0.00     0.002 A 
HETATM   20  C   UNK N   1      28.925  26.001  -3.988  0.00  0.00     0.000 A 
HETATM   21  C   UNK N   1      28.035  24.959  -3.728  0.00  0.00     0.002 A 
HETATM   22  C   UNK N   1      27.862  23.938  -4.666  0.00  0.00     0.029 A 
ENDBRANCH  14  17
BRANCH  15  23
HETATM   23  C   UNK N   1      28.743  20.616  -7.843  0.00  0.00     0.099 C 
HETATM   24  C   UNK N   1      29.537  19.355  -7.546  0.00  0.00     0.014 C 
ENDBRANCH  15  23
ENDBRANCH  13  14
ENDBRANCH   1  13
TORSDOF 8
ENDMDL
MODEL 2
REMARK VINA RESULT:      -5.5      2.569      4.397
REMARK  8 active torsions:
REMARK  status: ('A' for Active; 'I' for Inactive)
REMARK    1  A    between atoms: N_2  and  C_4 
REMARK    2  A    between atoms: N_2  and  C_6 
REMARK    3  A    between atoms: N_3  and  C_5 
REMARK    4  A    between atoms: N_3  and  C_10 
REMARK       I    between atoms: N_3  and  C_12 
REMARK    5  A    between atoms: C_4  and  C_5 
REMARK    6  A    between atoms: C_6  and  C_8 
REMARK    7  A    between atoms: C_8  and  C_11 
REMARK    8  A    between atoms: C_12  and  C_13 
ROOT
HETATM    1  C   UNK N   1      31.596  25.074  -4.875  0.00  0.00     0.236 C 
HETATM    2  C   UNK N   1      33.105  24.848  -4.987  0.00  0.00     0.044 C 
ENDROOT
BRANCH   1   3
HETATM    3  N   UNK N   1      31.190  26.489  -4.903  0.00  0.00     0.090 N 
HETATM    4  C   UNK N   1      30.914  26.884  -3.531  0.00  0.00     0.310 C 
BRANCH   3   5
HETATM    5  C   UNK N   1      29.976  26.738  -5.669  0.00  0.00     0.277 C 
BRANCH   5   6
HETATM    6  C   UNK N   1      29.144  27.779  -4.941  0.00  0.00     0.068 C 
BRANCH   6   7
HETATM    7  C   UNK N   1      27.692  27.576  -5.198  0.00  0.00    -0.057 A 
HETATM    8  C   UNK N   1      26.767  27.845  -4.186  0.00  0.00     0.007 A 
HETATM    9  C   UNK N   1      25.400  27.676  -4.423  0.00  0.00     0.001 A 
HETATM   10  C   UNK N   1      24.955  27.247  -5.677  0.00  0.00     0.000 A 
HETATM   11  C   UNK N   1      25.878  26.985  -6.696  0.00  0.00     0.001 A 
HETATM   12  C   UNK N   1      27.246  27.150  -6.457  0.00  0.00     0.007 A 
ENDBRANCH   6   7
ENDBRANCH   5   6
ENDBRANCH   3   5
ENDBRANCH   1   3
BRANCH   1  13
HETATM   13  C   UNK N   1      31.121  24.464  -3.562  0.00  0.00     0.167 C 
BRANCH  13  14
HETATM   14  N   UNK N   1      30.268  23.308  -3.777  0.00  0.00    -0.316 N 
HETATM   15  C   UNK N   1      30.756  22.055  -3.472  0.00  0.00     0.224 C 
HETATM   16  O   UNK N   1      30.071  21.056  -3.626  0.00  0.00    -0.273 OA
BRANCH  14  17
HETATM   17  C   UNK N   1      28.915  23.538  -4.231  0.00  0.00     0.037 A 
HETATM   18  C   UNK N   1      28.516  23.268  -5.554  0.00  0.00     0.029 A 
HETATM   19  C   UNK N   1      27.190  23.456  -5.958  0.00  0.00     0.002 A 
HETATM   20  C   UNK N   1      26.241  23.920  -5.046  0.00  0.00     0.000 A 
HETATM   21  C   UNK N   1      26.616  24.196  -3.731  0.00  0.00     0.002 A 
HETATM   22  C   UNK N   1      27.939  24.000  -3.327  0.00  0.00     0.029 A 
ENDBRANCH  14  17
BRANCH  15  23
HETATM   23  C   UNK N   1      32.146  21.881  -2.924  0.00  0.00     0.099 C 
HETATM   24  C   UNK N   1      32.978  20.995  -3.836  0.00  0.00     0.014 C 
ENDBRANCH  15  23
ENDBRANCH  13  14
ENDBRANCH   1  13
TORSDOF 8
ENDMDL
MODEL 3
REMARK VINA RESULT:      -5.3      2.281      3.684
REMARK  8 active torsions:
REMARK  status: ('A' for Active; 'I' for Inactive)
REMARK    1  A    between atoms: N_2  and  C_4 
REMARK    2  A    between atoms: N_2  and  C_6 
REMARK    3  A    between atoms: N_3  and  C_5 
REMARK    4  A    between atoms: N_3  and  C_10 
REMARK       I    between atoms: N_3  and  C_12 
REMARK    5  A    between atoms: C_4  and  C_5 
REMARK    6  A    between atoms: C_6  and  C_8 
REMARK    7  A    between atoms: C_8  and  C_11 
REMARK    8  A    between atoms: C_12  and  C_13 
ROOT
HETATM    1  C   UNK N   1      28.018  22.798  -6.438  0.00  0.00     0.236 C 
HETATM    2  C   UNK N   1      28.413  21.795  -7.523  0.00  0.00     0.044 C 
ENDROOT
BRANCH   1   3
HETATM    3  N   UNK N   1      26.812  23.584  -6.750  0.00  0.00     0.090 N 
HETATM    4  C   UNK N   1      25.817  22.658  -7.267  0.00  0.00     0.310 C 
BRANCH   3   5
HETATM    5  C   UNK N   1      27.020  24.598  -7.776  0.00  0.00     0.277 C 
BRANCH   5   6
HETATM    6  C   UNK N   1      25.834  25.547  -7.772  0.00  0.00     0.068 C 
BRANCH   6   7
HETATM    7  C   UNK N   1      26.020  26.627  -6.765  0.00  0.00    -0.057 A 
HETATM    8  C   UNK N   1      25.096  26.769  -5.727  0.00  0.00     0.007 A 
HETATM    9  C   UNK N   1      25.270  27.767  -4.764  0.00  0.00     0.001 A 
HETATM   10  C   UNK N   1      26.376  28.620  -4.834  0.00  0.00     0.000 A 
HETATM   11  C   UNK N   1      27.308  28.476  -5.868  0.00  0.00     0.001 A 
HETATM   12  C   UNK N   1      27.130  27.480  -6.833  0.00  0.00     0.007 A 
ENDBRANCH   6   7
ENDBRANCH   5   6
ENDBRANCH   3   5
ENDBRANCH   1   3
BRANCH   1  13
HETATM   13  C   UNK N   1      29.180  23.762  -6.238  0.00  0.00     0.167 C 
BRANCH  13  14
HETATM   14  N   UNK N   1      29.840  23.558  -4.960  0.00  0.00    -0.316 N 
HETATM   15  C   UNK N   1      29.420  24.290  -3.870  0.00  0.00     0.224 C 
HETATM   16  O   UNK N   1      29.938  24.143  -2.773  0.00  0.00    -0.273 OA
BRANCH  14  17
HETATM   17  C   UNK N   1      30.858  22.535  -4.878  0.00  0.00     0.037 A 
HETATM   18  C   UNK N   1      32.218  22.816  -5.111  0.00  0.00     0.029 A 
HETATM   19  C   UNK N   1      33.191  21.820  -4.982  0.00  0.00     0.002 A 
HETATM   20  C   UNK N   1      32.820  20.524  -4.621  0.00  0.00     0.000 A 
HETATM   21  C   UNK N   1      31.477  20.223  -4.388  0.00  0.00     0.002 A 
HETATM   22  C   UNK N   1      30.507  21.221  -4.510  0.00  0.00     0.029 A 
ENDBRANCH  14  17
BRANCH  15  23
HETATM   23  C   UNK N   1      28.298  25.284  -3.993  0.00  0.00     0.099 C 
HETATM   24  C   UNK N   1      27.024  24.738  -3.372  0.00  0.00     0.014 C 
ENDBRANCH  15  23
ENDBRANCH  13  14
ENDBRANCH   1  13
TORSDOF 8
ENDMDL
MODEL 4
REMARK VINA RESULT:      -5.3     12.327     14.825
REMARK  8 active torsions:
REMARK  status: ('A' for Active; 'I' for Inactive)
REMARK    1  A    between atoms: N_2  and  C_4 
REMARK    2  A    between atoms: N_2  and  C_6 
REMARK    3  A    between atoms: N_3  and  C_5 
REMARK    4  A    between atoms: N_3  and  C_10 
REMARK       I    between atoms: N_3  and  C_12 
REMARK    5  A    between atoms: C_4  and  C_5 
REMARK    6  A    between atoms: C_6  and  C_8 
REMARK    7  A    between atoms: C_8  and  C_11 
REMARK    8  A    between atoms: C_12  and  C_13 
ROOT
HETATM    1  C   UNK N   1      28.247  17.056   3.947  0.00  0.00     0.236 C 
HETATM    2  C   UNK N   1      27.475  16.047   3.094  0.00  0.00     0.044 C 
ENDROOT
BRANCH   1   3
HETATM    3  N   UNK N   1      29.645  16.678   4.215  0.00  0.00     0.090 N 
HETATM    4  C   UNK N   1      30.178  16.105   2.989  0.00  0.00     0.310 C 
BRANCH   3   5
HETATM    5  C   UNK N   1      29.791  15.666   5.254  0.00  0.00     0.277 C 
BRANCH   5   6
HETATM    6  C   UNK N   1      31.261  15.300   5.376  0.00  0.00     0.068 C 
BRANCH   6   7
HETATM    7  C   UNK N   1      31.967  16.234   6.294  0.00  0.00    -0.057 A 
HETATM    8  C   UNK N   1      31.529  16.367   7.614  0.00  0.00     0.007 A 
HETATM    9  C   UNK N   1      32.196  17.226   8.492  0.00  0.00     0.001 A 
HETATM   10  C   UNK N   1      33.311  17.946   8.052  0.00  0.00     0.000 A 
HETATM   11  C   UNK N   1      33.758  17.809   6.734  0.00  0.00     0.001 A 
HETATM   12  C   UNK N   1      33.087  16.953   5.855  0.00  0.00     0.007 A 
ENDBRANCH   6   7
ENDBRANCH   5   6
ENDBRANCH   3   5
ENDBRANCH   1   3
BRANCH   1  13
HETATM   13  C   UNK N   1      27.525  17.200   5.281  0.00  0.00     0.167 C 
BRANCH  13  14
HETATM   14  N   UNK N   1      27.169  18.581   5.558  0.00  0.00    -0.316 N 
HETATM   15  C   UNK N   1      27.746  19.213   6.639  0.00  0.00     0.224 C 
HETATM   16  O   UNK N   1      27.485  20.376   6.903  0.00  0.00    -0.273 OA
BRANCH  14  17
HETATM   17  C   UNK N   1      26.280  19.250   4.634  0.00  0.00     0.037 A 
HETATM   18  C   UNK N   1      26.752  20.172   3.681  0.00  0.00     0.029 A 
HETATM   19  C   UNK N   1      25.880  20.774   2.768  0.00  0.00     0.002 A 
HETATM   20  C   UNK N   1      24.519  20.465   2.795  0.00  0.00     0.000 A 
HETATM   21  C   UNK N   1      24.031  19.555   3.733  0.00  0.00     0.002 A 
HETATM   22  C   UNK N   1      24.904  18.950   4.640  0.00  0.00     0.029 A 
ENDBRANCH  14  17
BRANCH  15  23
HETATM   23  C   UNK N   1      28.729  18.492   7.520  0.00  0.00     0.099 C 
HETATM   24  C   UNK N   1      28.129  18.222   8.888  0.00  0.00     0.014 C 
ENDBRANCH  15  23
ENDBRANCH  13  14
ENDBRANCH   1  13
TORSDOF 8
ENDMDL
MODEL 5
REMARK VINA RESULT:      -5.2     21.782     24.212
REMARK  8 active torsions:
REMARK  status: ('A' for Active; 'I' for Inactive)
REMARK    1  A    between atoms: N_2  and  C_4 
REMARK    2  A    between atoms: N_2  and  C_6 
REMARK    3  A    between atoms: N_3  and  C_5 
REMARK    4  A    between atoms: N_3  and  C_10 
REMARK       I    between atoms: N_3  and  C_12 
REMARK    5  A    between atoms: C_4  and  C_5 
REMARK    6  A    between atoms: C_6  and  C_8 
REMARK    7  A    between atoms: C_8  and  C_11 
REMARK    8  A    between atoms: C_12  and  C_13 
ROOT
HETATM    1  C   UNK N   1      35.293  10.974   9.907  0.00  0.00     0.236 C 
HETATM    2  C   UNK N   1      36.319  10.949   8.772  0.00  0.00     0.044 C 
ENDROOT
BRANCH   1   3
HETATM    3  N   UNK N   1      34.152  10.063   9.714  0.00  0.00     0.090 N 
HETATM    4  C   UNK N   1      32.984  10.889   9.451  0.00  0.00     0.310 C 
BRANCH   3   5
HETATM    5  C   UNK N   1      33.843   9.251  10.884  0.00  0.00     0.277 C 
BRANCH   5   6
HETATM    6  C   UNK N   1      35.095   9.123  11.734  0.00  0.00     0.068 C 
BRANCH   6   7
HETATM    7  C   UNK N   1      34.823   9.512  13.144  0.00  0.00    -0.057 A 
HETATM    8  C   UNK N   1      35.587   8.956  14.174  0.00  0.00     0.007 A 
HETATM    9  C   UNK N   1      35.353   9.328  15.500  0.00  0.00     0.001 A 
HETATM   10  C   UNK N   1      34.362  10.268  15.799  0.00  0.00     0.000 A 
HETATM   11  C   UNK N   1      33.601  10.834  14.770  0.00  0.00     0.001 A 
HETATM   12  C   UNK N   1      33.832  10.457  13.443  0.00  0.00     0.007 A 
ENDBRANCH   6   7
ENDBRANCH   5   6
ENDBRANCH   3   5
ENDBRANCH   1   3
BRANCH   1  13
HETATM   13  C   UNK N   1      34.758  12.395  10.031  0.00  0.00     0.167 C 
BRANCH  13  14
HETATM   14  N   UNK N   1      35.749  13.303  10.581  0.00  0.00    -0.316 N 
HETATM   15  C   UNK N   1      36.195  14.352   9.806  0.00  0.00     0.224 C 
HETATM   16  O   UNK N   1      37.019  15.146  10.232  0.00  0.00    -0.273 OA
BRANCH  14  17
HETATM   17  C   UNK N   1      36.164  13.103  11.953  0.00  0.00     0.037 A 
HETATM   18  C   UNK N   1      35.515  13.740  13.028  0.00  0.00     0.029 A 
HETATM   19  C   UNK N   1      35.904  13.497  14.349  0.00  0.00     0.002 A 
HETATM   20  C   UNK N   1      36.952  12.615  14.617  0.00  0.00     0.000 A 
HETATM   21  C   UNK N   1      37.610  11.976  13.566  0.00  0.00     0.002 A 
HETATM   22  C   UNK N   1      37.215  12.213  12.247  0.00  0.00     0.029 A 
ENDBRANCH  14  17
BRANCH  15  23
HETATM   23  C   UNK N   1      35.667  14.560   8.413  0.00  0.00     0.099 C 
HETATM   24  C   UNK N   1      34.781  15.792   8.351  0.00  0.00     0.014 C 
ENDBRANCH  15  23
ENDBRANCH  13  14
ENDBRANCH   1  13
TORSDOF 8
ENDMDL
MODEL 6
REMARK VINA RESULT:      -5.1      3.175      6.902
REMARK  8 active torsions:
REMARK  status: ('A' for Active; 'I' for Inactive)
REMARK    1  A    between atoms: N_2  and  C_4 
REMARK    2  A    between atoms: N_2  and  C_6 
REMARK    3  A    between atoms: N_3  and  C_5 
REMARK    4  A    between atoms: N_3  and  C_10 
REMARK       I    between atoms: N_3  and  C_12 
REMARK    5  A    between atoms: C_4  and  C_5 
REMARK    6  A    between atoms: C_6  and  C_8 
REMARK    7  A    between atoms: C_8  and  C_11 
REMARK    8  A    between atoms: C_12  and  C_13 
ROOT
HETATM    1  C   UNK N   1      29.032  24.833  -3.988  0.00  0.00     0.236 C 
HETATM    2  C   UNK N   1      30.425  25.379  -3.667  0.00  0.00     0.044 C 
ENDROOT
BRANCH   1   3
HETATM    3  N   UNK N   1      28.876  23.389  -3.741  0.00  0.00     0.090 N 
HETATM    4  C   UNK N   1      29.024  23.180  -2.309  0.00  0.00     0.310 C 
BRANCH   3   5
HETATM    5  C   UNK N   1      29.886  22.568  -4.396  0.00  0.00     0.277 C 
BRANCH   5   6
HETATM    6  C   UNK N   1      30.224  21.395  -3.492  0.00  0.00     0.068 C 
BRANCH   6   7
HETATM    7  C   UNK N   1      31.609  20.913  -3.741  0.00  0.00    -0.057 A 
HETATM    8  C   UNK N   1      31.864  20.079  -4.833  0.00  0.00     0.007 A 
HETATM    9  C   UNK N   1      33.164  19.635  -5.088  0.00  0.00     0.001 A 
HETATM   10  C   UNK N   1      34.215  20.034  -4.256  0.00  0.00     0.000 A 
HETATM   11  C   UNK N   1      33.965  20.875  -3.167  0.00  0.00     0.001 A 
HETATM   12  C   UNK N   1      32.663  21.315  -2.909  0.00  0.00     0.007 A 
ENDBRANCH   6   7
ENDBRANCH   5   6
ENDBRANCH   3   5
ENDBRANCH   1   3
BRANCH   1  13
HETATM   13  C   UNK N   1      28.745  25.102  -5.460  0.00  0.00     0.167 C 
BRANCH  13  14
HETATM   14  N   UNK N   1      27.387  25.574  -5.670  0.00  0.00    -0.316 N 
HETATM   15  C   UNK N   1      26.477  24.735  -6.277  0.00  0.00     0.224 C 
HETATM   16  O   UNK N   1      25.322  25.085  -6.463  0.00  0.00    -0.273 OA
BRANCH  14  17
HETATM   17  C   UNK N   1      27.037  26.880  -5.158  0.00  0.00     0.037 A 
HETATM   18  C   UNK N   1      26.225  27.041  -4.019  0.00  0.00     0.029 A 
HETATM   19  C   UNK N   1      25.936  28.313  -3.516  0.00  0.00     0.002 A 
HETATM   20  C   UNK N   1      26.453  29.447  -4.145  0.00  0.00     0.000 A 
HETATM   21  C   UNK N   1      27.257  29.310  -5.276  0.00  0.00     0.002 A 
HETATM   22  C   UNK N   1      27.551  28.037  -5.774  0.00  0.00     0.029 A 
ENDBRANCH  14  17
BRANCH  15  23
HETATM   23  C   UNK N   1      26.876  23.352  -6.716  0.00  0.00     0.099 C 
HETATM   24  C   UNK N   1      25.653  22.467  -6.883  0.00  0.00     0.014 C 
ENDBRANCH  15  23
ENDBRANCH  13  14
ENDBRANCH   1  13
TORSDOF 8
ENDMDL
MODEL 7
REMARK VINA RESULT:      -5.1      1.949      2.870
REMARK  8 active torsions:
REMARK  status: ('A' for Active; 'I' for Inactive)
REMARK    1  A    between atoms: N_2  and  C_4 
REMARK    2  A    between atoms: N_2  and  C_6 
REMARK    3  A    between atoms: N_3  and  C_5 
REMARK    4  A    between atoms: N_3  and  C_10 
REMARK       I    between atoms: N_3  and  C_12 
REMARK    5  A    between atoms: C_4  and  C_5 
REMARK    6  A    between atoms: C_6  and  C_8 
REMARK    7  A    between atoms: C_8  and  C_11 
REMARK    8  A    between atoms: C_12  and  C_13 
ROOT
HETATM    1  C   UNK N   1      27.284  24.431  -4.441  0.00  0.00     0.236 C 
HETATM    2  C   UNK N   1      27.151  23.980  -2.986  0.00  0.00     0.044 C 
ENDROOT
BRANCH   1   3
HETATM    3  N   UNK N   1      26.049  24.297  -5.233  0.00  0.00     0.090 N 
HETATM    4  C   UNK N   1      26.417  23.692  -6.504  0.00  0.00     0.310 C 
BRANCH   3   5
HETATM    5  C   UNK N   1      25.405  25.568  -5.538  0.00  0.00     0.277 C 
BRANCH   5   6
HETATM    6  C   UNK N   1      26.356  26.409  -6.372  0.00  0.00     0.068 C 
BRANCH   6   7
HETATM    7  C   UNK N   1      26.635  27.711  -5.709  0.00  0.00    -0.057 A 
HETATM    8  C   UNK N   1      26.054  27.994  -4.470  0.00  0.00     0.007 A 
HETATM    9  C   UNK N   1      26.325  29.206  -3.829  0.00  0.00     0.001 A 
HETATM   10  C   UNK N   1      27.187  30.134  -4.422  0.00  0.00     0.000 A 
HETATM   11  C   UNK N   1      27.777  29.851  -5.658  0.00  0.00     0.001 A 
HETATM   12  C   UNK N   1      27.502  28.640  -6.302  0.00  0.00     0.007 A 
ENDBRANCH   6   7
ENDBRANCH   5   6
ENDBRANCH   3   5
ENDBRANCH   1   3
BRANCH   1  13
HETATM   13  C   UNK N   1      28.371  23.592  -5.101  0.00  0.00     0.167 C 
BRANCH  13  14
HETATM   14  N   UNK N   1      29.700  24.001  -4.684  0.00  0.00    -0.316 N 
HETATM   15  C   UNK N   1      30.576  23.044  -4.217  0.00  0.00     0.224 C 
HETATM   16  O   UNK N   1      31.708  23.341  -3.866  0.00  0.00    -0.273 OA
BRANCH  14  17
HETATM   17  C   UNK N   1      30.067  25.390  -4.853  0.00  0.00     0.037 A 
HETATM   18  C   UNK N   1      30.065  26.298  -3.777  0.00  0.00     0.029 A 
HETATM   19  C   UNK N   1      30.467  27.626  -3.955  0.00  0.00     0.002 A 
HETATM   20  C   UNK N   1      30.875  28.068  -5.215  0.00  0.00     0.000 A 
HETATM   21  C   UNK N   1      30.883  27.185  -6.294  0.00  0.00     0.002 A 
HETATM   22  C   UNK N   1      30.488  25.857  -6.113  0.00  0.00     0.029 A 
ENDBRANCH  14  17
BRANCH  15  23
HETATM   23  C   UNK N   1      30.169  21.598  -4.140  0.00  0.00     0.099 C 
HETATM   24  C   UNK N   1      30.829  20.792  -5.245  0.00  0.00     0.014 C 
ENDBRANCH  15  23
ENDBRANCH  13  14
ENDBRANCH   1  13
TORSDOF 8
ENDMDL
MODEL 8
REMARK VINA RESULT:      -5.1      2.166      4.046
REMARK  8 active torsions:
REMARK  status: ('A' for Active; 'I' for Inactive)
REMARK    1  A    between atoms: N_2  and  C_4 
REMARK    2  A    between atoms: N_2  and  C_6 
REMARK    3  A    between atoms: N_3  and  C_5 
REMARK    4  A    between atoms: N_3  and  C_10 
REMARK       I    between atoms: N_3  and  C_12 
REMARK    5  A    between atoms: C_4  and  C_5 
REMARK    6  A    between atoms: C_6  and  C_8 
REMARK    7  A    between atoms: C_8  and  C_11 
REMARK    8  A    between atoms: C_12  and  C_13 
ROOT
HETATM    1  C   UNK N   1      27.771  24.110  -5.915  0.00  0.00     0.236 C 
HETATM    2  C   UNK N   1      28.450  24.935  -7.009  0.00  0.00     0.044 C 
ENDROOT
BRANCH   1   3
HETATM    3  N   UNK N   1      26.300  24.187  -5.923  0.00  0.00     0.090 N 
HETATM    4  C   UNK N   1      25.811  23.003  -6.612  0.00  0.00     0.310 C 
BRANCH   3   5
HETATM    5  C   UNK N   1      25.776  25.342  -6.641  0.00  0.00     0.277 C 
BRANCH   5   6
HETATM    6  C   UNK N   1      25.049  26.241  -5.656  0.00  0.00     0.068 C 
BRANCH   6   7
HETATM    7  C   UNK N   1      25.855  27.454  -5.348  0.00  0.00    -0.057 A 
HETATM    8  C   UNK N   1      26.826  27.886  -6.255  0.00  0.00     0.007 A 
HETATM    9  C   UNK N   1      27.576  29.035  -5.985  0.00  0.00     0.001 A 
HETATM   10  C   UNK N   1      27.348  29.759  -4.811  0.00  0.00     0.000 A 
HETATM   11  C   UNK N   1      26.370  29.334  -3.905  0.00  0.00     0.001 A 
HETATM   12  C   UNK N   1      25.624  28.182  -4.173  0.00  0.00     0.007 A 
ENDBRANCH   6   7
ENDBRANCH   5   6
ENDBRANCH   3   5
ENDBRANCH   1   3
BRANCH   1  13
HETATM   13  C   UNK N   1      28.270  24.610  -4.565  0.00  0.00     0.167 C 
BRANCH  13  14
HETATM   14  N   UNK N   1      29.706  24.446  -4.422  0.00  0.00    -0.316 N 
HETATM   15  C   UNK N   1      30.474  25.546  -4.109  0.00  0.00     0.224 C 
HETATM   16  O   UNK N   1      31.684  25.453  -3.969  0.00  0.00    -0.273 OA
BRANCH  14  17
HETATM   17  C   UNK N   1      30.251  23.111  -4.541  0.00  0.00     0.037 A 
HETATM   18  C   UNK N   1      31.005  22.710  -5.660  0.00  0.00     0.029 A 
HETATM   19  C   UNK N   1      31.560  21.429  -5.732  0.00  0.00     0.002 A 
HETATM   20  C   UNK N   1      31.367  20.525  -4.686  0.00  0.00     0.000 A 
HETATM   21  C   UNK N   1      30.621  20.901  -3.569  0.00  0.00     0.002 A 
HETATM   22  C   UNK N   1      30.073  22.184  -3.495  0.00  0.00     0.029 A 
ENDBRANCH  14  17
BRANCH  15  23
HETATM   23  C   UNK N   1      29.844  26.898  -3.916  0.00  0.00     0.099 C 
HETATM   24  C   UNK N   1      30.766  27.999  -4.410  0.00  0.00     0.014 C 
ENDBRANCH  15  23
ENDBRANCH  13  14
ENDBRANCH   1  13
TORSDOF 8
ENDMDL
MODEL 9
REMARK VINA RESULT:      -5.0     16.281     18.626
REMARK  8 active torsions:
REMARK  status: ('A' for Active; 'I' for Inactive)
REMARK    1  A    between atoms: N_2  and  C_4 
REMARK    2  A    between atoms: N_2  and  C_6 
REMARK    3  A    between atoms: N_3  and  C_5 
REMARK    4  A    between atoms: N_3  and  C_10 
REMARK       I    between atoms: N_3  and  C_12 
REMARK    5  A    between atoms: C_4  and  C_5 
REMARK    6  A    between atoms: C_6  and  C_8 
REMARK    7  A    between atoms: C_8  and  C_11 
REMARK    8  A    between atoms: C_12  and  C_13 
ROOT
HETATM    1  C   UNK N   1      34.856  12.905   8.361  0.00  0.00     0.236 C 
HETATM    2  C   UNK N   1      35.988  11.926   8.044  0.00  0.00     0.044 C 
ENDROOT
BRANCH   1   3
HETATM    3  N   UNK N   1      33.638  12.704   7.559  0.00  0.00     0.090 N 
HETATM    4  C   UNK N   1      33.532  11.279   7.289  0.00  0.00     0.310 C 
BRANCH   3   5
HETATM    5  C   UNK N   1      33.665  13.379   6.268  0.00  0.00     0.277 C 
BRANCH   5   6
HETATM    6  C   UNK N   1      32.241  13.721   5.865  0.00  0.00     0.068 C 
BRANCH   6   7
HETATM    7  C   UNK N   1      32.153  15.115   5.352  0.00  0.00    -0.057 A 
HETATM    8  C   UNK N   1      33.323  15.806   5.028  0.00  0.00     0.007 A 
HETATM    9  C   UNK N   1      33.252  17.109   4.527  0.00  0.00     0.001 A 
HETATM   10  C   UNK N   1      32.008  17.719   4.339  0.00  0.00     0.000 A 
HETATM   11  C   UNK N   1      30.834  17.027   4.655  0.00  0.00     0.001 A 
HETATM   12  C   UNK N   1      30.906  15.725   5.161  0.00  0.00     0.007 A 
ENDBRANCH   6   7
ENDBRANCH   5   6
ENDBRANCH   3   5
ENDBRANCH   1   3
BRANCH   1  13
HETATM   13  C   UNK N   1      35.368  14.318   8.109  0.00  0.00     0.167 C 
BRANCH  13  14
HETATM   14  N   UNK N   1      34.907  15.251   9.123  0.00  0.00    -0.316 N 
HETATM   15  C   UNK N   1      35.611  15.352  10.304  0.00  0.00     0.224 C 
HETATM   16  O   UNK N   1      35.266  16.131  11.179  0.00  0.00    -0.273 OA
BRANCH  14  17
HETATM   17  C   UNK N   1      33.770  16.087   8.808  0.00  0.00     0.037 A 
HETATM   18  C   UNK N   1      32.447  15.663   9.034  0.00  0.00     0.029 A 
HETATM   19  C   UNK N   1      31.364  16.506   8.764  0.00  0.00     0.002 A 
HETATM   20  C   UNK N   1      31.587  17.789   8.260  0.00  0.00     0.000 A 
HETATM   21  C   UNK N   1      32.890  18.228   8.027  0.00  0.00     0.002 A 
HETATM   22  C   UNK N   1      33.971  17.387   8.304  0.00  0.00     0.029 A 
ENDBRANCH  14  17
BRANCH  15  23
HETATM   23  C   UNK N   1      36.837  14.516  10.546  0.00  0.00     0.099 C 
HETATM   24  C   UNK N   1      36.691  13.700  11.818  0.00  0.00     0.014 C 
ENDBRANCH  15  23
ENDBRANCH  13  14
ENDBRANCH   1  13
TORSDOF 8
ENDMDL
