MODEL 1
REMARK VINA RESULT:      -6.1      0.000      0.000
REMARK  10 active torsions:
REMARK  status: ('A' for Active; 'I' for Inactive)
REMARK    1  A    between atoms: O_1  and  C_12 
REMARK    2  A    between atoms: O_1  and  C_20 
REMARK    3  A    between atoms: O_3  and  C_16 
REMARK    4  A    between atoms: O_3  and  C_21 
REMARK    5  A    between atoms: O_4  and  C_23 
REMARK    6  A    between atoms: N_5  and  C_13 
REMARK    7  A    between atoms: C_6  and  C_11 
REMARK    8  A    between atoms: C_6  and  C_12 
REMARK    9  A    between atoms: C_13  and  C_16 
REMARK   10  A    between atoms: C_21  and  C_23 
ROOT
HETATM    1  N   UNK N   1      26.774  28.913  -4.140  0.00  0.00     0.090 N 
HETATM    2  C   UNK N   1      26.425  26.594  -5.807  0.00  0.00     0.078 C 
HETATM    3  C   UNK N   1      25.192  27.218  -5.114  0.00  0.00     0.055 C 
HETATM    4  C   UNK N   1      27.427  27.712  -6.185  0.00  0.00     0.055 C 
HETATM    5  C   UNK N   1      25.528  28.158  -3.950  0.00  0.00     0.274 C 
HETATM    6  C   UNK N   1      27.136  29.072  -5.549  0.00  0.00     0.274 C 
ENDROOT
BRANCH   2   7
HETATM    7  C   UNK N   1      27.170  25.601  -4.917  0.00  0.00    -0.040 A 
HETATM    8  C   UNK N   1      26.465  24.903  -3.917  0.00  0.00     0.008 A 
HETATM    9  C   UNK N   1      27.128  24.014  -3.067  0.00  0.00     0.001 A 
HETATM   10  C   UNK N   1      28.499  23.798  -3.214  0.00  0.00     0.000 A 
HETATM   11  C   UNK N   1      29.210  24.475  -4.206  0.00  0.00     0.001 A 
HETATM   12  C   UNK N   1      28.553  25.378  -5.047  0.00  0.00     0.008 A 
ENDBRANCH   2   7
BRANCH   2  13
HETATM   13  C   UNK N   1      25.872  25.815  -7.011  0.00  0.00     0.272 C 
HETATM   14  O   UNK N   1      25.795  26.414  -8.082  0.00  0.00    -0.264 OA
BRANCH  13  15
HETATM   15  O   UNK N   1      25.444  24.522  -6.990  0.00  0.00    -0.321 OA
BRANCH  15  16
HETATM   16  C   UNK N   1      25.918  23.481  -7.755  0.00  0.00     0.174 C 
HETATM   17  C   UNK N   1      25.399  22.170  -7.204  0.00  0.00     0.034 C 
ENDBRANCH  15  16
ENDBRANCH  13  15
ENDBRANCH   2  13
BRANCH   1  18
HETATM   18  C   UNK N   1      26.656  30.222  -3.489  0.00  0.00     0.298 C 
BRANCH  18  19
HETATM   19  C   UNK N   1      27.735  30.490  -2.434  0.00  0.00     0.198 C 
BRANCH  19  20
HETATM   20  O   UNK N   1      27.700  29.526  -1.421  0.00  0.00    -0.387 OA
BRANCH  20  21
HETATM   21  C   UNK N   1      28.705  29.914  -0.533  0.00  0.00     0.193 C 
BRANCH  21  22
HETATM   22  C   UNK N   1      28.101  30.201   0.829  0.00  0.00     0.190 C 
BRANCH  22  23
HETATM   23  O   UNK N   1      27.413  29.074   1.275  0.00  0.00    -0.399 OA
HETATM   24  H   UNK N   1      26.535  28.796   0.968  0.00  0.00     0.209 HD
ENDBRANCH  22  23
ENDBRANCH  21  22
ENDBRANCH  20  21
ENDBRANCH  19  20
ENDBRANCH  18  19
ENDBRANCH   1  18
TORSDOF 10
ENDMDL
MODEL 2
REMARK VINA RESULT:      -5.9      3.135      5.561
REMARK  10 active torsions:
REMARK  status: ('A' for Active; 'I' for Inactive)
REMARK    1  A    between atoms: O_1  and  C_12 
REMARK    2  A    between atoms: O_1  and  C_20 
REMARK    3  A    between atoms: O_3  and  C_16 
REMARK    4  A    between atoms: O_3  and  C_21 
REMARK    5  A    between atoms: O_4  and  C_23 
REMARK    6  A    between atoms: N_5  and  C_13 
REMARK    7  A    between atoms: C_6  and  C_11 
REMARK    8  A    between atoms: C_6  and  C_12 
REMARK    9  A    between atoms: C_13  and  C_16 
REMARK   10  A    between atoms: C_21  and  C_23 
ROOT
HETATM    1  N   UNK N   1      29.155  25.029  -3.909  0.00  0.00     0.090 N 
HETATM    2  C   UNK N   1      26.957  25.778  -5.608  0.00  0.00     0.078 C 
HETATM    3  C   UNK N   1      28.315  25.406  -6.249  0.00  0.00     0.055 C 
HETATM    4  C   UNK N   1      26.735  24.925  -4.336  0.00  0.00     0.055 C 
HETATM    5  C   UNK N   1      29.502  25.434  -5.278  0.00  0.00     0.274 C 
HETATM    6  C   UNK N   1      27.973  24.170  -3.848  0.00  0.00     0.274 C 
ENDROOT
BRANCH   2   7
HETATM    7  C   UNK N   1      26.878  27.245  -5.189  0.00  0.00    -0.040 A 
HETATM    8  C   UNK N   1      27.633  28.207  -5.888  0.00  0.00     0.008 A 
HETATM    9  C   UNK N   1      27.605  29.550  -5.505  0.00  0.00     0.001 A 
HETATM   10  C   UNK N   1      26.812  29.953  -4.429  0.00  0.00     0.000 A 
HETATM   11  C   UNK N   1      26.052  29.013  -3.732  0.00  0.00     0.001 A 
HETATM   12  C   UNK N   1      26.090  27.666  -4.103  0.00  0.00     0.008 A 
ENDBRANCH   2   7
BRANCH   2  13
HETATM   13  C   UNK N   1      25.906  25.550  -6.706  0.00  0.00     0.272 C 
HETATM   14  O   UNK N   1      25.608  26.514  -7.409  0.00  0.00    -0.264 OA
BRANCH  13  15
HETATM   15  O   UNK N   1      25.262  24.376  -6.956  0.00  0.00    -0.321 OA
BRANCH  15  16
HETATM   16  C   UNK N   1      25.544  23.475  -7.957  0.00  0.00     0.174 C 
HETATM   17  C   UNK N   1      25.989  22.163  -7.348  0.00  0.00     0.034 C 
ENDBRANCH  15  16
ENDBRANCH  13  15
ENDBRANCH   2  13
BRANCH   1  18
HETATM   18  C   UNK N   1      30.307  24.364  -3.290  0.00  0.00     0.298 C 
BRANCH  18  19
HETATM   19  C   UNK N   1      29.927  23.247  -2.313  0.00  0.00     0.198 C 
BRANCH  19  20
HETATM   20  O   UNK N   1      31.003  22.381  -2.095  0.00  0.00    -0.387 OA
BRANCH  20  21
HETATM   21  C   UNK N   1      31.511  22.126  -3.370  0.00  0.00     0.193 C 
BRANCH  21  22
HETATM   22  C   UNK N   1      32.763  21.276  -3.261  0.00  0.00     0.190 C 
BRANCH  22  23
HETATM   23  O   UNK N   1      33.034  21.023  -1.917  0.00  0.00    -0.399 OA
HETATM   24  H   UNK N   1      32.745  20.238  -1.426  0.00  0.00     0.209 HD
ENDBRANCH  22  23
ENDBRANCH  21  22
ENDBRANCH  20  21
ENDBRANCH  19  20
ENDBRANCH  18  19
ENDBRANCH   1  18
TORSDOF 10
ENDMDL
MODEL 3
REMARK VINA RESULT:      -5.8     12.143     14.404
REMARK  10 active torsions:
REMARK  status: ('A' for Active; 'I' for Inactive)
REMARK    1  A    between atoms: O_1  and  C_12 
REMARK    2  A    between atoms: O_1  and  C_20 
REMARK    3  A    between atoms: O_3  and  C_16 
REMARK    4  A    between atoms: O_3  and  C_21 
REMARK    5  A    between atoms: O_4  and  C_23 
REMARK    6  A    between atoms: N_5  and  C_13 
REMARK    7  A    between atoms: C_6  and  C_11 
REMARK    8  A    between atoms: C_6  and  C_12 
REMARK    9  A    between atoms: C_13  and  C_16 
REMARK   10  A    between atoms: C_21  and  C_23 
ROOT
HETATM    1  N   UNK N   1      31.018  16.701   5.530  0.00  0.00     0.090 N 
HETATM    2  C   UNK N   1      28.289  16.755   4.620  0.00  0.00     0.078 C 
HETATM    3  C   UNK N   1      29.431  16.720   3.579  0.00  0.00     0.055 C 
HETATM    4  C   UNK N   1      28.703  15.941   5.870  0.00  0.00     0.055 C 
HETATM    5  C   UNK N   1      30.807  17.110   4.135  0.00  0.00     0.274 C 
HETATM    6  C   UNK N   1      30.184  15.565   5.925  0.00  0.00     0.274 C 
ENDROOT
BRANCH   2   7
HETATM    7  C   UNK N   1      27.954  18.169   5.091  0.00  0.00    -0.040 A 
HETATM    8  C   UNK N   1      27.627  19.157   4.142  0.00  0.00     0.008 A 
HETATM    9  C   UNK N   1      27.350  20.466   4.543  0.00  0.00     0.001 A 
HETATM   10  C   UNK N   1      27.382  20.804   5.897  0.00  0.00     0.000 A 
HETATM   11  C   UNK N   1      27.696  19.834   6.851  0.00  0.00     0.001 A 
HETATM   12  C   UNK N   1      27.990  18.528   6.451  0.00  0.00     0.008 A 
ENDBRANCH   2   7
BRANCH   2  13
HETATM   13  C   UNK N   1      27.051  16.202   3.895  0.00  0.00     0.272 C 
HETATM   14  O   UNK N   1      27.214  15.762   2.759  0.00  0.00    -0.264 OA
BRANCH  13  15
HETATM   15  O   UNK N   1      25.785  16.174   4.397  0.00  0.00    -0.321 OA
BRANCH  15  16
HETATM   16  C   UNK N   1      24.676  16.803   3.879  0.00  0.00     0.174 C 
HETATM   17  C   UNK N   1      24.207  17.875   4.839  0.00  0.00     0.034 C 
ENDBRANCH  15  16
ENDBRANCH  13  15
ENDBRANCH   2  13
BRANCH   1  18
HETATM   18  C   UNK N   1      32.437  16.395   5.739  0.00  0.00     0.298 C 
BRANCH  18  19
HETATM   19  C   UNK N   1      33.376  17.566   5.430  0.00  0.00     0.198 C 
BRANCH  19  20
HETATM   20  O   UNK N   1      34.449  17.602   6.326  0.00  0.00    -0.387 OA
BRANCH  20  21
HETATM   21  C   UNK N   1      33.910  17.159   7.535  0.00  0.00     0.193 C 
BRANCH  21  22
HETATM   22  C   UNK N   1      34.637  17.820   8.692  0.00  0.00     0.190 C 
BRANCH  22  23
HETATM   23  O   UNK N   1      35.027  19.104   8.318  0.00  0.00    -0.399 OA
HETATM   24  H   UNK N   1      35.675  19.652   8.788  0.00  0.00     0.209 HD
ENDBRANCH  22  23
ENDBRANCH  21  22
ENDBRANCH  20  21
ENDBRANCH  19  20
ENDBRANCH  18  19
ENDBRANCH   1  18
TORSDOF 10
ENDMDL
MODEL 4
REMARK VINA RESULT:      -5.8     15.446     18.322
REMARK  10 active torsions:
REMARK  status: ('A' for Active; 'I' for Inactive)
REMARK    1  A    between atoms: O_1  and  C_12 
REMARK    2  A    between atoms: O_1  and  C_20 
REMARK    3  A    between atoms: O_3  and  C_16 
REMARK    4  A    between atoms: O_3  and  C_21 
REMARK    5  A    between atoms: O_4  and  C_23 
REMARK    6  A    between atoms: N_5  and  C_13 
REMARK    7  A    between atoms: C_6  and  C_11 
REMARK    8  A    between atoms: C_6  and  C_12 
REMARK    9  A    between atoms: C_13  and  C_16 
REMARK   10  A    between atoms: C_21  and  C_23 
ROOT
HETATM    1  N   UNK N   1      34.624  15.513   8.463  0.00  0.00     0.090 N 
HETATM    2  C   UNK N   1      32.188  17.030   8.264  0.00  0.00     0.078 C 
HETATM    3  C   UNK N   1      32.133  15.581   8.801  0.00  0.00     0.055 C 
HETATM    4  C   UNK N   1      33.516  17.695   8.702  0.00  0.00     0.055 C 
HETATM    5  C   UNK N   1      33.375  14.740   8.480  0.00  0.00     0.274 C 
HETATM    6  C   UNK N   1      34.556  16.729   9.272  0.00  0.00     0.274 C 
ENDROOT
BRANCH   2   7
HETATM    7  C   UNK N   1      32.128  17.103   6.739  0.00  0.00    -0.040 A 
HETATM    8  C   UNK N   1      30.953  16.704   6.072  0.00  0.00     0.008 A 
HETATM    9  C   UNK N   1      30.883  16.728   4.677  0.00  0.00     0.001 A 
HETATM   10  C   UNK N   1      31.978  17.166   3.930  0.00  0.00     0.000 A 
HETATM   11  C   UNK N   1      33.146  17.573   4.576  0.00  0.00     0.001 A 
HETATM   12  C   UNK N   1      33.225  17.534   5.971  0.00  0.00     0.008 A 
ENDBRANCH   2   7
BRANCH   2  13
HETATM   13  C   UNK N   1      30.930  17.722   8.812  0.00  0.00     0.272 C 
HETATM   14  O   UNK N   1      30.930  18.951   8.840  0.00  0.00    -0.264 OA
BRANCH  13  15
HETATM   15  O   UNK N   1      29.821  17.090   9.286  0.00  0.00    -0.321 OA
BRANCH  15  16
HETATM   16  C   UNK N   1      28.525  17.552   9.248  0.00  0.00     0.174 C 
HETATM   17  C   UNK N   1      27.914  17.237   7.900  0.00  0.00     0.034 C 
ENDBRANCH  15  16
ENDBRANCH  13  15
ENDBRANCH   2  13
BRANCH   1  18
HETATM   18  C   UNK N   1      35.732  14.660   8.908  0.00  0.00     0.298 C 
BRANCH  18  19
HETATM   19  C   UNK N   1      36.449  15.177  10.160  0.00  0.00     0.198 C 
BRANCH  19  20
HETATM   20  O   UNK N   1      36.516  14.188  11.146  0.00  0.00    -0.387 OA
BRANCH  20  21
HETATM   21  C   UNK N   1      35.517  14.534  12.058  0.00  0.00     0.193 C 
BRANCH  21  22
HETATM   22  C   UNK N   1      35.841  13.947  13.419  0.00  0.00     0.190 C 
BRANCH  22  23
HETATM   23  O   UNK N   1      36.866  14.686  14.007  0.00  0.00    -0.399 OA
HETATM   24  H   UNK N   1      37.294  14.476  14.853  0.00  0.00     0.209 HD
ENDBRANCH  22  23
ENDBRANCH  21  22
ENDBRANCH  20  21
ENDBRANCH  19  20
ENDBRANCH  18  19
ENDBRANCH   1  18
TORSDOF 10
ENDMDL
MODEL 5
REMARK VINA RESULT:      -5.8     13.391     15.867
REMARK  10 active torsions:
REMARK  status: ('A' for Active; 'I' for Inactive)
REMARK    1  A    between atoms: O_1  and  C_12 
REMARK    2  A    between atoms: O_1  and  C_20 
REMARK    3  A    between atoms: O_3  and  C_16 
REMARK    4  A    between atoms: O_3  and  C_21 
REMARK    5  A    between atoms: O_4  and  C_23 
REMARK    6  A    between atoms: N_5  and  C_13 
REMARK    7  A    between atoms: C_6  and  C_11 
REMARK    8  A    between atoms: C_6  and  C_12 
REMARK    9  A    between atoms: C_13  and  C_16 
REMARK   10  A    between atoms: C_21  and  C_23 
ROOT
HETATM    1  N   UNK N   1      32.714  17.206   6.724  0.00  0.00     0.090 N 
HETATM    2  C   UNK N   1      30.280  16.238   5.533  0.00  0.00     0.078 C 
HETATM    3  C   UNK N   1      31.488  16.563   4.624  0.00  0.00     0.055 C 
HETATM    4  C   UNK N   1      30.786  15.688   6.889  0.00  0.00     0.055 C 
HETATM    5  C   UNK N   1      32.557  17.445   5.283  0.00  0.00     0.274 C 
HETATM    6  C   UNK N   1      32.285  15.868   7.132  0.00  0.00     0.274 C 
ENDROOT
BRANCH   2   7
HETATM    7  C   UNK N   1      29.416  17.461   5.836  0.00  0.00    -0.040 A 
HETATM    8  C   UNK N   1      29.132  17.796   7.174  0.00  0.00     0.008 A 
HETATM    9  C   UNK N   1      28.317  18.889   7.479  0.00  0.00     0.001 A 
HETATM   10  C   UNK N   1      27.786  19.671   6.452  0.00  0.00     0.000 A 
HETATM   11  C   UNK N   1      28.065  19.359   5.120  0.00  0.00     0.001 A 
HETATM   12  C   UNK N   1      28.867  18.256   4.813  0.00  0.00     0.008 A 
ENDBRANCH   2   7
BRANCH   2  13
HETATM   13  C   UNK N   1      29.418  15.246   4.737  0.00  0.00     0.272 C 
HETATM   14  O   UNK N   1      29.690  15.093   3.547  0.00  0.00    -0.264 OA
BRANCH  13  15
HETATM   15  O   UNK N   1      28.368  14.534   5.231  0.00  0.00    -0.321 OA
BRANCH  15  16
HETATM   16  C   UNK N   1      27.040  14.680   4.900  0.00  0.00     0.174 C 
HETATM   17  C   UNK N   1      26.350  15.538   5.937  0.00  0.00     0.034 C 
ENDBRANCH  15  16
ENDBRANCH  13  15
ENDBRANCH   2  13
BRANCH   1  18
HETATM   18  C   UNK N   1      34.111  17.438   7.108  0.00  0.00     0.298 C 
BRANCH  18  19
HETATM   19  C   UNK N   1      34.286  18.487   8.211  0.00  0.00     0.198 C 
BRANCH  19  20
HETATM   20  O   UNK N   1      35.277  18.102   9.119  0.00  0.00    -0.387 OA
BRANCH  20  21
HETATM   21  C   UNK N   1      34.876  16.842   9.564  0.00  0.00     0.193 C 
BRANCH  21  22
HETATM   22  C   UNK N   1      35.446  16.582  10.946  0.00  0.00     0.190 C 
BRANCH  22  23
HETATM   23  O   UNK N   1      36.778  16.189  10.829  0.00  0.00    -0.399 OA
HETATM   24  H   UNK N   1      37.087  15.273  10.755  0.00  0.00     0.209 HD
ENDBRANCH  22  23
ENDBRANCH  21  22
ENDBRANCH  20  21
ENDBRANCH  19  20
ENDBRANCH  18  19
ENDBRANCH   1  18
TORSDOF 10
ENDMDL
MODEL 6
REMARK VINA RESULT:      -5.8     10.264     13.174
REMARK  10 active torsions:
REMARK  status: ('A' for Active; 'I' for Inactive)
REMARK    1  A    between atoms: O_1  and  C_12 
REMARK    2  A    between atoms: O_1  and  C_20 
REMARK    3  A    between atoms: O_3  and  C_16 
REMARK    4  A    between atoms: O_3  and  C_21 
REMARK    5  A    between atoms: O_4  and  C_23 
REMARK    6  A    between atoms: N_5  and  C_13 
REMARK    7  A    between atoms: C_6  and  C_11 
REMARK    8  A    between atoms: C_6  and  C_12 
REMARK    9  A    between atoms: C_13  and  C_16 
REMARK   10  A    between atoms: C_21  and  C_23 
ROOT
HETATM    1  N   UNK N   1      25.439  19.562   3.376  0.00  0.00     0.090 N 
HETATM    2  C   UNK N   1      27.353  18.334   5.140  0.00  0.00     0.078 C 
HETATM    3  C   UNK N   1      27.605  19.774   4.637  0.00  0.00     0.055 C 
HETATM    4  C   UNK N   1      25.832  18.109   5.321  0.00  0.00     0.055 C 
HETATM    5  C   UNK N   1      26.776  20.170   3.408  0.00  0.00     0.274 C 
HETATM    6  C   UNK N   1      24.947  19.192   4.704  0.00  0.00     0.274 C 
ENDROOT
BRANCH   2   7
HETATM    7  C   UNK N   1      27.856  17.267   4.169  0.00  0.00    -0.040 A 
HETATM    8  C   UNK N   1      29.190  17.311   3.722  0.00  0.00     0.008 A 
HETATM    9  C   UNK N   1      29.667  16.368   2.808  0.00  0.00     0.001 A 
HETATM   10  C   UNK N   1      28.823  15.359   2.340  0.00  0.00     0.000 A 
HETATM   11  C   UNK N   1      27.500  15.297   2.781  0.00  0.00     0.001 A 
HETATM   12  C   UNK N   1      27.015  16.249   3.683  0.00  0.00     0.008 A 
ENDBRANCH   2   7
BRANCH   2  13
HETATM   13  C   UNK N   1      28.165  18.201   6.438  0.00  0.00     0.272 C 
HETATM   14  O   UNK N   1      28.297  19.212   7.126  0.00  0.00    -0.264 OA
BRANCH  13  15
HETATM   15  O   UNK N   1      28.766  17.063   6.883  0.00  0.00    -0.321 OA
BRANCH  15  16
HETATM   16  C   UNK N   1      29.909  16.975   7.646  0.00  0.00     0.174 C 
HETATM   17  C   UNK N   1      31.125  17.054   6.748  0.00  0.00     0.034 C 
ENDBRANCH  15  16
ENDBRANCH  13  15
ENDBRANCH   2  13
BRANCH   1  18
HETATM   18  C   UNK N   1      24.502  20.477   2.717  0.00  0.00     0.298 C 
BRANCH  18  19
HETATM   19  C   UNK N   1      23.029  20.186   3.024  0.00  0.00     0.198 C 
BRANCH  19  20
HETATM   20  O   UNK N   1      22.225  21.292   2.731  0.00  0.00    -0.387 OA
BRANCH  20  21
HETATM   21  C   UNK N   1      21.002  20.742   2.344  0.00  0.00     0.193 C 
BRANCH  21  22
HETATM   22  C   UNK N   1      20.704  21.120   0.905  0.00  0.00     0.190 C 
BRANCH  22  23
HETATM   23  O   UNK N   1      20.701  19.970   0.117  0.00  0.00    -0.399 OA
HETATM   24  H   UNK N   1      20.070  19.238   0.197  0.00  0.00     0.209 HD
ENDBRANCH  22  23
ENDBRANCH  21  22
ENDBRANCH  20  21
ENDBRANCH  19  20
ENDBRANCH  18  19
ENDBRANCH   1  18
TORSDOF 10
ENDMDL
MODEL 7
REMARK VINA RESULT:      -5.6     20.718     23.471
REMARK  10 active torsions:
REMARK  status: ('A' for Active; 'I' for Inactive)
REMARK    1  A    between atoms: O_1  and  C_12 
REMARK    2  A    between atoms: O_1  and  C_20 
REMARK    3  A    between atoms: O_3  and  C_16 
REMARK    4  A    between atoms: O_3  and  C_21 
REMARK    5  A    between atoms: O_4  and  C_23 
REMARK    6  A    between atoms: N_5  and  C_13 
REMARK    7  A    between atoms: C_6  and  C_11 
REMARK    8  A    between atoms: C_6  and  C_12 
REMARK    9  A    between atoms: C_13  and  C_16 
REMARK   10  A    between atoms: C_21  and  C_23 
ROOT
HETATM    1  N   UNK N   1      36.287  13.892  10.978  0.00  0.00     0.090 N 
HETATM    2  C   UNK N   1      36.423  11.133  11.784  0.00  0.00     0.078 C 
HETATM    3  C   UNK N   1      35.545  11.523  10.572  0.00  0.00     0.055 C 
HETATM    4  C   UNK N   1      37.670  12.047  11.835  0.00  0.00     0.055 C 
HETATM    5  C   UNK N   1      35.213  13.018  10.487  0.00  0.00     0.274 C 
HETATM    6  C   UNK N   1      37.608  13.266  10.913  0.00  0.00     0.274 C 
ENDROOT
BRANCH   2   7
HETATM    7  C   UNK N   1      35.696  11.283  13.119  0.00  0.00    -0.040 A 
HETATM    8  C   UNK N   1      34.419  10.712  13.282  0.00  0.00     0.008 A 
HETATM    9  C   UNK N   1      33.718  10.863  14.481  0.00  0.00     0.001 A 
HETATM   10  C   UNK N   1      34.288  11.574  15.538  0.00  0.00     0.000 A 
HETATM   11  C   UNK N   1      35.557  12.139  15.396  0.00  0.00     0.001 A 
HETATM   12  C   UNK N   1      36.254  12.003  14.192  0.00  0.00     0.008 A 
ENDBRANCH   2   7
BRANCH   2  13
HETATM   13  C   UNK N   1      36.746   9.642  11.596  0.00  0.00     0.272 C 
HETATM   14  O   UNK N   1      37.543   9.135  12.383  0.00  0.00    -0.264 OA
BRANCH  13  15
HETATM   15  O   UNK N   1      36.238   8.837  10.622  0.00  0.00    -0.321 OA
BRANCH  15  16
HETATM   16  C   UNK N   1      35.808   7.537  10.763  0.00  0.00     0.174 C 
HETATM   17  C   UNK N   1      34.622   7.495  11.701  0.00  0.00     0.034 C 
ENDBRANCH  15  16
ENDBRANCH  13  15
ENDBRANCH   2  13
BRANCH   1  18
HETATM   18  C   UNK N   1      36.276  15.150  10.225  0.00  0.00     0.298 C 
BRANCH  18  19
HETATM   19  C   UNK N   1      35.532  16.290  10.931  0.00  0.00     0.198 C 
BRANCH  19  20
HETATM   20  O   UNK N   1      35.527  17.449  10.149  0.00  0.00    -0.387 OA
BRANCH  20  21
HETATM   21  C   UNK N   1      34.470  17.264   9.257  0.00  0.00     0.193 C 
BRANCH  21  22
HETATM   22  C   UNK N   1      34.503  18.347   8.194  0.00  0.00     0.190 C 
BRANCH  22  23
HETATM   23  O   UNK N   1      35.415  19.333   8.569  0.00  0.00    -0.399 OA
HETATM   24  H   UNK N   1      36.337  19.385   8.272  0.00  0.00     0.209 HD
ENDBRANCH  22  23
ENDBRANCH  21  22
ENDBRANCH  20  21
ENDBRANCH  19  20
ENDBRANCH  18  19
ENDBRANCH   1  18
TORSDOF 10
ENDMDL
MODEL 8
REMARK VINA RESULT:      -5.6     14.489     17.029
REMARK  10 active torsions:
REMARK  status: ('A' for Active; 'I' for Inactive)
REMARK    1  A    between atoms: O_1  and  C_12 
REMARK    2  A    between atoms: O_1  and  C_20 
REMARK    3  A    between atoms: O_3  and  C_16 
REMARK    4  A    between atoms: O_3  and  C_21 
REMARK    5  A    between atoms: O_4  and  C_23 
REMARK    6  A    between atoms: N_5  and  C_13 
REMARK    7  A    between atoms: C_6  and  C_11 
REMARK    8  A    between atoms: C_6  and  C_12 
REMARK    9  A    between atoms: C_13  and  C_16 
REMARK   10  A    between atoms: C_21  and  C_23 
ROOT
HETATM    1  N   UNK N   1      21.879  17.170   5.400  0.00  0.00     0.090 N 
HETATM    2  C   UNK N   1      20.895  15.249   7.302  0.00  0.00     0.078 C 
HETATM    3  C   UNK N   1      22.420  15.452   7.156  0.00  0.00     0.055 C 
HETATM    4  C   UNK N   1      20.168  16.596   7.071  0.00  0.00     0.055 C 
HETATM    5  C   UNK N   1      22.843  16.163   5.864  0.00  0.00     0.274 C 
HETATM    6  C   UNK N   1      21.044  17.701   6.478  0.00  0.00     0.274 C 
ENDROOT
BRANCH   2   7
HETATM    7  C   UNK N   1      20.327  14.250   6.294  0.00  0.00    -0.040 A 
HETATM    8  C   UNK N   1      19.388  14.687   5.340  0.00  0.00     0.008 A 
HETATM    9  C   UNK N   1      18.828  13.788   4.428  0.00  0.00     0.001 A 
HETATM   10  C   UNK N   1      19.210  12.445   4.447  0.00  0.00     0.000 A 
HETATM   11  C   UNK N   1      20.146  11.999   5.381  0.00  0.00     0.001 A 
HETATM   12  C   UNK N   1      20.695  12.892   6.305  0.00  0.00     0.008 A 
ENDBRANCH   2   7
BRANCH   2  13
HETATM   13  C   UNK N   1      20.689  14.659   8.706  0.00  0.00     0.272 C 
HETATM   14  O   UNK N   1      19.532  14.554   9.109  0.00  0.00    -0.264 OA
BRANCH  13  15
HETATM   15  O   UNK N   1      21.680  14.258   9.550  0.00  0.00    -0.321 OA
BRANCH  15  16
HETATM   16  C   UNK N   1      21.762  13.057  10.219  0.00  0.00     0.174 C 
HETATM   17  C   UNK N   1      22.662  12.112   9.453  0.00  0.00     0.034 C 
ENDBRANCH  15  16
ENDBRANCH  13  15
ENDBRANCH   2  13
BRANCH   1  18
HETATM   18  C   UNK N   1      22.596  18.256   4.723  0.00  0.00     0.298 C 
BRANCH  18  19
HETATM   19  C   UNK N   1      21.851  18.833   3.514  0.00  0.00     0.198 C 
BRANCH  19  20
HETATM   20  O   UNK N   1      21.241  20.050   3.832  0.00  0.00    -0.387 OA
BRANCH  20  21
HETATM   21  C   UNK N   1      20.754  20.527   2.614  0.00  0.00     0.193 C 
BRANCH  21  22
HETATM   22  C   UNK N   1      20.707  19.395   1.604  0.00  0.00     0.190 C 
BRANCH  22  23
HETATM   23  O   UNK N   1      20.670  19.928   0.317  0.00  0.00    -0.399 OA
HETATM   24  H   UNK N   1      19.912  19.882  -0.287  0.00  0.00     0.209 HD
ENDBRANCH  22  23
ENDBRANCH  21  22
ENDBRANCH  20  21
ENDBRANCH  19  20
ENDBRANCH  18  19
ENDBRANCH   1  18
TORSDOF 10
ENDMDL
MODEL 9
REMARK VINA RESULT:      -5.5     14.962     17.530
REMARK  10 active torsions:
REMARK  status: ('A' for Active; 'I' for Inactive)
REMARK    1  A    between atoms: O_1  and  C_12 
REMARK    2  A    between atoms: O_1  and  C_20 
REMARK    3  A    between atoms: O_3  and  C_16 
REMARK    4  A    between atoms: O_3  and  C_21 
REMARK    5  A    between atoms: O_4  and  C_23 
REMARK    6  A    between atoms: N_5  and  C_13 
REMARK    7  A    between atoms: C_6  and  C_11 
REMARK    8  A    between atoms: C_6  and  C_12 
REMARK    9  A    between atoms: C_13  and  C_16 
REMARK   10  A    between atoms: C_21  and  C_23 
ROOT
HETATM    1  N   UNK N   1      33.519  16.957   8.813  0.00  0.00     0.090 N 
HETATM    2  C   UNK N   1      31.445  16.465   6.880  0.00  0.00     0.078 C 
HETATM    3  C   UNK N   1      32.570  17.470   6.541  0.00  0.00     0.055 C 
HETATM    4  C   UNK N   1      32.017  15.322   7.753  0.00  0.00     0.055 C 
HETATM    5  C   UNK N   1      33.364  17.966   7.756  0.00  0.00     0.274 C 
HETATM    6  C   UNK N   1      33.416  15.585   8.313  0.00  0.00     0.274 C 
ENDROOT
BRANCH   2   7
HETATM    7  C   UNK N   1      30.296  17.099   7.662  0.00  0.00    -0.040 A 
HETATM    8  C   UNK N   1      29.356  17.901   6.986  0.00  0.00     0.008 A 
HETATM    9  C   UNK N   1      28.314  18.520   7.682  0.00  0.00     0.001 A 
HETATM   10  C   UNK N   1      28.189  18.335   9.060  0.00  0.00     0.000 A 
HETATM   11  C   UNK N   1      29.107  17.537   9.744  0.00  0.00     0.001 A 
HETATM   12  C   UNK N   1      30.159  16.929   9.052  0.00  0.00     0.008 A 
ENDBRANCH   2   7
BRANCH   2  13
HETATM   13  C   UNK N   1      30.884  16.000   5.527  0.00  0.00     0.272 C 
HETATM   14  O   UNK N   1      30.315  14.911   5.498  0.00  0.00    -0.264 OA
BRANCH  13  15
HETATM   15  O   UNK N   1      30.980  16.683   4.352  0.00  0.00    -0.321 OA
BRANCH  15  16
HETATM   16  C   UNK N   1      31.447  16.201   3.150  0.00  0.00     0.174 C 
HETATM   17  C   UNK N   1      32.939  16.434   3.056  0.00  0.00     0.034 C 
ENDBRANCH  15  16
ENDBRANCH  13  15
ENDBRANCH   2  13
BRANCH   1  18
HETATM   18  C   UNK N   1      34.800  17.160   9.497  0.00  0.00     0.298 C 
BRANCH  18  19
HETATM   19  C   UNK N   1      35.397  15.879  10.091  0.00  0.00     0.198 C 
BRANCH  19  20
HETATM   20  O   UNK N   1      34.995  15.705  11.419  0.00  0.00    -0.387 OA
BRANCH  20  21
HETATM   21  C   UNK N   1      36.077  15.070  12.032  0.00  0.00     0.193 C 
BRANCH  21  22
HETATM   22  C   UNK N   1      35.572  13.983  12.962  0.00  0.00     0.190 C 
BRANCH  22  23
HETATM   23  O   UNK N   1      34.371  13.476  12.470  0.00  0.00    -0.399 OA
HETATM   24  H   UNK N   1      34.288  12.836  11.745  0.00  0.00     0.209 HD
ENDBRANCH  22  23
ENDBRANCH  21  22
ENDBRANCH  20  21
ENDBRANCH  19  20
ENDBRANCH  18  19
ENDBRANCH   1  18
TORSDOF 10
ENDMDL
