REMARK  2 active torsions:
REMARK  status: ('A' for Active; 'I' for Inactive)
REMARK    1  A    between atoms: N_1  and  C_2 
REMARK    2  A    between atoms: C_2  and  C_8 
ROOT
HETATM    1  C   UNK N   1       2.293   0.200  -0.374  0.00  0.00     0.051 C 
HETATM    2  C   UNK N   1       2.710  -1.056  -1.169  0.00  0.00     0.035 C 
HETATM    3  C   UNK N   1       1.551  -0.167   0.926  0.00  0.00     0.035 C 
HETATM    4  C   UNK N   1       2.730  -2.318  -0.309  0.00  0.00     0.003 C 
HETATM    5  C   UNK N   1       0.580  -1.323   0.686  0.00  0.00     0.003 C 
HETATM    6  C   UNK N   1       1.328  -2.596   0.254  0.00  0.00     0.000 C 
ENDROOT
BRANCH   1   7
HETATM    7  N   UNK N   1       1.385   0.966  -1.212  0.00  0.00    -0.418 N 
HETATM    8  H   UNK N   1       1.532   1.787  -1.800  0.00  0.00     0.151 HD
HETATM    9  H   UNK N   1       0.425   0.621  -1.212  0.00  0.00     0.151 HD
ENDBRANCH   1   7
BRANCH   1  10
HETATM   10  C   UNK N   1       3.530   1.013  -0.042  0.00  0.00    -0.031 A 
HETATM   11  C   UNK N   1       4.568   0.449   0.716  0.00  0.00     0.010 A 
HETATM   12  C   UNK N   1       5.727   1.182   0.993  0.00  0.00     0.001 A 
HETATM   13  C   UNK N   1       5.856   2.490   0.519  0.00  0.00     0.000 A 
HETATM   14  C   UNK N   1       4.828   3.067  -0.229  0.00  0.00     0.001 A 
HETATM   15  C   UNK N   1       3.671   2.335  -0.511  0.00  0.00     0.010 A 
ENDBRANCH   1  10
TORSDOF 2
