MODEL 1
REMARK VINA RESULT:      -5.6      0.000      0.000
REMARK  2 active torsions:
REMARK  status: ('A' for Active; 'I' for Inactive)
REMARK    1  A    between atoms: N_1  and  C_2 
REMARK    2  A    between atoms: C_2  and  C_8 
ROOT
HETATM    1  C   UNK N   1      35.152  11.813  15.171  0.00  0.00     0.051 C 
HETATM    2  C   UNK N   1      36.373  10.973  14.739  0.00  0.00     0.035 C 
HETATM    3  C   UNK N   1      33.824  11.108  14.831  0.00  0.00     0.035 C 
HETATM    4  C   UNK N   1      36.030   9.500  14.527  0.00  0.00     0.003 C 
HETATM    5  C   UNK N   1      33.899  10.452  13.452  0.00  0.00     0.003 C 
HETATM    6  C   UNK N   1      34.979   9.357  13.416  0.00  0.00     0.000 C 
ENDROOT
BRANCH   1   7
HETATM    7  N   UNK N   1      35.200  13.065  14.434  0.00  0.00    -0.418 N 
HETATM    8  H   UNK N   1      35.468  13.279  13.473  0.00  0.00     0.151 HD
HETATM    9  H   UNK N   1      34.916  13.881  14.977  0.00  0.00     0.151 HD
ENDBRANCH   1   7
BRANCH   1  10
HETATM   10  C   UNK N   1      35.226  12.067  16.665  0.00  0.00    -0.031 A 
HETATM   11  C   UNK N   1      35.135  13.374  17.168  0.00  0.00     0.010 A 
HETATM   12  C   UNK N   1      35.165  13.610  18.546  0.00  0.00     0.001 A 
HETATM   13  C   UNK N   1      35.292  12.540  19.436  0.00  0.00     0.000 A 
HETATM   14  C   UNK N   1      35.392  11.235  18.949  0.00  0.00     0.001 A 
HETATM   15  C   UNK N   1      35.358  10.996  17.572  0.00  0.00     0.010 A 
ENDBRANCH   1  10
TORSDOF 2
ENDMDL
MODEL 2
REMARK VINA RESULT:      -5.4     12.066     13.982
REMARK  2 active torsions:
REMARK  status: ('A' for Active; 'I' for Inactive)
REMARK    1  A    between atoms: N_1  and  C_2 
REMARK    2  A    between atoms: C_2  and  C_8 
ROOT
HETATM    1  C   UNK N   1      28.470  17.887   7.403  0.00  0.00     0.051 C 
HETATM    2  C   UNK N   1      29.401  16.875   6.701  0.00  0.00     0.035 C 
HETATM    3  C   UNK N   1      29.210  18.677   8.500  0.00  0.00     0.035 C 
HETATM    4  C   UNK N   1      30.880  17.200   6.898  0.00  0.00     0.003 C 
HETATM    5  C   UNK N   1      30.139  17.759   9.294  0.00  0.00     0.003 C 
HETATM    6  C   UNK N   1      31.235  17.165   8.392  0.00  0.00     0.000 C 
ENDROOT
BRANCH   1   7
HETATM    7  N   UNK N   1      27.399  17.132   8.033  0.00  0.00    -0.418 N 
HETATM    8  H   UNK N   1      26.445  17.389   8.287  0.00  0.00     0.151 HD
HETATM    9  H   UNK N   1      27.646  16.170   8.264  0.00  0.00     0.151 HD
ENDBRANCH   1   7
BRANCH   1  10
HETATM   10  C   UNK N   1      27.912  18.849   6.371  0.00  0.00    -0.031 A 
HETATM   11  C   UNK N   1      27.487  20.131   6.753  0.00  0.00     0.010 A 
HETATM   12  C   UNK N   1      27.006  21.035   5.799  0.00  0.00     0.001 A 
HETATM   13  C   UNK N   1      26.942  20.663   4.454  0.00  0.00     0.000 A 
HETATM   14  C   UNK N   1      27.354  19.388   4.061  0.00  0.00     0.001 A 
HETATM   15  C   UNK N   1      27.838  18.485   5.011  0.00  0.00     0.010 A 
ENDBRANCH   1  10
TORSDOF 2
ENDMDL
MODEL 3
REMARK VINA RESULT:      -5.4     10.917     11.867
REMARK  2 active torsions:
REMARK  status: ('A' for Active; 'I' for Inactive)
REMARK    1  A    between atoms: N_1  and  C_2 
REMARK    2  A    between atoms: C_2  and  C_8 
ROOT
HETATM    1  C   UNK N   1      31.545  16.637   6.780  0.00  0.00     0.051 C 
HETATM    2  C   UNK N   1      31.031  16.500   5.331  0.00  0.00     0.035 C 
HETATM    3  C   UNK N   1      32.808  17.517   6.858  0.00  0.00     0.035 C 
HETATM    4  C   UNK N   1      31.564  17.597   4.411  0.00  0.00     0.003 C 
HETATM    5  C   UNK N   1      33.754  17.209   5.697  0.00  0.00     0.003 C 
HETATM    6  C   UNK N   1      33.097  17.532   4.344  0.00  0.00     0.000 C 
ENDROOT
BRANCH   1   7
HETATM    7  N   UNK N   1      31.893  15.305   7.248  0.00  0.00    -0.418 N 
HETATM    8  H   UNK N   1      31.589  14.379   6.947  0.00  0.00     0.151 HD
HETATM    9  H   UNK N   1      32.562  15.294   8.018  0.00  0.00     0.151 HD
ENDBRANCH   1   7
BRANCH   1  10
HETATM   10  C   UNK N   1      30.451  17.239   7.642  0.00  0.00    -0.031 A 
HETATM   11  C   UNK N   1      30.778  18.008   8.770  0.00  0.00     0.010 A 
HETATM   12  C   UNK N   1      29.774  18.596   9.546  0.00  0.00     0.001 A 
HETATM   13  C   UNK N   1      28.431  18.415   9.205  0.00  0.00     0.000 A 
HETATM   14  C   UNK N   1      28.091  17.646   8.090  0.00  0.00     0.001 A 
HETATM   15  C   UNK N   1      29.092  17.061   7.310  0.00  0.00     0.010 A 
ENDBRANCH   1  10
TORSDOF 2
ENDMDL
MODEL 4
REMARK VINA RESULT:      -5.1     26.188     27.916
REMARK  2 active torsions:
REMARK  status: ('A' for Active; 'I' for Inactive)
REMARK    1  A    between atoms: N_1  and  C_2 
REMARK    2  A    between atoms: C_2  and  C_8 
ROOT
HETATM    1  C   UNK N   1      26.781  25.723  -5.610  0.00  0.00     0.051 C 
HETATM    2  C   UNK N   1      26.274  27.101  -6.088  0.00  0.00     0.035 C 
HETATM    3  C   UNK N   1      26.346  25.426  -4.162  0.00  0.00     0.035 C 
HETATM    4  C   UNK N   1      25.111  27.625  -5.248  0.00  0.00     0.003 C 
HETATM    5  C   UNK N   1      26.479  26.675  -3.291  0.00  0.00     0.003 C 
HETATM    6  C   UNK N   1      25.552  27.799  -3.787  0.00  0.00     0.000 C 
ENDROOT
BRANCH   1   7
HETATM    7  N   UNK N   1      28.234  25.755  -5.649  0.00  0.00    -0.418 N 
HETATM    8  H   UNK N   1      28.939  25.409  -4.997  0.00  0.00     0.151 HD
HETATM    9  H   UNK N   1      28.620  26.205  -6.479  0.00  0.00     0.151 HD
ENDBRANCH   1   7
BRANCH   1  10
HETATM   10  C   UNK N   1      26.243  24.646  -6.534  0.00  0.00    -0.031 A 
HETATM   11  C   UNK N   1      26.096  23.327  -6.077  0.00  0.00     0.010 A 
HETATM   12  C   UNK N   1      25.566  22.339  -6.913  0.00  0.00     0.001 A 
HETATM   13  C   UNK N   1      25.183  22.660  -8.218  0.00  0.00     0.000 A 
HETATM   14  C   UNK N   1      25.332  23.965  -8.689  0.00  0.00     0.001 A 
HETATM   15  C   UNK N   1      25.857  24.956  -7.854  0.00  0.00     0.010 A 
ENDBRANCH   1  10
TORSDOF 2
ENDMDL
MODEL 5
REMARK VINA RESULT:      -5.1      9.240     11.398
REMARK  2 active torsions:
REMARK  status: ('A' for Active; 'I' for Inactive)
REMARK    1  A    between atoms: N_1  and  C_2 
REMARK    2  A    between atoms: C_2  and  C_8 
ROOT
HETATM    1  C   UNK N   1      32.882  16.909   8.139  0.00  0.00     0.051 C 
HETATM    2  C   UNK N   1      32.882  15.397   8.453  0.00  0.00     0.035 C 
HETATM    3  C   UNK N   1      34.259  17.547   8.406  0.00  0.00     0.035 C 
HETATM    4  C   UNK N   1      34.288  14.802   8.488  0.00  0.00     0.003 C 
HETATM    5  C   UNK N   1      34.871  16.996   9.694  0.00  0.00     0.003 C 
HETATM    6  C   UNK N   1      35.122  15.482   9.585  0.00  0.00     0.000 C 
ENDROOT
BRANCH   1   7
HETATM    7  N   UNK N   1      31.913  17.538   9.022  0.00  0.00    -0.418 N 
HETATM    8  H   UNK N   1      31.717  17.412  10.016  0.00  0.00     0.151 HD
HETATM    9  H   UNK N   1      31.321  18.231   8.566  0.00  0.00     0.151 HD
ENDBRANCH   1   7
BRANCH   1  10
HETATM   10  C   UNK N   1      32.497  17.116   6.687  0.00  0.00    -0.031 A 
HETATM   11  C   UNK N   1      31.150  17.067   6.295  0.00  0.00     0.010 A 
HETATM   12  C   UNK N   1      30.787  17.295   4.964  0.00  0.00     0.001 A 
HETATM   13  C   UNK N   1      31.769  17.568   4.009  0.00  0.00     0.000 A 
HETATM   14  C   UNK N   1      33.114  17.613   4.382  0.00  0.00     0.001 A 
HETATM   15  C   UNK N   1      33.479  17.390   5.713  0.00  0.00     0.010 A 
ENDBRANCH   1  10
TORSDOF 2
ENDMDL
MODEL 6
REMARK VINA RESULT:      -5.0      1.775      1.929
REMARK  2 active torsions:
REMARK  status: ('A' for Active; 'I' for Inactive)
REMARK    1  A    between atoms: N_1  and  C_2 
REMARK    2  A    between atoms: C_2  and  C_8 
ROOT
HETATM    1  C   UNK N   1      36.351  12.892  14.449  0.00  0.00     0.051 C 
HETATM    2  C   UNK N   1      37.339  11.856  13.871  0.00  0.00     0.035 C 
HETATM    3  C   UNK N   1      35.060  12.980  13.611  0.00  0.00     0.035 C 
HETATM    4  C   UNK N   1      36.663  10.854  12.938  0.00  0.00     0.003 C 
HETATM    5  C   UNK N   1      35.381  12.925  12.118  0.00  0.00     0.003 C 
HETATM    6  C   UNK N   1      36.038  11.586  11.740  0.00  0.00     0.000 C 
ENDROOT
BRANCH   1   7
HETATM    7  N   UNK N   1      37.005  14.190  14.409  0.00  0.00    -0.418 N 
HETATM    8  H   UNK N   1      37.640  14.610  13.730  0.00  0.00     0.151 HD
HETATM    9  H   UNK N   1      36.792  14.790  15.206  0.00  0.00     0.151 HD
ENDBRANCH   1   7
BRANCH   1  10
HETATM   10  C   UNK N   1      36.007  12.510  15.876  0.00  0.00    -0.031 A 
HETATM   11  C   UNK N   1      35.468  13.461  16.756  0.00  0.00     0.010 A 
HETATM   12  C   UNK N   1      35.113  13.104  18.061  0.00  0.00     0.001 A 
HETATM   13  C   UNK N   1      35.301  11.791  18.502  0.00  0.00     0.000 A 
HETATM   14  C   UNK N   1      35.844  10.836  17.640  0.00  0.00     0.001 A 
HETATM   15  C   UNK N   1      36.194  11.190  16.334  0.00  0.00     0.010 A 
ENDBRANCH   1  10
TORSDOF 2
ENDMDL
MODEL 7
REMARK VINA RESULT:      -4.9     26.604     28.013
REMARK  2 active torsions:
REMARK  status: ('A' for Active; 'I' for Inactive)
REMARK    1  A    between atoms: N_1  and  C_2 
REMARK    2  A    between atoms: C_2  and  C_8 
ROOT
HETATM    1  C   UNK N   1      26.419  26.133  -5.001  0.00  0.00     0.051 C 
HETATM    2  C   UNK N   1      27.775  26.779  -5.356  0.00  0.00     0.035 C 
HETATM    3  C   UNK N   1      25.287  27.177  -4.939  0.00  0.00     0.035 C 
HETATM    4  C   UNK N   1      27.622  28.150  -6.010  0.00  0.00     0.003 C 
HETATM    5  C   UNK N   1      25.769  28.457  -4.256  0.00  0.00     0.003 C 
HETATM    6  C   UNK N   1      26.909  29.116  -5.052  0.00  0.00     0.000 C 
ENDROOT
BRANCH   1   7
HETATM    7  N   UNK N   1      26.552  25.533  -3.683  0.00  0.00    -0.418 N 
HETATM    8  H   UNK N   1      26.022  25.662  -2.821  0.00  0.00     0.151 HD
HETATM    9  H   UNK N   1      27.316  24.861  -3.605  0.00  0.00     0.151 HD
ENDBRANCH   1   7
BRANCH   1  10
HETATM   10  C   UNK N   1      26.083  25.078  -6.038  0.00  0.00    -0.031 A 
HETATM   11  C   UNK N   1      25.868  25.442  -7.376  0.00  0.00     0.010 A 
HETATM   12  C   UNK N   1      25.595  24.469  -8.344  0.00  0.00     0.001 A 
HETATM   13  C   UNK N   1      25.528  23.121  -7.980  0.00  0.00     0.000 A 
HETATM   14  C   UNK N   1      25.731  22.746  -6.650  0.00  0.00     0.001 A 
HETATM   15  C   UNK N   1      26.008  23.716  -5.683  0.00  0.00     0.010 A 
ENDBRANCH   1  10
TORSDOF 2
ENDMDL
MODEL 8
REMARK VINA RESULT:      -4.9     14.688     16.798
REMARK  2 active torsions:
REMARK  status: ('A' for Active; 'I' for Inactive)
REMARK    1  A    between atoms: N_1  and  C_2 
REMARK    2  A    between atoms: C_2  and  C_8 
ROOT
HETATM    1  C   UNK N   1      27.188  18.993   4.790  0.00  0.00     0.051 C 
HETATM    2  C   UNK N   1      27.722  20.239   5.530  0.00  0.00     0.035 C 
HETATM    3  C   UNK N   1      27.058  17.781   5.733  0.00  0.00     0.035 C 
HETATM    4  C   UNK N   1      27.551  20.143   7.044  0.00  0.00     0.003 C 
HETATM    5  C   UNK N   1      28.258  17.700   6.677  0.00  0.00     0.003 C 
HETATM    6  C   UNK N   1      28.331  18.937   7.589  0.00  0.00     0.000 C 
ENDROOT
BRANCH   1   7
HETATM    7  N   UNK N   1      28.148  18.657   3.751  0.00  0.00    -0.418 N 
HETATM    8  H   UNK N   1      28.125  17.963   3.004  0.00  0.00     0.151 HD
HETATM    9  H   UNK N   1      29.000  19.217   3.773  0.00  0.00     0.151 HD
ENDBRANCH   1   7
BRANCH   1  10
HETATM   10  C   UNK N   1      25.834  19.315   4.185  0.00  0.00    -0.031 A 
HETATM   11  C   UNK N   1      24.693  18.599   4.579  0.00  0.00     0.010 A 
HETATM   12  C   UNK N   1      23.436  18.917   4.052  0.00  0.00     0.001 A 
HETATM   13  C   UNK N   1      23.311  19.951   3.120  0.00  0.00     0.000 A 
HETATM   14  C   UNK N   1      24.439  20.665   2.713  0.00  0.00     0.001 A 
HETATM   15  C   UNK N   1      25.695  20.353   3.242  0.00  0.00     0.010 A 
ENDBRANCH   1  10
TORSDOF 2
ENDMDL
MODEL 9
REMARK VINA RESULT:      -4.9      2.812      4.788
REMARK  2 active torsions:
REMARK  status: ('A' for Active; 'I' for Inactive)
REMARK    1  A    between atoms: N_1  and  C_2 
REMARK    2  A    between atoms: C_2  and  C_8 
ROOT
HETATM    1  C   UNK N   1      35.261   9.983  19.263  0.00  0.00     0.051 C 
HETATM    2  C   UNK N   1      34.957  10.179  20.764  0.00  0.00     0.035 C 
HETATM    3  C   UNK N   1      34.219   9.075  18.582  0.00  0.00     0.035 C 
HETATM    4  C   UNK N   1      33.508   9.852  21.119  0.00  0.00     0.003 C 
HETATM    5  C   UNK N   1      33.855   7.897  19.487  0.00  0.00     0.003 C 
HETATM    6  C   UNK N   1      33.204   8.381  20.794  0.00  0.00     0.000 C 
ENDROOT
BRANCH   1   7
HETATM    7  N   UNK N   1      36.559   9.337  19.161  0.00  0.00    -0.418 N 
HETATM    8  H   UNK N   1      37.396   9.396  19.743  0.00  0.00     0.151 HD
HETATM    9  H   UNK N   1      36.653   8.711  18.361  0.00  0.00     0.151 HD
ENDBRANCH   1   7
BRANCH   1  10
HETATM   10  C   UNK N   1      35.281  11.337  18.578  0.00  0.00    -0.031 A 
HETATM   11  C   UNK N   1      35.282  11.423  17.177  0.00  0.00     0.010 A 
HETATM   12  C   UNK N   1      35.263  12.669  16.540  0.00  0.00     0.001 A 
HETATM   13  C   UNK N   1      35.249  13.842  17.300  0.00  0.00     0.000 A 
HETATM   14  C   UNK N   1      35.256  13.771  18.695  0.00  0.00     0.001 A 
HETATM   15  C   UNK N   1      35.271  12.527  19.333  0.00  0.00     0.010 A 
ENDBRANCH   1  10
TORSDOF 2
ENDMDL
