REMARK  3 active torsions:
REMARK  status: ('A' for Active; 'I' for Inactive)
REMARK    1  A    between atoms: N_3  and  C_5 
REMARK    2  A    between atoms: C_4  and  C_5 
REMARK    3  A    between atoms: C_4  and  C_6 
ROOT
HETATM    1  O   UNK N   1       7.819   0.913   0.000  0.00  0.00    -0.323 OA
HETATM    2  O   UNK N   1       7.877  -1.301  -0.000  0.00  0.00    -0.323 OA
HETATM    3  C   UNK N   1       4.171   0.424   0.000  0.00  0.00    -0.053 A 
HETATM    4  C   UNK N   1       5.377   1.154   0.000  0.00  0.00     0.047 A 
HETATM    5  C   UNK N   1       6.574   0.441   0.000  0.00  0.00     0.105 A 
HETATM    6  C   UNK N   1       4.220  -0.994  -0.000  0.00  0.00     0.010 A 
HETATM    7  C   UNK N   1       6.609  -0.896  -0.000  0.00  0.00     0.105 A 
HETATM    8  C   UNK N   1       5.455  -1.670  -0.000  0.00  0.00     0.040 A 
HETATM    9  C   UNK N   1       8.702  -0.172  -0.000  0.00  0.00     0.352 A 
ENDROOT
BRANCH   3  10
HETATM   10  C   UNK N   1       2.875   1.194   0.000  0.00  0.00     0.062 C 
BRANCH  10  11
HETATM   11  C   UNK N   1       1.543   0.430  -0.001  0.00  0.00     0.074 C 
HETATM   12  C   UNK N   1       1.339  -1.075   0.000  0.00  0.00     0.032 C 
BRANCH  11  13
HETATM   13  N   UNK N   1       0.338   1.238   0.000  0.00  0.00    -0.426 N 
HETATM   14  H   UNK N   1       0.407   2.256   0.001  0.00  0.00     0.150 HD
HETATM   15  H   UNK N   1      -0.577   0.789   0.000  0.00  0.00     0.150 HD
ENDBRANCH  11  13
ENDBRANCH  10  11
ENDBRANCH   3  10
TORSDOF 3
