MODEL 1
REMARK VINA RESULT:      -5.2      0.000      0.000
REMARK  3 active torsions:
REMARK  status: ('A' for Active; 'I' for Inactive)
REMARK    1  A    between atoms: N_3  and  C_5 
REMARK    2  A    between atoms: C_4  and  C_5 
REMARK    3  A    between atoms: C_4  and  C_6 
ROOT
HETATM    1  O   UNK N   1      21.920  21.107   2.542  0.00  0.00    -0.323 OA
HETATM    2  O   UNK N   1      21.208  19.281   3.572  0.00  0.00    -0.323 OA
HETATM    3  C   UNK N   1      25.254  19.858   3.477  0.00  0.00    -0.053 A 
HETATM    4  C   UNK N   1      24.320  20.743   2.901  0.00  0.00     0.047 A 
HETATM    5  C   UNK N   1      22.967  20.427   3.005  0.00  0.00     0.105 A 
HETATM    6  C   UNK N   1      24.786  18.690   4.135  0.00  0.00     0.010 A 
HETATM    7  C   UNK N   1      22.537  19.324   3.627  0.00  0.00     0.105 A 
HETATM    8  C   UNK N   1      23.408  18.414   4.214  0.00  0.00     0.040 A 
HETATM    9  C   UNK N   1      20.756  20.410   2.882  0.00  0.00     0.352 A 
ENDROOT
BRANCH   3  10
HETATM   10  C   UNK N   1      26.718  20.198   3.366  0.00  0.00     0.062 C 
BRANCH  10  11
HETATM   11  C   UNK N   1      27.627  20.032   4.592  0.00  0.00     0.074 C 
HETATM   12  C   UNK N   1      27.562  20.796   5.903  0.00  0.00     0.032 C 
BRANCH  11  13
HETATM   13  N   UNK N   1      28.669  19.028   4.489  0.00  0.00    -0.426 N 
HETATM   14  H   UNK N   1      28.504  18.176   3.952  0.00  0.00     0.150 HD
HETATM   15  H   UNK N   1      29.565  19.173   4.953  0.00  0.00     0.150 HD
ENDBRANCH  11  13
ENDBRANCH  10  11
ENDBRANCH   3  10
TORSDOF 3
ENDMDL
MODEL 2
REMARK VINA RESULT:      -5.2      7.916      9.208
REMARK  3 active torsions:
REMARK  status: ('A' for Active; 'I' for Inactive)
REMARK    1  A    between atoms: N_3  and  C_5 
REMARK    2  A    between atoms: C_4  and  C_5 
REMARK    3  A    between atoms: C_4  and  C_6 
ROOT
HETATM    1  O   UNK N   1      20.420  15.598   9.295  0.00  0.00    -0.323 OA
HETATM    2  O   UNK N   1      19.996  15.132   7.171  0.00  0.00    -0.323 OA
HETATM    3  C   UNK N   1      22.156  12.353   9.249  0.00  0.00    -0.053 A 
HETATM    4  C   UNK N   1      21.683  13.558   9.808  0.00  0.00     0.047 A 
HETATM    5  C   UNK N   1      20.958  14.419   8.987  0.00  0.00     0.105 A 
HETATM    6  C   UNK N   1      21.879  12.065   7.888  0.00  0.00     0.010 A 
HETATM    7  C   UNK N   1      20.702  14.138   7.705  0.00  0.00     0.105 A 
HETATM    8  C   UNK N   1      21.141  12.968   7.099  0.00  0.00     0.040 A 
HETATM    9  C   UNK N   1      19.785  16.103   8.155  0.00  0.00     0.352 A 
ENDROOT
BRANCH   3  10
HETATM   10  C   UNK N   1      22.941  11.420  10.135  0.00  0.00     0.062 C 
BRANCH  10  11
HETATM   11  C   UNK N   1      23.673  11.981  11.363  0.00  0.00     0.074 C 
HETATM   12  C   UNK N   1      23.222  11.932  12.812  0.00  0.00     0.032 C 
BRANCH  11  13
HETATM   13  N   UNK N   1      24.944  12.634  11.112  0.00  0.00    -0.426 N 
HETATM   14  H   UNK N   1      25.371  12.578  10.187  0.00  0.00     0.150 HD
HETATM   15  H   UNK N   1      25.411  13.147  11.859  0.00  0.00     0.150 HD
ENDBRANCH  11  13
ENDBRANCH  10  11
ENDBRANCH   3  10
TORSDOF 3
ENDMDL
MODEL 3
REMARK VINA RESULT:      -5.0      7.026      9.403
REMARK  3 active torsions:
REMARK  status: ('A' for Active; 'I' for Inactive)
REMARK    1  A    between atoms: N_3  and  C_5 
REMARK    2  A    between atoms: C_4  and  C_5 
REMARK    3  A    between atoms: C_4  and  C_6 
ROOT
HETATM    1  O   UNK N   1      33.155  17.743   8.577  0.00  0.00    -0.323 OA
HETATM    2  O   UNK N   1      34.615  17.941   6.923  0.00  0.00    -0.323 OA
HETATM    3  C   UNK N   1      30.767  17.061   5.860  0.00  0.00    -0.053 A 
HETATM    4  C   UNK N   1      31.193  17.239   7.192  0.00  0.00     0.047 A 
HETATM    5  C   UNK N   1      32.535  17.536   7.416  0.00  0.00     0.105 A 
HETATM    6  C   UNK N   1      31.711  17.190   4.809  0.00  0.00     0.010 A 
HETATM    7  C   UNK N   1      33.417  17.655   6.418  0.00  0.00     0.105 A 
HETATM    8  C   UNK N   1      33.058  17.492   5.085  0.00  0.00     0.040 A 
HETATM    9  C   UNK N   1      34.503  18.009   8.315  0.00  0.00     0.352 A 
ENDROOT
BRANCH   3  10
HETATM   10  C   UNK N   1      29.314  16.739   5.616  0.00  0.00     0.062 C 
BRANCH  10  11
HETATM   11  C   UNK N   1      28.273  17.867   5.663  0.00  0.00     0.074 C 
HETATM   12  C   UNK N   1      28.229  19.122   4.809  0.00  0.00     0.032 C 
BRANCH  11  13
HETATM   13  N   UNK N   1      27.205  17.716   6.634  0.00  0.00    -0.426 N 
HETATM   14  H   UNK N   1      26.503  18.449   6.737  0.00  0.00     0.150 HD
HETATM   15  H   UNK N   1      27.157  16.879   7.212  0.00  0.00     0.150 HD
ENDBRANCH  11  13
ENDBRANCH  10  11
ENDBRANCH   3  10
TORSDOF 3
ENDMDL
MODEL 4
REMARK VINA RESULT:      -5.0     10.567     11.657
REMARK  3 active torsions:
REMARK  status: ('A' for Active; 'I' for Inactive)
REMARK    1  A    between atoms: N_3  and  C_5 
REMARK    2  A    between atoms: C_4  and  C_5 
REMARK    3  A    between atoms: C_4  and  C_6 
ROOT
HETATM    1  O   UNK N   1      25.328  24.482  -7.282  0.00  0.00    -0.323 OA
HETATM    2  O   UNK N   1      26.576  23.077  -6.110  0.00  0.00    -0.323 OA
HETATM    3  C   UNK N   1      25.858  26.726  -4.413  0.00  0.00    -0.053 A 
HETATM    4  C   UNK N   1      25.362  26.335  -5.673  0.00  0.00     0.047 A 
HETATM    5  C   UNK N   1      25.682  25.060  -6.136  0.00  0.00     0.105 A 
HETATM    6  C   UNK N   1      26.657  25.818  -3.671  0.00  0.00     0.010 A 
HETATM    7  C   UNK N   1      26.435  24.212  -5.428  0.00  0.00     0.105 A 
HETATM    8  C   UNK N   1      26.953  24.540  -4.181  0.00  0.00     0.040 A 
HETATM    9  C   UNK N   1      25.880  23.198  -7.317  0.00  0.00     0.352 A 
ENDROOT
BRANCH   3  10
HETATM   10  C   UNK N   1      25.513  28.105  -3.911  0.00  0.00     0.062 C 
BRANCH  10  11
HETATM   11  C   UNK N   1      26.400  29.296  -4.304  0.00  0.00     0.074 C 
HETATM   12  C   UNK N   1      27.487  29.330  -5.364  0.00  0.00     0.032 C 
BRANCH  11  13
HETATM   13  N   UNK N   1      26.173  30.533  -3.581  0.00  0.00    -0.426 N 
HETATM   14  H   UNK N   1      26.884  31.264  -3.587  0.00  0.00     0.150 HD
HETATM   15  H   UNK N   1      25.303  30.671  -3.068  0.00  0.00     0.150 HD
ENDBRANCH  11  13
ENDBRANCH  10  11
ENDBRANCH   3  10
TORSDOF 3
ENDMDL
MODEL 5
REMARK VINA RESULT:      -4.9      9.603     11.493
REMARK  3 active torsions:
REMARK  status: ('A' for Active; 'I' for Inactive)
REMARK    1  A    between atoms: N_3  and  C_5 
REMARK    2  A    between atoms: C_4  and  C_5 
REMARK    3  A    between atoms: C_4  and  C_6 
ROOT
HETATM    1  O   UNK N   1      34.388  15.596  10.227  0.00  0.00    -0.323 OA
HETATM    2  O   UNK N   1      35.441  17.542  10.127  0.00  0.00    -0.323 OA
HETATM    3  C   UNK N   1      32.887  16.694   7.050  0.00  0.00    -0.053 A 
HETATM    4  C   UNK N   1      33.119  15.829   8.139  0.00  0.00     0.047 A 
HETATM    5  C   UNK N   1      34.017  16.240   9.122  0.00  0.00     0.105 A 
HETATM    6  C   UNK N   1      33.567  17.938   6.997  0.00  0.00     0.010 A 
HETATM    7  C   UNK N   1      34.653  17.415   9.062  0.00  0.00     0.105 A 
HETATM    8  C   UNK N   1      34.465  18.310   8.015  0.00  0.00     0.040 A 
HETATM    9  C   UNK N   1      35.309  16.394  10.914  0.00  0.00     0.352 A 
ENDROOT
BRANCH   3  10
HETATM   10  C   UNK N   1      31.916  16.250   5.986  0.00  0.00     0.062 C 
BRANCH  10  11
HETATM   11  C   UNK N   1      32.042  16.818   4.565  0.00  0.00     0.074 C 
HETATM   12  C   UNK N   1      33.064  16.443   3.505  0.00  0.00     0.032 C 
BRANCH  11  13
HETATM   13  N   UNK N   1      31.072  17.828   4.188  0.00  0.00    -0.426 N 
HETATM   14  H   UNK N   1      30.286  17.580   3.586  0.00  0.00     0.150 HD
HETATM   15  H   UNK N   1      31.175  18.785   4.523  0.00  0.00     0.150 HD
ENDBRANCH  11  13
ENDBRANCH  10  11
ENDBRANCH   3  10
TORSDOF 3
ENDMDL
MODEL 6
REMARK VINA RESULT:      -4.9     18.357     19.970
REMARK  3 active torsions:
REMARK  status: ('A' for Active; 'I' for Inactive)
REMARK    1  A    between atoms: N_3  and  C_5 
REMARK    2  A    between atoms: C_4  and  C_5 
REMARK    3  A    between atoms: C_4  and  C_6 
ROOT
HETATM    1  O   UNK N   1      35.412   9.367  18.737  0.00  0.00    -0.323 OA
HETATM    2  O   UNK N   1      35.273  10.513  20.628  0.00  0.00    -0.323 OA
HETATM    3  C   UNK N   1      35.270  12.694  17.171  0.00  0.00    -0.053 A 
HETATM    4  C   UNK N   1      35.353  11.288  17.211  0.00  0.00     0.047 A 
HETATM    5  C   UNK N   1      35.344  10.667  18.459  0.00  0.00     0.105 A 
HETATM    6  C   UNK N   1      35.182  13.418  18.388  0.00  0.00     0.010 A 
HETATM    7  C   UNK N   1      35.260  11.359  19.600  0.00  0.00     0.105 A 
HETATM    8  C   UNK N   1      35.176  12.746  19.625  0.00  0.00     0.040 A 
HETATM    9  C   UNK N   1      35.369   9.211  20.127  0.00  0.00     0.352 A 
ENDROOT
BRANCH   3  10
HETATM   10  C   UNK N   1      35.280  13.367  15.822  0.00  0.00     0.062 C 
BRANCH  10  11
HETATM   11  C   UNK N   1      36.587  13.974  15.290  0.00  0.00     0.074 C 
HETATM   12  C   UNK N   1      37.330  15.185  15.826  0.00  0.00     0.032 C 
BRANCH  11  13
HETATM   13  N   UNK N   1      37.183  13.314  14.145  0.00  0.00    -0.426 N 
HETATM   14  H   UNK N   1      36.973  12.334  13.955  0.00  0.00     0.150 HD
HETATM   15  H   UNK N   1      37.813  13.828  13.530  0.00  0.00     0.150 HD
ENDBRANCH  11  13
ENDBRANCH  10  11
ENDBRANCH   3  10
TORSDOF 3
ENDMDL
MODEL 7
REMARK VINA RESULT:      -4.7     16.751     18.235
REMARK  3 active torsions:
REMARK  status: ('A' for Active; 'I' for Inactive)
REMARK    1  A    between atoms: N_3  and  C_5 
REMARK    2  A    between atoms: C_4  and  C_5 
REMARK    3  A    between atoms: C_4  and  C_6 
ROOT
HETATM    1  O   UNK N   1      36.794  13.798  13.440  0.00  0.00    -0.323 OA
HETATM    2  O   UNK N   1      35.294  12.296  12.806  0.00  0.00    -0.323 OA
HETATM    3  C   UNK N   1      35.251  13.360  16.753  0.00  0.00    -0.053 A 
HETATM    4  C   UNK N   1      36.151  13.891  15.806  0.00  0.00     0.047 A 
HETATM    5  C   UNK N   1      36.058  13.441  14.491  0.00  0.00     0.105 A 
HETATM    6  C   UNK N   1      34.294  12.399  16.336  0.00  0.00     0.010 A 
HETATM    7  C   UNK N   1      35.152  12.535  14.108  0.00  0.00     0.105 A 
HETATM    8  C   UNK N   1      34.239  11.976  14.994  0.00  0.00     0.040 A 
HETATM    9  C   UNK N   1      36.341  13.087  12.323  0.00  0.00     0.352 A 
ENDROOT
BRANCH   3  10
HETATM   10  C   UNK N   1      35.350  13.846  18.177  0.00  0.00     0.062 C 
BRANCH  10  11
HETATM   11  C   UNK N   1      35.180  12.845  19.329  0.00  0.00     0.074 C 
HETATM   12  C   UNK N   1      35.529  11.367  19.331  0.00  0.00     0.032 C 
BRANCH  11  13
HETATM   13  N   UNK N   1      34.623  13.372  20.561  0.00  0.00    -0.426 N 
HETATM   14  H   UNK N   1      34.075  14.232  20.546  0.00  0.00     0.150 HD
HETATM   15  H   UNK N   1      34.779  12.882  21.441  0.00  0.00     0.150 HD
ENDBRANCH  11  13
ENDBRANCH  10  11
ENDBRANCH   3  10
TORSDOF 3
ENDMDL
MODEL 8
REMARK VINA RESULT:      -4.7      8.150      9.547
REMARK  3 active torsions:
REMARK  status: ('A' for Active; 'I' for Inactive)
REMARK    1  A    between atoms: N_3  and  C_5 
REMARK    2  A    between atoms: C_4  and  C_5 
REMARK    3  A    between atoms: C_4  and  C_6 
ROOT
HETATM    1  O   UNK N   1      24.389  12.015  12.160  0.00  0.00    -0.323 OA
HETATM    2  O   UNK N   1      22.179  12.091  12.037  0.00  0.00    -0.323 OA
HETATM    3  C   UNK N   1      24.228  13.131   8.656  0.00  0.00    -0.053 A 
HETATM    4  C   UNK N   1      24.848  12.738   9.860  0.00  0.00     0.047 A 
HETATM    5  C   UNK N   1      24.030  12.409  10.940  0.00  0.00     0.105 A 
HETATM    6  C   UNK N   1      22.812  13.175   8.589  0.00  0.00     0.010 A 
HETATM    7  C   UNK N   1      22.696  12.454  10.865  0.00  0.00     0.105 A 
HETATM    8  C   UNK N   1      22.028  12.833   9.707  0.00  0.00     0.040 A 
HETATM    9  C   UNK N   1      23.230  11.796  12.911  0.00  0.00     0.352 A 
ENDROOT
BRANCH   3  10
HETATM   10  C   UNK N   1      25.111  13.487   7.487  0.00  0.00     0.062 C 
BRANCH  10  11
HETATM   11  C   UNK N   1      25.091  14.920   6.936  0.00  0.00     0.074 C 
HETATM   12  C   UNK N   1      24.019  15.565   6.075  0.00  0.00     0.032 C 
BRANCH  11  13
HETATM   13  N   UNK N   1      26.225  15.757   7.278  0.00  0.00    -0.426 N 
HETATM   14  H   UNK N   1      26.079  16.633   7.781  0.00  0.00     0.150 HD
HETATM   15  H   UNK N   1      27.167  15.472   7.015  0.00  0.00     0.150 HD
ENDBRANCH  11  13
ENDBRANCH  10  11
ENDBRANCH   3  10
TORSDOF 3
ENDMDL
MODEL 9
REMARK VINA RESULT:      -4.7      7.254      8.978
REMARK  3 active torsions:
REMARK  status: ('A' for Active; 'I' for Inactive)
REMARK    1  A    between atoms: N_3  and  C_5 
REMARK    2  A    between atoms: C_4  and  C_5 
REMARK    3  A    between atoms: C_4  and  C_6 
ROOT
HETATM    1  O   UNK N   1      29.281  18.435   9.439  0.00  0.00    -0.323 OA
HETATM    2  O   UNK N   1      28.371  17.555   7.622  0.00  0.00    -0.323 OA
HETATM    3  C   UNK N   1      32.455  17.613   7.768  0.00  0.00    -0.053 A 
HETATM    4  C   UNK N   1      31.626  18.113   8.792  0.00  0.00     0.047 A 
HETATM    5  C   UNK N   1      30.246  18.032   8.616  0.00  0.00     0.105 A 
HETATM    6  C   UNK N   1      31.861  17.051   6.608  0.00  0.00     0.010 A 
HETATM    7  C   UNK N   1      29.697  17.500   7.518  0.00  0.00     0.105 A 
HETATM    8  C   UNK N   1      30.461  16.991   6.476  0.00  0.00     0.040 A 
HETATM    9  C   UNK N   1      28.047  18.150   8.845  0.00  0.00     0.352 A 
ENDROOT
BRANCH   3  10
HETATM   10  C   UNK N   1      33.948  17.700   7.957  0.00  0.00     0.062 C 
BRANCH  10  11
HETATM   11  C   UNK N   1      34.644  16.734   8.927  0.00  0.00     0.074 C 
HETATM   12  C   UNK N   1      35.117  15.318   8.644  0.00  0.00     0.032 C 
BRANCH  11  13
HETATM   13  N   UNK N   1      34.880  17.229  10.270  0.00  0.00    -0.426 N 
HETATM   14  H   UNK N   1      34.405  16.798  11.064  0.00  0.00     0.150 HD
HETATM   15  H   UNK N   1      35.520  18.008  10.421  0.00  0.00     0.150 HD
ENDBRANCH  11  13
ENDBRANCH  10  11
ENDBRANCH   3  10
TORSDOF 3
ENDMDL
