MODEL 1
REMARK VINA RESULT:      -6.7      0.000      0.000
REMARK  3 active torsions:
REMARK  status: ('A' for Active; 'I' for Inactive)
REMARK    1  A    between atoms: C_7  and  O_2 
REMARK    2  A    between atoms: C_13  and  O_3 
REMARK    3  A    between atoms: O_4  and  C_21 
ROOT
HETATM    1  O   UNK N   1      29.010  24.959  -3.259  0.00  0.00    -0.339 OA
HETATM    2  N   UNK N   1      29.360  23.916  -8.249  0.00  0.00     0.092 N 
HETATM    3  C   UNK N   1      28.543  24.605  -5.516  0.00  0.00     0.054 C 
HETATM    4  C   UNK N   1      27.501  24.171  -6.556  0.00  0.00     0.103 C 
HETATM    5  C   UNK N   1      28.262  23.206  -7.547  0.00  0.00     0.262 C 
HETATM    6  C   UNK N   1      28.074  25.364  -4.226  0.00  0.00     0.174 C 
HETATM    7  C   UNK N   1      29.648  25.401  -6.241  0.00  0.00     0.050 C 
HETATM    8  C   UNK N   1      29.185  23.455  -4.875  0.00  0.00    -0.001 A 
HETATM    9  C   UNK N   1      26.310  23.533  -5.843  0.00  0.00     0.044 C 
HETATM   10  C   UNK N   1      26.655  24.902  -3.750  0.00  0.00     0.148 C 
HETATM   11  C   UNK N   1      28.878  21.952  -6.839  0.00  0.00     0.078 C 
HETATM   12  C   UNK N   1      25.699  24.587  -4.904  0.00  0.00     0.037 C 
HETATM   13  C   UNK N   1      30.321  24.576  -7.351  0.00  0.00     0.273 C 
HETATM   14  C   UNK N   1      29.438  22.231  -5.461  0.00  0.00    -0.046 A 
HETATM   15  C   UNK N   1      29.507  23.759  -3.604  0.00  0.00     0.110 A 
HETATM   16  C   UNK N   1      28.878  24.870  -9.241  0.00  0.00     0.310 C 
HETATM   17  C   UNK N   1      30.124  21.269  -4.698  0.00  0.00     0.011 A 
HETATM   18  C   UNK N   1      30.204  22.841  -2.813  0.00  0.00     0.099 A 
HETATM   19  C   UNK N   1      30.531  21.586  -3.377  0.00  0.00     0.040 A 
ENDROOT
BRANCH   4  20
HETATM   20  O   UNK N   1      27.013  25.287  -7.249  0.00  0.00    -0.386 OA
HETATM   21  H   UNK N   1      27.530  25.993  -7.668  0.00  0.00     0.210 HD
ENDBRANCH   4  20
BRANCH  10  22
HETATM   22  O   UNK N   1      26.708  23.789  -2.905  0.00  0.00    -0.393 OA
HETATM   23  H   UNK N   1      26.088  23.090  -2.643  0.00  0.00     0.210 HD
ENDBRANCH  10  22
BRANCH  18  24
HETATM   24  O   UNK N   1      30.532  23.131  -1.544  0.00  0.00    -0.358 OA
HETATM   25  H   UNK N   1      31.354  22.885  -1.169  0.00  0.00     0.217 HD
ENDBRANCH  18  24
TORSDOF 3
ENDMDL
MODEL 2
REMARK VINA RESULT:      -6.5     12.372     15.063
REMARK  3 active torsions:
REMARK  status: ('A' for Active; 'I' for Inactive)
REMARK    1  A    between atoms: C_7  and  O_2 
REMARK    2  A    between atoms: C_13  and  O_3 
REMARK    3  A    between atoms: O_4  and  C_21 
ROOT
HETATM    1  O   UNK N   1      32.966  17.440   8.995  0.00  0.00    -0.339 OA
HETATM    2  N   UNK N   1      32.845  15.663   4.205  0.00  0.00     0.092 N 
HETATM    3  C   UNK N   1      32.333  16.902   6.816  0.00  0.00     0.054 C 
HETATM    4  C   UNK N   1      31.175  16.595   5.857  0.00  0.00     0.103 C 
HETATM    5  C   UNK N   1      31.639  15.347   5.011  0.00  0.00     0.262 C 
HETATM    6  C   UNK N   1      32.115  17.923   7.986  0.00  0.00     0.174 C 
HETATM    7  C   UNK N   1      33.565  17.296   5.976  0.00  0.00     0.050 C 
HETATM    8  C   UNK N   1      32.706  15.730   7.611  0.00  0.00    -0.001 A 
HETATM    9  C   UNK N   1      29.896  16.371   6.663  0.00  0.00     0.044 C 
HETATM   10  C   UNK N   1      30.648  17.891   8.534  0.00  0.00     0.148 C 
HETATM   11  C   UNK N   1      31.965  14.090   5.888  0.00  0.00     0.078 C 
HETATM   12  C   UNK N   1      29.596  17.662   7.444  0.00  0.00     0.037 C 
HETATM   13  C   UNK N   1      33.973  16.187   4.991  0.00  0.00     0.273 C 
HETATM   14  C   UNK N   1      32.633  14.412   7.207  0.00  0.00    -0.046 A 
HETATM   15  C   UNK N   1      33.146  16.119   8.823  0.00  0.00     0.110 A 
HETATM   16  C   UNK N   1      32.564  16.559   3.089  0.00  0.00     0.310 C 
HETATM   17  C   UNK N   1      33.100  13.427   8.095  0.00  0.00     0.011 A 
HETATM   18  C   UNK N   1      33.635  15.178   9.733  0.00  0.00     0.099 A 
HETATM   19  C   UNK N   1      33.626  13.815   9.354  0.00  0.00     0.040 A 
ENDROOT
BRANCH   4  20
HETATM   20  O   UNK N   1      30.940  17.689   5.014  0.00  0.00    -0.386 OA
HETATM   21  H   UNK N   1      30.952  17.700   4.044  0.00  0.00     0.210 HD
ENDBRANCH   4  20
BRANCH  10  22
HETATM   22  O   UNK N   1      30.468  16.927   9.530  0.00  0.00    -0.393 OA
HETATM   23  H   UNK N   1      30.640  15.976   9.611  0.00  0.00     0.210 HD
ENDBRANCH  10  22
BRANCH  18  24
HETATM   24  O   UNK N   1      34.075  15.552  10.945  0.00  0.00    -0.358 OA
HETATM   25  H   UNK N   1      33.715  15.207  11.738  0.00  0.00     0.217 HD
ENDBRANCH  18  24
TORSDOF 3
ENDMDL
MODEL 3
REMARK VINA RESULT:      -6.5     22.617     25.167
REMARK  3 active torsions:
REMARK  status: ('A' for Active; 'I' for Inactive)
REMARK    1  A    between atoms: C_7  and  O_2 
REMARK    2  A    between atoms: C_13  and  O_3 
REMARK    3  A    between atoms: O_4  and  C_21 
ROOT
HETATM    1  O   UNK N   1      37.051  12.742  13.480  0.00  0.00    -0.339 OA
HETATM    2  N   UNK N   1      36.271   8.694  16.500  0.00  0.00     0.092 N 
HETATM    3  C   UNK N   1      36.277  10.742  14.399  0.00  0.00     0.054 C 
HETATM    4  C   UNK N   1      35.105   9.760  14.527  0.00  0.00     0.103 C 
HETATM    5  C   UNK N   1      35.031   9.380  16.057  0.00  0.00     0.262 C 
HETATM    6  C   UNK N   1      36.481  11.529  13.057  0.00  0.00     0.174 C 
HETATM    7  C   UNK N   1      37.573  10.004  14.795  0.00  0.00     0.050 C 
HETATM    8  C   UNK N   1      36.133  11.884  15.305  0.00  0.00    -0.001 A 
HETATM    9  C   UNK N   1      33.838  10.411  13.976  0.00  0.00     0.044 C 
HETATM   10  C   UNK N   1      35.122  11.854  12.349  0.00  0.00     0.148 C 
HETATM   11  C   UNK N   1      34.809  10.617  16.992  0.00  0.00     0.078 C 
HETATM   12  C   UNK N   1      34.080  10.740  12.493  0.00  0.00     0.037 C 
HETATM   13  C   UNK N   1      37.506   9.446  16.227  0.00  0.00     0.273 C 
HETATM   14  C   UNK N   1      35.535  11.868  16.549  0.00  0.00    -0.046 A 
HETATM   15  C   UNK N   1      36.680  12.982  14.749  0.00  0.00     0.110 A 
HETATM   16  C   UNK N   1      36.391   7.340  15.971  0.00  0.00     0.310 C 
HETATM   17  C   UNK N   1      35.551  13.057  17.299  0.00  0.00     0.011 A 
HETATM   18  C   UNK N   1      36.733  14.183  15.464  0.00  0.00     0.099 A 
HETATM   19  C   UNK N   1      36.175  14.213  16.763  0.00  0.00     0.040 A 
ENDROOT
BRANCH   4  20
HETATM   20  O   UNK N   1      35.346   8.615  13.757  0.00  0.00    -0.386 OA
HETATM   21  H   UNK N   1      35.265   7.689  14.034  0.00  0.00     0.210 HD
ENDBRANCH   4  20
BRANCH  10  22
HETATM   22  O   UNK N   1      34.554  13.049  12.800  0.00  0.00    -0.393 OA
HETATM   23  H   UNK N   1      34.644  13.602  13.592  0.00  0.00     0.210 HD
ENDBRANCH  10  22
BRANCH  18  24
HETATM   24  O   UNK N   1      37.274  15.285  14.922  0.00  0.00    -0.358 OA
HETATM   25  H   UNK N   1      38.198  15.385  14.804  0.00  0.00     0.217 HD
ENDBRANCH  18  24
TORSDOF 3
ENDMDL
MODEL 4
REMARK VINA RESULT:      -6.4     12.104     14.033
REMARK  3 active torsions:
REMARK  status: ('A' for Active; 'I' for Inactive)
REMARK    1  A    between atoms: C_7  and  O_2 
REMARK    2  A    between atoms: C_13  and  O_3 
REMARK    3  A    between atoms: O_4  and  C_21 
ROOT
HETATM    1  O   UNK N   1      31.582  16.122   8.180  0.00  0.00    -0.339 OA
HETATM    2  N   UNK N   1      29.209  15.447   3.704  0.00  0.00     0.092 N 
HETATM    3  C   UNK N   1      31.077  15.962   5.908  0.00  0.00     0.054 C 
HETATM    4  C   UNK N   1      31.392  16.452   4.488  0.00  0.00     0.103 C 
HETATM    5  C   UNK N   1      29.993  16.704   3.803  0.00  0.00     0.262 C 
HETATM    6  C   UNK N   1      32.234  15.860   6.963  0.00  0.00     0.174 C 
HETATM    7  C   UNK N   1      30.323  14.621   5.801  0.00  0.00     0.050 C 
HETATM    8  C   UNK N   1      30.205  16.895   6.626  0.00  0.00    -0.001 A 
HETATM    9  C   UNK N   1      32.288  17.687   4.567  0.00  0.00     0.044 C 
HETATM   10  C   UNK N   1      33.326  16.964   6.752  0.00  0.00     0.148 C 
HETATM   11  C   UNK N   1      29.113  17.757   4.559  0.00  0.00     0.078 C 
HETATM   12  C   UNK N   1      33.591  17.283   5.277  0.00  0.00     0.037 C 
HETATM   13  C   UNK N   1      29.024  14.751   4.987  0.00  0.00     0.273 C 
HETATM   14  C   UNK N   1      29.226  17.692   6.067  0.00  0.00    -0.046 A 
HETATM   15  C   UNK N   1      30.491  16.870   7.942  0.00  0.00     0.110 A 
HETATM   16  C   UNK N   1      29.745  14.520   2.714  0.00  0.00     0.310 C 
HETATM   17  C   UNK N   1      28.447  18.478   6.934  0.00  0.00     0.011 A 
HETATM   18  C   UNK N   1      29.733  17.622   8.843  0.00  0.00     0.099 A 
HETATM   19  C   UNK N   1      28.686  18.423   8.331  0.00  0.00     0.040 A 
ENDROOT
BRANCH   4  20
HETATM   20  O   UNK N   1      32.104  15.473   3.784  0.00  0.00    -0.386 OA
HETATM   21  H   UNK N   1      32.572  14.706   4.150  0.00  0.00     0.210 HD
ENDBRANCH   4  20
BRANCH  10  22
HETATM   22  O   UNK N   1      33.019  18.157   7.413  0.00  0.00    -0.393 OA
HETATM   23  H   UNK N   1      32.318  18.454   8.014  0.00  0.00     0.210 HD
ENDBRANCH  10  22
BRANCH  18  24
HETATM   24  O   UNK N   1      30.007  17.608  10.157  0.00  0.00    -0.358 OA
HETATM   25  H   UNK N   1      29.497  17.116  10.771  0.00  0.00     0.217 HD
ENDBRANCH  18  24
TORSDOF 3
ENDMDL
MODEL 5
REMARK VINA RESULT:      -6.1     12.409     14.406
REMARK  3 active torsions:
REMARK  status: ('A' for Active; 'I' for Inactive)
REMARK    1  A    between atoms: C_7  and  O_2 
REMARK    2  A    between atoms: C_13  and  O_3 
REMARK    3  A    between atoms: O_4  and  C_21 
ROOT
HETATM    1  O   UNK N   1      30.561  16.458   8.386  0.00  0.00    -0.339 OA
HETATM    2  N   UNK N   1      32.328  14.851   3.868  0.00  0.00     0.092 N 
HETATM    3  C   UNK N   1      31.919  15.944   6.561  0.00  0.00     0.054 C 
HETATM    4  C   UNK N   1      33.171  16.308   5.753  0.00  0.00     0.103 C 
HETATM    5  C   UNK N   1      32.740  16.229   4.237  0.00  0.00     0.262 C 
HETATM    6  C   UNK N   1      31.909  16.172   8.113  0.00  0.00     0.174 C 
HETATM    7  C   UNK N   1      31.534  14.488   6.226  0.00  0.00     0.050 C 
HETATM    8  C   UNK N   1      30.776  16.788   6.206  0.00  0.00    -0.001 A 
HETATM    9  C   UNK N   1      33.676  17.682   6.194  0.00  0.00     0.044 C 
HETATM   10  C   UNK N   1      32.764  17.416   8.534  0.00  0.00     0.148 C 
HETATM   11  C   UNK N   1      31.561  17.194   3.877  0.00  0.00     0.078 C 
HETATM   12  C   UNK N   1      34.028  17.599   7.689  0.00  0.00     0.037 C 
HETATM   13  C   UNK N   1      31.269  14.291   4.724  0.00  0.00     0.273 C 
HETATM   14  C   UNK N   1      30.516  17.329   4.963  0.00  0.00    -0.046 A 
HETATM   15  C   UNK N   1      29.989  16.971   7.283  0.00  0.00     0.110 A 
HETATM   16  C   UNK N   1      33.449  13.921   3.800  0.00  0.00     0.310 C 
HETATM   17  C   UNK N   1      29.329  18.065   4.804  0.00  0.00     0.011 A 
HETATM   18  C   UNK N   1      28.790  17.680   7.169  0.00  0.00     0.099 A 
HETATM   19  C   UNK N   1      28.449  18.219   5.907  0.00  0.00     0.040 A 
ENDROOT
BRANCH   4  20
HETATM   20  O   UNK N   1      34.199  15.393   6.011  0.00  0.00    -0.386 OA
HETATM   21  H   UNK N   1      34.430  14.989   6.863  0.00  0.00     0.210 HD
ENDBRANCH   4  20
BRANCH  10  22
HETATM   22  O   UNK N   1      32.032  18.607   8.496  0.00  0.00    -0.393 OA
HETATM   23  H   UNK N   1      31.102  18.843   8.354  0.00  0.00     0.210 HD
ENDBRANCH  10  22
BRANCH  18  24
HETATM   24  O   UNK N   1      27.996  17.870   8.235  0.00  0.00    -0.358 OA
HETATM   25  H   UNK N   1      28.175  18.521   8.885  0.00  0.00     0.217 HD
ENDBRANCH  18  24
TORSDOF 3
ENDMDL
MODEL 6
REMARK VINA RESULT:      -6.0     14.727     17.246
REMARK  3 active torsions:
REMARK  status: ('A' for Active; 'I' for Inactive)
REMARK    1  A    between atoms: C_7  and  O_2 
REMARK    2  A    between atoms: C_13  and  O_3 
REMARK    3  A    between atoms: O_4  and  C_21 
ROOT
HETATM    1  O   UNK N   1      44.319  24.263   3.370  0.00  0.00    -0.339 OA
HETATM    2  N   UNK N   1      42.173  22.033  -0.696  0.00  0.00     0.092 N 
HETATM    3  C   UNK N   1      43.353  22.734   1.898  0.00  0.00     0.054 C 
HETATM    4  C   UNK N   1      43.253  21.267   1.457  0.00  0.00     0.103 C 
HETATM    5  C   UNK N   1      43.321  21.289  -0.119  0.00  0.00     0.262 C 
HETATM    6  C   UNK N   1      43.578  23.070   3.413  0.00  0.00     0.174 C 
HETATM    7  C   UNK N   1      42.122  23.488   1.354  0.00  0.00     0.050 C 
HETATM    8  C   UNK N   1      44.542  23.388   1.347  0.00  0.00    -0.001 A 
HETATM    9  C   UNK N   1      44.365  20.461   2.126  0.00  0.00     0.044 C 
HETATM   10  C   UNK N   1      44.447  21.986   4.137  0.00  0.00     0.148 C 
HETATM   11  C   UNK N   1      44.636  21.935  -0.674  0.00  0.00     0.078 C 
HETATM   12  C   UNK N   1      44.172  20.560   3.649  0.00  0.00     0.037 C 
HETATM   13  C   UNK N   1      42.022  23.402  -0.179  0.00  0.00     0.273 C 
HETATM   14  C   UNK N   1      45.133  23.116   0.130  0.00  0.00    -0.046 A 
HETATM   15  C   UNK N   1      44.993  24.320   2.209  0.00  0.00     0.110 A 
HETATM   16  C   UNK N   1      40.909  21.316  -0.567  0.00  0.00     0.310 C 
HETATM   17  C   UNK N   1      46.236  23.899  -0.252  0.00  0.00     0.011 A 
HETATM   18  C   UNK N   1      46.077  25.133   1.865  0.00  0.00     0.099 A 
HETATM   19  C   UNK N   1      46.694  24.929   0.610  0.00  0.00     0.040 A 
ENDROOT
BRANCH   4  20
HETATM   20  O   UNK N   1      42.037  20.716   1.880  0.00  0.00    -0.386 OA
HETATM   21  H   UNK N   1      41.412  20.190   1.355  0.00  0.00     0.210 HD
ENDBRANCH   4  20
BRANCH  10  22
HETATM   22  O   UNK N   1      45.818  22.234   4.024  0.00  0.00    -0.393 OA
HETATM   23  H   UNK N   1      46.366  23.001   3.794  0.00  0.00     0.210 HD
ENDBRANCH  10  22
BRANCH  18  24
HETATM   24  O   UNK N   1      46.538  26.065   2.715  0.00  0.00    -0.358 OA
HETATM   25  H   UNK N   1      46.684  26.953   2.454  0.00  0.00     0.217 HD
ENDBRANCH  18  24
TORSDOF 3
ENDMDL
MODEL 7
REMARK VINA RESULT:      -6.0     13.655     15.847
REMARK  3 active torsions:
REMARK  status: ('A' for Active; 'I' for Inactive)
REMARK    1  A    between atoms: C_7  and  O_2 
REMARK    2  A    between atoms: C_13  and  O_3 
REMARK    3  A    between atoms: O_4  and  C_21 
ROOT
HETATM    1  O   UNK N   1      34.199  17.636   6.034  0.00  0.00    -0.339 OA
HETATM    2  N   UNK N   1      34.838  12.584   6.472  0.00  0.00     0.092 N 
HETATM    3  C   UNK N   1      33.919  15.322   5.947  0.00  0.00     0.054 C 
HETATM    4  C   UNK N   1      32.928  14.151   5.935  0.00  0.00     0.103 C 
HETATM    5  C   UNK N   1      33.517  13.082   6.935  0.00  0.00     0.262 C 
HETATM    6  C   UNK N   1      33.521  16.676   5.263  0.00  0.00     0.174 C 
HETATM    7  C   UNK N   1      35.271  14.817   5.401  0.00  0.00     0.050 C 
HETATM    8  C   UNK N   1      34.157  15.821   7.303  0.00  0.00    -0.001 A 
HETATM    9  C   UNK N   1      31.537  14.662   6.306  0.00  0.00     0.044 C 
HETATM   10  C   UNK N   1      31.985  16.965   5.371  0.00  0.00     0.148 C 
HETATM   11  C   UNK N   1      33.695  13.628   8.392  0.00  0.00     0.078 C 
HETATM   12  C   UNK N   1      31.120  15.706   5.255  0.00  0.00     0.037 C 
HETATM   13  C   UNK N   1      35.828  13.645   6.227  0.00  0.00     0.273 C 
HETATM   14  C   UNK N   1      34.145  15.071   8.462  0.00  0.00    -0.046 A 
HETATM   15  C   UNK N   1      34.399  17.145   7.269  0.00  0.00     0.110 A 
HETATM   16  C   UNK N   1      34.741  11.721   5.301  0.00  0.00     0.310 C 
HETATM   17  C   UNK N   1      34.461  15.723   9.667  0.00  0.00     0.011 A 
HETATM   18  C   UNK N   1      34.734  17.832   8.439  0.00  0.00     0.099 A 
HETATM   19  C   UNK N   1      34.782  17.105   9.651  0.00  0.00     0.040 A 
ENDROOT
BRANCH   4  20
HETATM   20  O   UNK N   1      32.835  13.607   4.647  0.00  0.00    -0.386 OA
HETATM   21  H   UNK N   1      32.320  13.948   3.899  0.00  0.00     0.210 HD
ENDBRANCH   4  20
BRANCH  10  22
HETATM   22  O   UNK N   1      31.645  17.626   6.555  0.00  0.00    -0.393 OA
HETATM   23  H   UNK N   1      31.966  18.412   7.025  0.00  0.00     0.210 HD
ENDBRANCH  10  22
BRANCH  18  24
HETATM   24  O   UNK N   1      34.977  19.152   8.420  0.00  0.00    -0.358 OA
HETATM   25  H   UNK N   1      35.846  19.502   8.402  0.00  0.00     0.217 HD
ENDBRANCH  18  24
TORSDOF 3
ENDMDL
MODEL 8
REMARK VINA RESULT:      -5.8     14.370     16.193
REMARK  3 active torsions:
REMARK  status: ('A' for Active; 'I' for Inactive)
REMARK    1  A    between atoms: C_7  and  O_2 
REMARK    2  A    between atoms: C_13  and  O_3 
REMARK    3  A    between atoms: O_4  and  C_21 
ROOT
HETATM    1  O   UNK N   1      34.300  17.621   8.431  0.00  0.00    -0.339 OA
HETATM    2  N   UNK N   1      34.317  13.460   5.464  0.00  0.00     0.092 N 
HETATM    3  C   UNK N   1      33.742  15.958   6.893  0.00  0.00     0.054 C 
HETATM    4  C   UNK N   1      32.616  15.178   6.201  0.00  0.00     0.103 C 
HETATM    5  C   UNK N   1      33.063  13.665   6.231  0.00  0.00     0.262 C 
HETATM    6  C   UNK N   1      33.517  17.463   7.274  0.00  0.00     0.174 C 
HETATM    7  C   UNK N   1      35.028  15.798   6.055  0.00  0.00     0.050 C 
HETATM    8  C   UNK N   1      34.027  15.432   8.230  0.00  0.00    -0.001 A 
HETATM    9  C   UNK N   1      31.294  15.461   6.913  0.00  0.00     0.044 C 
HETATM   10  C   UNK N   1      32.027  17.761   7.653  0.00  0.00     0.148 C 
HETATM   11  C   UNK N   1      33.293  13.115   7.680  0.00  0.00     0.078 C 
HETATM   12  C   UNK N   1      31.016  16.970   6.816  0.00  0.00     0.037 C 
HETATM   13  C   UNK N   1      35.431  14.323   5.890  0.00  0.00     0.273 C 
HETATM   14  C   UNK N   1      33.914  14.115   8.630  0.00  0.00    -0.046 A 
HETATM   15  C   UNK N   1      34.428  16.430   9.040  0.00  0.00     0.110 A 
HETATM   16  C   UNK N   1      34.127  13.577   4.022  0.00  0.00     0.310 C 
HETATM   17  C   UNK N   1      34.296  13.795   9.945  0.00  0.00     0.011 A 
HETATM   18  C   UNK N   1      34.833  16.157  10.350  0.00  0.00     0.099 A 
HETATM   19  C   UNK N   1      34.781  14.818  10.800  0.00  0.00     0.040 A 
ENDROOT
BRANCH   4  20
HETATM   20  O   UNK N   1      32.469  15.612   4.877  0.00  0.00    -0.386 OA
HETATM   21  H   UNK N   1      33.053  15.422   4.125  0.00  0.00     0.210 HD
ENDBRANCH   4  20
BRANCH  10  22
HETATM   22  O   UNK N   1      31.759  17.525   9.005  0.00  0.00    -0.393 OA
HETATM   23  H   UNK N   1      32.218  17.701   9.841  0.00  0.00     0.210 HD
ENDBRANCH  10  22
BRANCH  18  24
HETATM   24  O   UNK N   1      35.234  17.143  11.168  0.00  0.00    -0.358 OA
HETATM   25  H   UNK N   1      36.054  17.116  11.621  0.00  0.00     0.217 HD
ENDBRANCH  18  24
TORSDOF 3
ENDMDL
MODEL 9
REMARK VINA RESULT:      -5.8     20.370     22.777
REMARK  3 active torsions:
REMARK  status: ('A' for Active; 'I' for Inactive)
REMARK    1  A    between atoms: C_7  and  O_2 
REMARK    2  A    between atoms: C_13  and  O_3 
REMARK    3  A    between atoms: O_4  and  C_21 
ROOT
HETATM    1  O   UNK N   1      35.288  14.310  12.567  0.00  0.00    -0.339 OA
HETATM    2  N   UNK N   1      35.880   9.368  11.410  0.00  0.00     0.092 N 
HETATM    3  C   UNK N   1      35.645  12.007  12.671  0.00  0.00     0.054 C 
HETATM    4  C   UNK N   1      36.329  10.849  13.408  0.00  0.00     0.103 C 
HETATM    5  C   UNK N   1      36.942   9.928  12.283  0.00  0.00     0.262 C 
HETATM    6  C   UNK N   1      35.149  13.254  13.484  0.00  0.00     0.174 C 
HETATM    7  C   UNK N   1      34.497  11.428  11.818  0.00  0.00     0.050 C 
HETATM    8  C   UNK N   1      36.563  12.691  11.757  0.00  0.00    -0.001 A 
HETATM    9  C   UNK N   1      37.354  11.411  14.392  0.00  0.00     0.044 C 
HETATM   10  C   UNK N   1      36.067  13.560  14.716  0.00  0.00     0.148 C 
HETATM   11  C   UNK N   1      37.972  10.673  11.366  0.00  0.00     0.078 C 
HETATM   12  C   UNK N   1      36.606  12.299  15.401  0.00  0.00     0.037 C 
HETATM   13  C   UNK N   1      34.999  10.381  10.808  0.00  0.00     0.273 C 
HETATM   14  C   UNK N   1      37.607  12.110  11.065  0.00  0.00    -0.046 A 
HETATM   15  C   UNK N   1      36.244  13.996  11.677  0.00  0.00     0.110 A 
HETATM   16  C   UNK N   1      35.076   8.349  12.076  0.00  0.00     0.310 C 
HETATM   17  C   UNK N   1      38.340  12.923  10.182  0.00  0.00     0.011 A 
HETATM   18  C   UNK N   1      36.934  14.839  10.801  0.00  0.00     0.099 A 
HETATM   19  C   UNK N   1      37.985  14.288  10.032  0.00  0.00     0.040 A 
ENDROOT
BRANCH   4  20
HETATM   20  O   UNK N   1      35.391  10.131  14.161  0.00  0.00    -0.386 OA
HETATM   21  H   UNK N   1      35.554   9.361  14.727  0.00  0.00     0.210 HD
ENDBRANCH   4  20
BRANCH  10  22
HETATM   22  O   UNK N   1      37.151  14.380  14.389  0.00  0.00    -0.393 OA
HETATM   23  H   UNK N   1      37.344  15.329  14.453  0.00  0.00     0.210 HD
ENDBRANCH  10  22
BRANCH  18  24
HETATM   24  O   UNK N   1      36.627  16.143  10.711  0.00  0.00    -0.358 OA
HETATM   25  H   UNK N   1      36.171  16.599  11.391  0.00  0.00     0.217 HD
ENDBRANCH  18  24
TORSDOF 3
ENDMDL
