REMARK  5 active torsions:
REMARK  status: ('A' for Active; 'I' for Inactive)
REMARK    1  A    between atoms: C_12  and  O_1 
REMARK    2  A    between atoms: O_1  and  C_15 
REMARK    3  A    between atoms: O_2  and  C_14 
REMARK    4  A    between atoms: C_8  and  C_14 
REMARK    5  A    between atoms: C_15  and  C_16 
ROOT
HETATM    1  N   UNK N   1       8.077   1.606  -0.776  0.00  0.00     0.094 N 
HETATM    2  C   UNK N   1       8.175   0.143  -0.720  0.00  0.00     0.239 C 
HETATM    3  C   UNK N   1       7.716   1.956   0.602  0.00  0.00     0.225 C 
HETATM    4  C   UNK N   1       6.762  -0.514  -0.641  0.00  0.00     0.146 C 
HETATM    5  C   UNK N   1       8.972  -0.097   0.562  0.00  0.00     0.039 C 
HETATM    6  C   UNK N   1       8.658   1.107   1.444  0.00  0.00     0.038 C 
HETATM    7  C   UNK N   1       6.240   1.597   0.919  0.00  0.00     0.069 C 
HETATM    8  C   UNK N   1       5.884   0.200   0.394  0.00  0.00     0.150 C 
HETATM    9  C   UNK N   1       7.143   2.116  -1.782  0.00  0.00     0.310 C 
ENDROOT
BRANCH   8  10
HETATM   10  O   UNK N   1       4.626  -0.335   0.605  0.00  0.00    -0.311 OA
BRANCH  10  11
HETATM   11  C   UNK N   1       3.428   0.186   0.263  0.00  0.00     0.293 C 
HETATM   12  O   UNK N   1       3.317   1.375  -0.044  0.00  0.00    -0.259 OA
BRANCH  11  13
HETATM   13  C   UNK N   1       2.252  -0.706   0.221  0.00  0.00     0.039 A 
HETATM   14  C   UNK N   1       2.427  -2.075   0.495  0.00  0.00     0.017 A 
HETATM   15  C   UNK N   1       1.347  -2.956   0.416  0.00  0.00     0.001 A 
HETATM   16  C   UNK N   1       0.082  -2.480   0.063  0.00  0.00     0.000 A 
HETATM   17  C   UNK N   1      -0.102  -1.120  -0.206  0.00  0.00     0.001 A 
HETATM   18  C   UNK N   1       0.981  -0.236  -0.131  0.00  0.00     0.017 A 
ENDBRANCH  11  13
ENDBRANCH  10  11
ENDBRANCH   8  10
BRANCH   4  19
HETATM   19  C   UNK N   1       6.766  -2.007  -0.351  0.00  0.00     0.148 C 
HETATM   20  O   UNK N   1       7.796  -2.592  -0.057  0.00  0.00    -0.650 OA
BRANCH  19  21
HETATM   21  O   UNK N   1       5.608  -2.695  -0.392  0.00  0.00    -0.776 OA
HETATM   22  H   UNK N   1       4.791  -2.237  -0.419  0.00  0.00     0.167 HD
ENDBRANCH  19  21
ENDBRANCH   4  19
TORSDOF 5
