MODEL 1
REMARK VINA RESULT:      -6.6      0.000      0.000
REMARK  5 active torsions:
REMARK  status: ('A' for Active; 'I' for Inactive)
REMARK    1  A    between atoms: C_12  and  O_1 
REMARK    2  A    between atoms: O_1  and  C_15 
REMARK    3  A    between atoms: O_2  and  C_14 
REMARK    4  A    between atoms: C_8  and  C_14 
REMARK    5  A    between atoms: C_15  and  C_16 
ROOT
HETATM    1  N   UNK N   1      35.950   9.878  11.865  0.00  0.00     0.094 N 
HETATM    2  C   UNK N   1      35.749  11.185  11.229  0.00  0.00     0.239 C 
HETATM    3  C   UNK N   1      34.642   9.614  12.474  0.00  0.00     0.225 C 
HETATM    4  C   UNK N   1      35.714  12.329  12.289  0.00  0.00     0.146 C 
HETATM    5  C   UNK N   1      34.394  11.024  10.540  0.00  0.00     0.039 C 
HETATM    6  C   UNK N   1      33.656   9.984  11.376  0.00  0.00     0.038 C 
HETATM    7  C   UNK N   1      34.404  10.493  13.730  0.00  0.00     0.069 C 
HETATM    8  C   UNK N   1      34.820  11.948  13.475  0.00  0.00     0.150 C 
HETATM    9  C   UNK N   1      37.067   9.827  12.811  0.00  0.00     0.310 C 
ENDROOT
BRANCH   8  10
HETATM   10  O   UNK N   1      34.653  12.912  14.453  0.00  0.00    -0.311 OA
BRANCH  10  11
HETATM   11  C   UNK N   1      35.543  13.323  15.382  0.00  0.00     0.293 C 
HETATM   12  O   UNK N   1      36.398  14.170  15.111  0.00  0.00    -0.259 OA
BRANCH  11  13
HETATM   13  C   UNK N   1      35.450  12.771  16.748  0.00  0.00     0.039 A 
HETATM   14  C   UNK N   1      35.169  13.643  17.816  0.00  0.00     0.017 A 
HETATM   15  C   UNK N   1      35.122  13.164  19.126  0.00  0.00     0.001 A 
HETATM   16  C   UNK N   1      35.355  11.811  19.384  0.00  0.00     0.000 A 
HETATM   17  C   UNK N   1      35.630  10.937  18.328  0.00  0.00     0.001 A 
HETATM   18  C   UNK N   1      35.681  11.416  17.014  0.00  0.00     0.017 A 
ENDBRANCH  11  13
ENDBRANCH  10  11
ENDBRANCH   8  10
BRANCH   4  19
HETATM   19  C   UNK N   1      35.285  13.686  11.753  0.00  0.00     0.148 C 
HETATM   20  O   UNK N   1      36.054  14.387  11.115  0.00  0.00    -0.650 OA
BRANCH  19  21
HETATM   21  O   UNK N   1      34.024  14.114  11.960  0.00  0.00    -0.776 OA
HETATM   22  H   UNK N   1      33.314  13.502  11.955  0.00  0.00     0.167 HD
ENDBRANCH  19  21
ENDBRANCH   4  19
TORSDOF 5
ENDMDL
MODEL 2
REMARK VINA RESULT:      -6.5     13.916     15.699
REMARK  5 active torsions:
REMARK  status: ('A' for Active; 'I' for Inactive)
REMARK    1  A    between atoms: C_12  and  O_1 
REMARK    2  A    between atoms: O_1  and  C_15 
REMARK    3  A    between atoms: O_2  and  C_14 
REMARK    4  A    between atoms: C_8  and  C_14 
REMARK    5  A    between atoms: C_15  and  C_16 
ROOT
HETATM    1  N   UNK N   1      21.566  15.169   4.894  0.00  0.00     0.094 N 
HETATM    2  C   UNK N   1      20.970  16.380   5.471  0.00  0.00     0.239 C 
HETATM    3  C   UNK N   1      20.610  14.126   5.280  0.00  0.00     0.225 C 
HETATM    4  C   UNK N   1      21.151  16.414   7.020  0.00  0.00     0.146 C 
HETATM    5  C   UNK N   1      19.496  16.251   5.086  0.00  0.00     0.039 C 
HETATM    6  C   UNK N   1      19.257  14.750   4.968  0.00  0.00     0.038 C 
HETATM    7  C   UNK N   1      20.709  13.785   6.791  0.00  0.00     0.069 C 
HETATM    8  C   UNK N   1      20.797  15.058   7.642  0.00  0.00     0.150 C 
HETATM    9  C   UNK N   1      22.940  14.903   5.324  0.00  0.00     0.310 C 
ENDROOT
BRANCH   8  10
HETATM   10  O   UNK N   1      20.853  14.983   9.022  0.00  0.00    -0.311 OA
BRANCH  10  11
HETATM   11  C   UNK N   1      20.817  13.881   9.802  0.00  0.00     0.293 C 
HETATM   12  O   UNK N   1      19.744  13.379  10.142  0.00  0.00    -0.259 OA
BRANCH  11  13
HETATM   13  C   UNK N   1      22.092  13.257  10.207  0.00  0.00     0.039 A 
HETATM   14  C   UNK N   1      23.254  13.541   9.467  0.00  0.00     0.017 A 
HETATM   15  C   UNK N   1      24.467  12.931   9.791  0.00  0.00     0.001 A 
HETATM   16  C   UNK N   1      24.533  12.031  10.858  0.00  0.00     0.000 A 
HETATM   17  C   UNK N   1      23.384  11.746  11.602  0.00  0.00     0.001 A 
HETATM   18  C   UNK N   1      22.166  12.354  11.275  0.00  0.00     0.017 A 
ENDBRANCH  11  13
ENDBRANCH  10  11
ENDBRANCH   8  10
BRANCH   4  19
HETATM   19  C   UNK N   1      20.372  17.511   7.730  0.00  0.00     0.148 C 
HETATM   20  O   UNK N   1      20.675  18.686   7.605  0.00  0.00    -0.650 OA
BRANCH  19  21
HETATM   21  O   UNK N   1      19.310  17.184   8.493  0.00  0.00    -0.776 OA
HETATM   22  H   UNK N   1      18.452  17.476   8.252  0.00  0.00     0.167 HD
ENDBRANCH  19  21
ENDBRANCH   4  19
TORSDOF 5
ENDMDL
MODEL 3
REMARK VINA RESULT:      -6.4      1.948      2.754
REMARK  5 active torsions:
REMARK  status: ('A' for Active; 'I' for Inactive)
REMARK    1  A    between atoms: C_12  and  O_1 
REMARK    2  A    between atoms: O_1  and  C_15 
REMARK    3  A    between atoms: O_2  and  C_14 
REMARK    4  A    between atoms: C_8  and  C_14 
REMARK    5  A    between atoms: C_15  and  C_16 
ROOT
HETATM    1  N   UNK N   1      37.330  12.952   9.656  0.00  0.00     0.094 N 
HETATM    2  C   UNK N   1      36.382  14.071   9.604  0.00  0.00     0.239 C 
HETATM    3  C   UNK N   1      36.480  11.832  10.074  0.00  0.00     0.225 C 
HETATM    4  C   UNK N   1      35.997  14.551  11.038  0.00  0.00     0.146 C 
HETATM    5  C   UNK N   1      35.180  13.467   8.878  0.00  0.00     0.039 C 
HETATM    6  C   UNK N   1      35.243  11.978   9.200  0.00  0.00     0.038 C 
HETATM    7  C   UNK N   1      36.094  11.931  11.574  0.00  0.00     0.069 C 
HETATM    8  C   UNK N   1      35.671  13.358  11.944  0.00  0.00     0.150 C 
HETATM    9  C   UNK N   1      38.488  13.175  10.524  0.00  0.00     0.310 C 
ENDROOT
BRANCH   8  10
HETATM   10  O   UNK N   1      35.248  13.659  13.226  0.00  0.00    -0.311 OA
BRANCH  10  11
HETATM   11  C   UNK N   1      36.002  13.902  14.320  0.00  0.00     0.293 C 
HETATM   12  O   UNK N   1      36.709  14.910  14.393  0.00  0.00    -0.259 OA
BRANCH  11  13
HETATM   13  C   UNK N   1      35.934  12.958  15.453  0.00  0.00     0.039 A 
HETATM   14  C   UNK N   1      36.486  11.672  15.301  0.00  0.00     0.017 A 
HETATM   15  C   UNK N   1      36.396  10.737  16.333  0.00  0.00     0.001 A 
HETATM   16  C   UNK N   1      35.755  11.075  17.527  0.00  0.00     0.000 A 
HETATM   17  C   UNK N   1      35.208  12.352  17.689  0.00  0.00     0.001 A 
HETATM   18  C   UNK N   1      35.294  13.289  16.653  0.00  0.00     0.017 A 
ENDBRANCH  11  13
ENDBRANCH  10  11
ENDBRANCH   8  10
BRANCH   4  19
HETATM   19  C   UNK N   1      34.852  15.551  11.092  0.00  0.00     0.148 C 
HETATM   20  O   UNK N   1      35.046  16.744  10.927  0.00  0.00    -0.650 OA
BRANCH  19  21
HETATM   21  O   UNK N   1      33.596  15.111  11.299  0.00  0.00    -0.776 OA
HETATM   22  H   UNK N   1      32.892  15.437  10.774  0.00  0.00     0.167 HD
ENDBRANCH  19  21
ENDBRANCH   4  19
TORSDOF 5
ENDMDL
MODEL 4
REMARK VINA RESULT:      -6.3     20.540     23.564
REMARK  5 active torsions:
REMARK  status: ('A' for Active; 'I' for Inactive)
REMARK    1  A    between atoms: C_12  and  O_1 
REMARK    2  A    between atoms: O_1  and  C_15 
REMARK    3  A    between atoms: O_2  and  C_14 
REMARK    4  A    between atoms: C_8  and  C_14 
REMARK    5  A    between atoms: C_15  and  C_16 
ROOT
HETATM    1  N   UNK N   1      30.773  22.693  -6.377  0.00  0.00     0.094 N 
HETATM    2  C   UNK N   1      31.311  22.373  -5.050  0.00  0.00     0.239 C 
HETATM    3  C   UNK N   1      30.788  24.159  -6.384  0.00  0.00     0.225 C 
HETATM    4  C   UNK N   1      30.260  22.654  -3.932  0.00  0.00     0.146 C 
HETATM    5  C   UNK N   1      32.512  23.312  -4.933  0.00  0.00     0.039 C 
HETATM    6  C   UNK N   1      32.157  24.505  -5.815  0.00  0.00     0.038 C 
HETATM    7  C   UNK N   1      29.668  24.751  -5.487  0.00  0.00     0.069 C 
HETATM    8  C   UNK N   1      29.592  24.019  -4.140  0.00  0.00     0.150 C 
HETATM    9  C   UNK N   1      29.459  22.111  -6.657  0.00  0.00     0.310 C 
ENDROOT
BRANCH   8  10
HETATM   10  O   UNK N   1      28.686  24.413  -3.172  0.00  0.00    -0.311 OA
BRANCH  10  11
HETATM   11  C   UNK N   1      27.339  24.335  -3.207  0.00  0.00     0.293 C 
HETATM   12  O   UNK N   1      26.740  23.427  -2.626  0.00  0.00    -0.259 OA
BRANCH  11  13
HETATM   13  C   UNK N   1      26.585  25.385  -3.921  0.00  0.00     0.039 A 
HETATM   14  C   UNK N   1      26.485  26.663  -3.342  0.00  0.00     0.017 A 
HETATM   15  C   UNK N   1      25.739  27.666  -3.965  0.00  0.00     0.001 A 
HETATM   16  C   UNK N   1      25.086  27.403  -5.171  0.00  0.00     0.000 A 
HETATM   17  C   UNK N   1      25.184  26.136  -5.756  0.00  0.00     0.001 A 
HETATM   18  C   UNK N   1      25.929  25.129  -5.131  0.00  0.00     0.017 A 
ENDBRANCH  11  13
ENDBRANCH  10  11
ENDBRANCH   8  10
BRANCH   4  19
HETATM   19  C   UNK N   1      30.798  22.571  -2.512  0.00  0.00     0.148 C 
HETATM   20  O   UNK N   1      31.801  21.926  -2.252  0.00  0.00    -0.650 OA
BRANCH  19  21
HETATM   21  O   UNK N   1      30.174  23.242  -1.524  0.00  0.00    -0.776 OA
HETATM   22  H   UNK N   1      30.256  24.174  -1.465  0.00  0.00     0.167 HD
ENDBRANCH  19  21
ENDBRANCH   4  19
TORSDOF 5
ENDMDL
MODEL 5
REMARK VINA RESULT:      -6.2      3.732      7.363
REMARK  5 active torsions:
REMARK  status: ('A' for Active; 'I' for Inactive)
REMARK    1  A    between atoms: C_12  and  O_1 
REMARK    2  A    between atoms: O_1  and  C_15 
REMARK    3  A    between atoms: O_2  and  C_14 
REMARK    4  A    between atoms: C_8  and  C_14 
REMARK    5  A    between atoms: C_15  and  C_16 
ROOT
HETATM    1  N   UNK N   1      36.400  11.825   9.831  0.00  0.00     0.094 N 
HETATM    2  C   UNK N   1      36.438  12.230  11.240  0.00  0.00     0.239 C 
HETATM    3  C   UNK N   1      37.128  12.911   9.166  0.00  0.00     0.225 C 
HETATM    4  C   UNK N   1      35.458  13.413  11.514  0.00  0.00     0.146 C 
HETATM    5  C   UNK N   1      37.892  12.657  11.434  0.00  0.00     0.039 C 
HETATM    6  C   UNK N   1      38.347  13.119  10.053  0.00  0.00     0.038 C 
HETATM    7  C   UNK N   1      36.285  14.212   9.098  0.00  0.00     0.069 C 
HETATM    8  C   UNK N   1      35.595  14.497  10.438  0.00  0.00     0.150 C 
HETATM    9  C   UNK N   1      35.055  11.600   9.297  0.00  0.00     0.310 C 
ENDROOT
BRANCH   8  10
HETATM   10  O   UNK N   1      34.824  15.633  10.609  0.00  0.00    -0.311 OA
BRANCH  10  11
HETATM   11  C   UNK N   1      34.850  16.777   9.892  0.00  0.00     0.293 C 
HETATM   12  O   UNK N   1      35.623  17.692  10.183  0.00  0.00    -0.259 OA
BRANCH  11  13
HETATM   13  C   UNK N   1      33.961  16.899   8.719  0.00  0.00     0.039 A 
HETATM   14  C   UNK N   1      32.725  16.226   8.729  0.00  0.00     0.017 A 
HETATM   15  C   UNK N   1      31.882  16.279   7.618  0.00  0.00     0.001 A 
HETATM   16  C   UNK N   1      32.263  17.003   6.486  0.00  0.00     0.000 A 
HETATM   17  C   UNK N   1      33.487  17.679   6.469  0.00  0.00     0.001 A 
HETATM   18  C   UNK N   1      34.336  17.624   7.581  0.00  0.00     0.017 A 
ENDBRANCH  11  13
ENDBRANCH  10  11
ENDBRANCH   8  10
BRANCH   4  19
HETATM   19  C   UNK N   1      35.592  14.050  12.888  0.00  0.00     0.148 C 
HETATM   20  O   UNK N   1      35.051  13.562  13.868  0.00  0.00    -0.650 OA
BRANCH  19  21
HETATM   21  O   UNK N   1      36.342  15.159  13.037  0.00  0.00    -0.776 OA
HETATM   22  H   UNK N   1      36.156  15.763  13.729  0.00  0.00     0.167 HD
ENDBRANCH  19  21
ENDBRANCH   4  19
TORSDOF 5
ENDMDL
MODEL 6
REMARK VINA RESULT:      -6.2      5.344      8.942
REMARK  5 active torsions:
REMARK  status: ('A' for Active; 'I' for Inactive)
REMARK    1  A    between atoms: C_12  and  O_1 
REMARK    2  A    between atoms: O_1  and  C_15 
REMARK    3  A    between atoms: O_2  and  C_14 
REMARK    4  A    between atoms: C_8  and  C_14 
REMARK    5  A    between atoms: C_15  and  C_16 
ROOT
HETATM    1  N   UNK N   1      35.497  12.753   8.877  0.00  0.00     0.094 N 
HETATM    2  C   UNK N   1      35.974  13.656   9.931  0.00  0.00     0.239 C 
HETATM    3  C   UNK N   1      35.893  13.454   7.651  0.00  0.00     0.225 C 
HETATM    4  C   UNK N   1      35.066  14.919  10.043  0.00  0.00     0.146 C 
HETATM    5  C   UNK N   1      37.380  14.022   9.456  0.00  0.00     0.039 C 
HETATM    6  C   UNK N   1      37.321  13.895   7.938  0.00  0.00     0.038 C 
HETATM    7  C   UNK N   1      34.993  14.688   7.378  0.00  0.00     0.069 C 
HETATM    8  C   UNK N   1      34.770  15.505   8.657  0.00  0.00     0.150 C 
HETATM    9  C   UNK N   1      34.069  12.437   8.945  0.00  0.00     0.310 C 
ENDROOT
BRANCH   8  10
HETATM   10  O   UNK N   1      34.028  16.672   8.630  0.00  0.00    -0.311 OA
BRANCH  10  11
HETATM   11  C   UNK N   1      34.007  17.628   7.677  0.00  0.00     0.293 C 
HETATM   12  O   UNK N   1      34.811  18.563   7.698  0.00  0.00    -0.259 OA
BRANCH  11  13
HETATM   13  C   UNK N   1      33.029  17.513   6.577  0.00  0.00     0.039 A 
HETATM   14  C   UNK N   1      31.679  17.271   6.890  0.00  0.00     0.017 A 
HETATM   15  C   UNK N   1      30.735  17.107   5.875  0.00  0.00     0.001 A 
HETATM   16  C   UNK N   1      31.130  17.183   4.537  0.00  0.00     0.000 A 
HETATM   17  C   UNK N   1      32.469  17.427   4.216  0.00  0.00     0.001 A 
HETATM   18  C   UNK N   1      33.417  17.588   5.233  0.00  0.00     0.017 A 
ENDBRANCH  11  13
ENDBRANCH  10  11
ENDBRANCH   8  10
BRANCH   4  19
HETATM   19  C   UNK N   1      35.607  16.017  10.947  0.00  0.00     0.148 C 
HETATM   20  O   UNK N   1      35.782  15.826  12.140  0.00  0.00    -0.650 OA
BRANCH  19  21
HETATM   21  O   UNK N   1      35.924  17.216  10.420  0.00  0.00    -0.776 OA
HETATM   22  H   UNK N   1      36.446  17.263   9.643  0.00  0.00     0.167 HD
ENDBRANCH  19  21
ENDBRANCH   4  19
TORSDOF 5
ENDMDL
MODEL 7
REMARK VINA RESULT:      -6.2     23.175     25.505
REMARK  5 active torsions:
REMARK  status: ('A' for Active; 'I' for Inactive)
REMARK    1  A    between atoms: C_12  and  O_1 
REMARK    2  A    between atoms: O_1  and  C_15 
REMARK    3  A    between atoms: O_2  and  C_14 
REMARK    4  A    between atoms: C_8  and  C_14 
REMARK    5  A    between atoms: C_15  and  C_16 
ROOT
HETATM    1  N   UNK N   1      27.460  27.751  -5.335  0.00  0.00     0.094 N 
HETATM    2  C   UNK N   1      27.711  26.828  -4.223  0.00  0.00     0.239 C 
HETATM    3  C   UNK N   1      25.996  27.754  -5.425  0.00  0.00     0.225 C 
HETATM    4  C   UNK N   1      27.468  25.348  -4.653  0.00  0.00     0.146 C 
HETATM    5  C   UNK N   1      26.695  27.275  -3.172  0.00  0.00     0.039 C 
HETATM    6  C   UNK N   1      25.550  27.883  -3.976  0.00  0.00     0.038 C 
HETATM    7  C   UNK N   1      25.455  26.436  -6.039  0.00  0.00     0.069 C 
HETATM    8  C   UNK N   1      26.155  25.213  -5.433  0.00  0.00     0.150 C 
HETATM    9  C   UNK N   1      28.131  27.393  -6.587  0.00  0.00     0.310 C 
ENDROOT
BRANCH   8  10
HETATM   10  O   UNK N   1      25.794  23.932  -5.811  0.00  0.00    -0.311 OA
BRANCH  10  11
HETATM   11  C   UNK N   1      25.931  23.349  -7.021  0.00  0.00     0.293 C 
HETATM   12  O   UNK N   1      25.158  23.613  -7.945  0.00  0.00    -0.259 OA
BRANCH  11  13
HETATM   13  C   UNK N   1      27.054  22.414  -7.236  0.00  0.00     0.039 A 
HETATM   14  C   UNK N   1      26.881  21.334  -8.121  0.00  0.00     0.017 A 
HETATM   15  C   UNK N   1      27.903  20.403  -8.310  0.00  0.00     0.001 A 
HETATM   16  C   UNK N   1      29.109  20.540  -7.618  0.00  0.00     0.000 A 
HETATM   17  C   UNK N   1      29.292  21.613  -6.740  0.00  0.00     0.001 A 
HETATM   18  C   UNK N   1      28.266  22.546  -6.547  0.00  0.00     0.017 A 
ENDBRANCH  11  13
ENDBRANCH  10  11
ENDBRANCH   8  10
BRANCH   4  19
HETATM   19  C   UNK N   1      27.481  24.340  -3.514  0.00  0.00     0.148 C 
HETATM   20  O   UNK N   1      28.530  23.926  -3.046  0.00  0.00    -0.650 OA
BRANCH  19  21
HETATM   21  O   UNK N   1      26.315  23.915  -2.990  0.00  0.00    -0.776 OA
HETATM   22  H   UNK N   1      25.732  23.392  -3.505  0.00  0.00     0.167 HD
ENDBRANCH  19  21
ENDBRANCH   4  19
TORSDOF 5
ENDMDL
MODEL 8
REMARK VINA RESULT:      -6.1     21.596     24.543
REMARK  5 active torsions:
REMARK  status: ('A' for Active; 'I' for Inactive)
REMARK    1  A    between atoms: C_12  and  O_1 
REMARK    2  A    between atoms: O_1  and  C_15 
REMARK    3  A    between atoms: O_2  and  C_14 
REMARK    4  A    between atoms: C_8  and  C_14 
REMARK    5  A    between atoms: C_15  and  C_16 
ROOT
HETATM    1  N   UNK N   1      29.534  28.572  -4.857  0.00  0.00     0.094 N 
HETATM    2  C   UNK N   1      28.120  28.737  -4.500  0.00  0.00     0.239 C 
HETATM    3  C   UNK N   1      29.461  27.865  -6.140  0.00  0.00     0.225 C 
HETATM    4  C   UNK N   1      27.498  27.387  -4.024  0.00  0.00     0.146 C 
HETATM    5  C   UNK N   1      27.489  29.207  -5.811  0.00  0.00     0.039 C 
HETATM    6  C   UNK N   1      28.379  28.618  -6.901  0.00  0.00     0.038 C 
HETATM    7  C   UNK N   1      29.053  26.379  -5.955  0.00  0.00     0.069 C 
HETATM    8  C   UNK N   1      27.886  26.243  -4.968  0.00  0.00     0.150 C 
HETATM    9  C   UNK N   1      30.341  27.887  -3.846  0.00  0.00     0.310 C 
ENDROOT
BRANCH   8  10
HETATM   10  O   UNK N   1      27.338  25.004  -4.688  0.00  0.00    -0.311 OA
BRANCH  10  11
HETATM   11  C   UNK N   1      27.614  24.182  -3.653  0.00  0.00     0.293 C 
HETATM   12  O   UNK N   1      26.809  24.029  -2.732  0.00  0.00    -0.259 OA
BRANCH  11  13
HETATM   13  C   UNK N   1      28.886  23.432  -3.662  0.00  0.00     0.039 A 
HETATM   14  C   UNK N   1      29.289  22.791  -4.848  0.00  0.00     0.017 A 
HETATM   15  C   UNK N   1      30.460  22.032  -4.880  0.00  0.00     0.001 A 
HETATM   16  C   UNK N   1      31.241  21.906  -3.728  0.00  0.00     0.000 A 
HETATM   17  C   UNK N   1      30.851  22.543  -2.546  0.00  0.00     0.001 A 
HETATM   18  C   UNK N   1      29.675  23.302  -2.512  0.00  0.00     0.017 A 
ENDBRANCH  11  13
ENDBRANCH  10  11
ENDBRANCH   8  10
BRANCH   4  19
HETATM   19  C   UNK N   1      25.987  27.404  -3.850  0.00  0.00     0.148 C 
HETATM   20  O   UNK N   1      25.470  27.893  -2.859  0.00  0.00    -0.650 OA
BRANCH  19  21
HETATM   21  O   UNK N   1      25.201  26.896  -4.819  0.00  0.00    -0.776 OA
HETATM   22  H   UNK N   1      24.649  26.160  -4.638  0.00  0.00     0.167 HD
ENDBRANCH  19  21
ENDBRANCH   4  19
TORSDOF 5
ENDMDL
MODEL 9
REMARK VINA RESULT:      -6.1      8.889     11.873
REMARK  5 active torsions:
REMARK  status: ('A' for Active; 'I' for Inactive)
REMARK    1  A    between atoms: C_12  and  O_1 
REMARK    2  A    between atoms: O_1  and  C_15 
REMARK    3  A    between atoms: O_2  and  C_14 
REMARK    4  A    between atoms: C_8  and  C_14 
REMARK    5  A    between atoms: C_15  and  C_16 
ROOT
HETATM    1  N   UNK N   1      32.433  15.433   4.896  0.00  0.00     0.094 N 
HETATM    2  C   UNK N   1      32.761  15.495   6.325  0.00  0.00     0.239 C 
HETATM    3  C   UNK N   1      32.260  16.846   4.546  0.00  0.00     0.225 C 
HETATM    4  C   UNK N   1      31.497  15.827   7.179  0.00  0.00     0.146 C 
HETATM    5  C   UNK N   1      33.789  16.624   6.392  0.00  0.00     0.039 C 
HETATM    6  C   UNK N   1      33.448  17.527   5.211  0.00  0.00     0.038 C 
HETATM    7  C   UNK N   1      30.930  17.419   5.104  0.00  0.00     0.069 C 
HETATM    8  C   UNK N   1      30.708  16.986   6.559  0.00  0.00     0.150 C 
HETATM    9  C   UNK N   1      31.277  14.595   4.572  0.00  0.00     0.310 C 
ENDROOT
BRANCH   8  10
HETATM   10  O   UNK N   1      29.599  17.419   7.264  0.00  0.00    -0.311 OA
BRANCH  10  11
HETATM   11  C   UNK N   1      28.315  17.476   6.850  0.00  0.00     0.293 C 
HETATM   12  O   UNK N   1      27.549  16.525   7.024  0.00  0.00    -0.259 OA
BRANCH  11  13
HETATM   13  C   UNK N   1      27.827  18.718   6.218  0.00  0.00     0.039 A 
HETATM   14  C   UNK N   1      27.682  19.872   7.010  0.00  0.00     0.017 A 
HETATM   15  C   UNK N   1      27.177  21.050   6.458  0.00  0.00     0.001 A 
HETATM   16  C   UNK N   1      26.810  21.089   5.110  0.00  0.00     0.000 A 
HETATM   17  C   UNK N   1      26.955  19.948   4.315  0.00  0.00     0.001 A 
HETATM   18  C   UNK N   1      27.458  18.764   4.868  0.00  0.00     0.017 A 
ENDBRANCH  11  13
ENDBRANCH  10  11
ENDBRANCH   8  10
BRANCH   4  19
HETATM   19  C   UNK N   1      31.777  16.136   8.642  0.00  0.00     0.148 C 
HETATM   20  O   UNK N   1      32.115  15.259   9.420  0.00  0.00    -0.650 OA
BRANCH  19  21
HETATM   21  O   UNK N   1      31.676  17.405   9.084  0.00  0.00    -0.776 OA
HETATM   22  H   UNK N   1      31.823  17.599   9.988  0.00  0.00     0.167 HD
ENDBRANCH  19  21
ENDBRANCH   4  19
TORSDOF 5
ENDMDL
