REMARK  6 active torsions:
REMARK  status: ('A' for Active; 'I' for Inactive)
REMARK    1  A    between atoms: O_1  and  C_11 
REMARK    2  A    between atoms: O_2  and  C_12 
REMARK    3  A    between atoms: O_3  and  C_13 
REMARK    4  A    between atoms: N_4  and  C_6 
REMARK    5  A    between atoms: C_5  and  C_6 
REMARK    6  A    between atoms: C_5  and  C_7 
ROOT
HETATM    1  C   UNK N   1       3.854  -0.970  -0.220  0.00  0.00    -0.051 A 
HETATM    2  C   UNK N   1       2.806  -0.055  -0.204  0.00  0.00     0.047 A 
HETATM    3  C   UNK N   1       5.164  -0.512  -0.105  0.00  0.00     0.047 A 
HETATM    4  C   UNK N   1       5.450   0.853   0.019  0.00  0.00     0.104 A 
HETATM    5  C   UNK N   1       3.041   1.321  -0.063  0.00  0.00     0.104 A 
HETATM    6  C   UNK N   1       4.379   1.795   0.035  0.00  0.00     0.135 A 
ENDROOT
BRANCH   1   7
HETATM    7  C   UNK N   1       3.596  -2.430  -0.457  0.00  0.00     0.062 C 
BRANCH   7   8
HETATM    8  C   UNK N   1       2.477  -3.018   0.399  0.00  0.00     0.074 C 
HETATM    9  C   UNK N   1       1.124  -2.581  -0.138  0.00  0.00     0.032 C 
BRANCH   8  10
HETATM   10  N   UNK N   1       2.546  -4.466   0.336  0.00  0.00    -0.426 N 
HETATM   11  H   UNK N   1       1.688  -5.016   0.292  0.00  0.00     0.150 HD
HETATM   12  H   UNK N   1       3.452  -4.933   0.336  0.00  0.00     0.150 HD
ENDBRANCH   8  10
ENDBRANCH   7   8
ENDBRANCH   1   7
BRANCH   5  13
HETATM   13  O   UNK N   1       1.995   2.183  -0.026  0.00  0.00    -0.353 OA
HETATM   14  C   UNK N   1       0.677   1.784  -0.074  0.00  0.00     0.210 C 
ENDBRANCH   5  13
BRANCH   4  15
HETATM   15  O   UNK N   1       6.762   1.205   0.102  0.00  0.00    -0.353 OA
HETATM   16  C   UNK N   1       7.252   2.490   0.170  0.00  0.00     0.210 C 
ENDBRANCH   4  15
BRANCH   6  17
HETATM   17  O   UNK N   1       4.670   3.124   0.143  0.00  0.00    -0.351 OA
HETATM   18  C   UNK N   1       3.767   4.160   0.084  0.00  0.00     0.210 C 
ENDBRANCH   6  17
TORSDOF 6
