MODEL 1
REMARK VINA RESULT:      -4.8      0.000      0.000
REMARK  6 active torsions:
REMARK  status: ('A' for Active; 'I' for Inactive)
REMARK    1  A    between atoms: O_1  and  C_11 
REMARK    2  A    between atoms: O_2  and  C_12 
REMARK    3  A    between atoms: O_3  and  C_13 
REMARK    4  A    between atoms: N_4  and  C_6 
REMARK    5  A    between atoms: C_5  and  C_6 
REMARK    6  A    between atoms: C_5  and  C_7 
ROOT
HETATM    1  C   UNK N   1      30.467  17.233   7.117  0.00  0.00    -0.051 A 
HETATM    2  C   UNK N   1      30.767  16.761   5.843  0.00  0.00     0.047 A 
HETATM    3  C   UNK N   1      31.504  17.553   7.990  0.00  0.00     0.047 A 
HETATM    4  C   UNK N   1      32.844  17.403   7.614  0.00  0.00     0.104 A 
HETATM    5  C   UNK N   1      32.094  16.611   5.414  0.00  0.00     0.104 A 
HETATM    6  C   UNK N   1      33.157  16.919   6.310  0.00  0.00     0.135 A 
ENDROOT
BRANCH   1   7
HETATM    7  C   UNK N   1      29.045  17.307   7.594  0.00  0.00     0.062 C 
BRANCH   7   8
HETATM    8  C   UNK N   1      28.608  18.696   8.053  0.00  0.00     0.074 C 
HETATM    9  C   UNK N   1      27.923  19.431   6.913  0.00  0.00     0.032 C 
BRANCH   8  10
HETATM   10  N   UNK N   1      27.658  18.556   9.141  0.00  0.00    -0.426 N 
HETATM   11  H   UNK N   1      26.742  19.000   9.079  0.00  0.00     0.150 HD
HETATM   12  H   UNK N   1      27.907  18.014   9.968  0.00  0.00     0.150 HD
ENDBRANCH   8  10
ENDBRANCH   7   8
ENDBRANCH   1   7
BRANCH   5  13
HETATM   13  O   UNK N   1      32.351  16.173   4.157  0.00  0.00    -0.353 OA
HETATM   14  C   UNK N   1      32.350  16.993   3.050  0.00  0.00     0.210 C 
ENDBRANCH   5  13
BRANCH   4  15
HETATM   15  O   UNK N   1      33.786  17.720   8.544  0.00  0.00    -0.353 OA
HETATM   16  C   UNK N   1      34.386  16.843   9.420  0.00  0.00     0.210 C 
ENDBRANCH   4  15
BRANCH   6  17
HETATM   17  O   UNK N   1      34.466  16.764   5.959  0.00  0.00    -0.351 OA
HETATM   18  C   UNK N   1      35.178  15.587   5.978  0.00  0.00     0.210 C 
ENDBRANCH   6  17
TORSDOF 6
ENDMDL
MODEL 2
REMARK VINA RESULT:      -4.8      0.774      3.149
REMARK  6 active torsions:
REMARK  status: ('A' for Active; 'I' for Inactive)
REMARK    1  A    between atoms: O_1  and  C_11 
REMARK    2  A    between atoms: O_2  and  C_12 
REMARK    3  A    between atoms: O_3  and  C_13 
REMARK    4  A    between atoms: N_4  and  C_6 
REMARK    5  A    between atoms: C_5  and  C_6 
REMARK    6  A    between atoms: C_5  and  C_7 
ROOT
HETATM    1  C   UNK N   1      30.329  17.181   6.981  0.00  0.00    -0.051 A 
HETATM    2  C   UNK N   1      31.154  16.916   8.069  0.00  0.00     0.047 A 
HETATM    3  C   UNK N   1      30.887  17.291   5.710  0.00  0.00     0.047 A 
HETATM    4  C   UNK N   1      32.265  17.150   5.505  0.00  0.00     0.104 A 
HETATM    5  C   UNK N   1      32.538  16.747   7.912  0.00  0.00     0.104 A 
HETATM    6  C   UNK N   1      33.115  16.879   6.618  0.00  0.00     0.135 A 
ENDROOT
BRANCH   1   7
HETATM    7  C   UNK N   1      28.863  17.444   7.174  0.00  0.00     0.062 C 
BRANCH   7   8
HETATM    8  C   UNK N   1      28.549  18.747   7.904  0.00  0.00     0.074 C 
HETATM    9  C   UNK N   1      27.799  19.695   6.981  0.00  0.00     0.032 C 
BRANCH   8  10
HETATM   10  N   UNK N   1      27.702  18.456   9.045  0.00  0.00    -0.426 N 
HETATM   11  H   UNK N   1      28.075  17.934   9.838  0.00  0.00     0.150 HD
HETATM   12  H   UNK N   1      26.733  18.774   9.054  0.00  0.00     0.150 HD
ENDBRANCH   8  10
ENDBRANCH   7   8
ENDBRANCH   1   7
BRANCH   5  13
HETATM   13  O   UNK N   1      33.310  16.465   8.990  0.00  0.00    -0.353 OA
HETATM   14  C   UNK N   1      33.461  15.197   9.509  0.00  0.00     0.210 C 
ENDBRANCH   5  13
BRANCH   4  15
HETATM   15  O   UNK N   1      32.719  17.298   4.231  0.00  0.00    -0.353 OA
HETATM   16  C   UNK N   1      32.076  16.877   3.088  0.00  0.00     0.210 C 
ENDBRANCH   4  15
BRANCH   6  17
HETATM   17  O   UNK N   1      34.458  16.756   6.409  0.00  0.00    -0.351 OA
HETATM   18  C   UNK N   1      35.131  15.591   6.118  0.00  0.00     0.210 C 
ENDBRANCH   6  17
TORSDOF 6
ENDMDL
MODEL 3
REMARK VINA RESULT:      -4.8      2.531      5.081
REMARK  6 active torsions:
REMARK  status: ('A' for Active; 'I' for Inactive)
REMARK    1  A    between atoms: O_1  and  C_11 
REMARK    2  A    between atoms: O_2  and  C_12 
REMARK    3  A    between atoms: O_3  and  C_13 
REMARK    4  A    between atoms: N_4  and  C_6 
REMARK    5  A    between atoms: C_5  and  C_6 
REMARK    6  A    between atoms: C_5  and  C_7 
ROOT
HETATM    1  C   UNK N   1      33.251  17.562   7.317  0.00  0.00    -0.051 A 
HETATM    2  C   UNK N   1      31.946  17.406   7.774  0.00  0.00     0.047 A 
HETATM    3  C   UNK N   1      33.506  17.520   5.949  0.00  0.00     0.047 A 
HETATM    4  C   UNK N   1      32.477  17.317   5.022  0.00  0.00     0.104 A 
HETATM    5  C   UNK N   1      30.878  17.218   6.883  0.00  0.00     0.104 A 
HETATM    6  C   UNK N   1      31.138  17.155   5.485  0.00  0.00     0.135 A 
ENDROOT
BRANCH   1   7
HETATM    7  C   UNK N   1      34.395  17.676   8.283  0.00  0.00     0.062 C 
BRANCH   7   8
HETATM    8  C   UNK N   1      34.379  16.639   9.403  0.00  0.00     0.074 C 
HETATM    9  C   UNK N   1      35.133  15.392   8.970  0.00  0.00     0.032 C 
BRANCH   8  10
HETATM   10  N   UNK N   1      35.043  17.192  10.568  0.00  0.00    -0.426 N 
HETATM   11  H   UNK N   1      35.238  18.192  10.617  0.00  0.00     0.150 HD
HETATM   12  H   UNK N   1      35.314  16.581  11.337  0.00  0.00     0.150 HD
ENDBRANCH   8  10
ENDBRANCH   7   8
ENDBRANCH   1   7
BRANCH   5  13
HETATM   13  O   UNK N   1      29.616  17.095   7.361  0.00  0.00    -0.353 OA
HETATM   14  C   UNK N   1      28.868  18.157   7.821  0.00  0.00     0.210 C 
ENDBRANCH   5  13
BRANCH   4  15
HETATM   15  O   UNK N   1      32.829  17.268   3.708  0.00  0.00    -0.353 OA
HETATM   16  C   UNK N   1      33.254  16.151   3.025  0.00  0.00     0.210 C 
ENDBRANCH   4  15
BRANCH   6  17
HETATM   17  O   UNK N   1      30.144  16.945   4.574  0.00  0.00    -0.351 OA
HETATM   18  C   UNK N   1      29.682  15.722   4.146  0.00  0.00     0.210 C 
ENDBRANCH   6  17
TORSDOF 6
ENDMDL
MODEL 4
REMARK VINA RESULT:      -4.7      2.599      4.560
REMARK  6 active torsions:
REMARK  status: ('A' for Active; 'I' for Inactive)
REMARK    1  A    between atoms: O_1  and  C_11 
REMARK    2  A    between atoms: O_2  and  C_12 
REMARK    3  A    between atoms: O_3  and  C_13 
REMARK    4  A    between atoms: N_4  and  C_6 
REMARK    5  A    between atoms: C_5  and  C_6 
REMARK    6  A    between atoms: C_5  and  C_7 
ROOT
HETATM    1  C   UNK N   1      33.202  17.511   7.260  0.00  0.00    -0.051 A 
HETATM    2  C   UNK N   1      33.493  17.504   5.899  0.00  0.00     0.047 A 
HETATM    3  C   UNK N   1      31.881  17.369   7.677  0.00  0.00     0.047 A 
HETATM    4  C   UNK N   1      30.837  17.227   6.756  0.00  0.00     0.104 A 
HETATM    5  C   UNK N   1      32.483  17.345   4.938  0.00  0.00     0.104 A 
HETATM    6  C   UNK N   1      31.130  17.220   5.360  0.00  0.00     0.135 A 
ENDROOT
BRANCH   1   7
HETATM    7  C   UNK N   1      34.278  17.766   8.275  0.00  0.00     0.062 C 
BRANCH   7   8
HETATM    8  C   UNK N   1      34.356  16.722   9.386  0.00  0.00     0.074 C 
HETATM    9  C   UNK N   1      35.081  15.483   8.888  0.00  0.00     0.032 C 
BRANCH   8  10
HETATM   10  N   UNK N   1      35.107  17.273  10.499  0.00  0.00    -0.426 N 
HETATM   11  H   UNK N   1      35.791  18.012  10.336  0.00  0.00     0.150 HD
HETATM   12  H   UNK N   1      34.950  16.921  11.442  0.00  0.00     0.150 HD
ENDBRANCH   8  10
ENDBRANCH   7   8
ENDBRANCH   1   7
BRANCH   5  13
HETATM   13  O   UNK N   1      32.805  17.317   3.621  0.00  0.00    -0.353 OA
HETATM   14  C   UNK N   1      33.225  16.182   2.963  0.00  0.00     0.210 C 
ENDBRANCH   5  13
BRANCH   4  15
HETATM   15  O   UNK N   1      29.577  17.118   7.260  0.00  0.00    -0.353 OA
HETATM   16  C   UNK N   1      29.086  17.783   8.361  0.00  0.00     0.210 C 
ENDBRANCH   4  15
BRANCH   6  17
HETATM   17  O   UNK N   1      30.103  17.094   4.470  0.00  0.00    -0.351 OA
HETATM   18  C   UNK N   1      29.604  15.914   3.969  0.00  0.00     0.210 C 
ENDBRANCH   6  17
TORSDOF 6
ENDMDL
MODEL 5
REMARK VINA RESULT:      -4.7      7.248     10.156
REMARK  6 active torsions:
REMARK  status: ('A' for Active; 'I' for Inactive)
REMARK    1  A    between atoms: O_1  and  C_11 
REMARK    2  A    between atoms: O_2  and  C_12 
REMARK    3  A    between atoms: O_3  and  C_13 
REMARK    4  A    between atoms: N_4  and  C_6 
REMARK    5  A    between atoms: C_5  and  C_6 
REMARK    6  A    between atoms: C_5  and  C_7 
ROOT
HETATM    1  C   UNK N   1      24.674  19.855   3.603  0.00  0.00    -0.051 A 
HETATM    2  C   UNK N   1      23.736  20.578   2.872  0.00  0.00     0.047 A 
HETATM    3  C   UNK N   1      24.249  18.806   4.413  0.00  0.00     0.047 A 
HETATM    4  C   UNK N   1      22.895  18.466   4.515  0.00  0.00     0.104 A 
HETATM    5  C   UNK N   1      22.369  20.264   2.927  0.00  0.00     0.104 A 
HETATM    6  C   UNK N   1      21.929  19.205   3.769  0.00  0.00     0.135 A 
ENDROOT
BRANCH   1   7
HETATM    7  C   UNK N   1      26.121  20.255   3.602  0.00  0.00     0.062 C 
BRANCH   7   8
HETATM    8  C   UNK N   1      26.842  20.008   4.925  0.00  0.00     0.074 C 
HETATM    9  C   UNK N   1      28.163  19.299   4.676  0.00  0.00     0.032 C 
BRANCH   8  10
HETATM   10  N   UNK N   1      27.121  21.284   5.556  0.00  0.00    -0.426 N 
HETATM   11  H   UNK N   1      27.097  22.142   5.004  0.00  0.00     0.150 HD
HETATM   12  H   UNK N   1      27.342  21.323   6.550  0.00  0.00     0.150 HD
ENDBRANCH   8  10
ENDBRANCH   7   8
ENDBRANCH   1   7
BRANCH   5  13
HETATM   13  O   UNK N   1      21.484  20.972   2.183  0.00  0.00    -0.353 OA
HETATM   14  C   UNK N   1      21.036  20.569   0.944  0.00  0.00     0.210 C 
ENDBRANCH   5  13
BRANCH   4  15
HETATM   15  O   UNK N   1      22.575  17.441   5.351  0.00  0.00    -0.353 OA
HETATM   16  C   UNK N   1      22.889  16.114   5.159  0.00  0.00     0.210 C 
ENDBRANCH   4  15
BRANCH   6  17
HETATM   17  O   UNK N   1      20.610  18.874   3.886  0.00  0.00    -0.351 OA
HETATM   18  C   UNK N   1      19.955  17.890   3.183  0.00  0.00     0.210 C 
ENDBRANCH   6  17
TORSDOF 6
ENDMDL
MODEL 6
REMARK VINA RESULT:      -4.7     14.046     16.188
REMARK  6 active torsions:
REMARK  status: ('A' for Active; 'I' for Inactive)
REMARK    1  A    between atoms: O_1  and  C_11 
REMARK    2  A    between atoms: O_2  and  C_12 
REMARK    3  A    between atoms: O_3  and  C_13 
REMARK    4  A    between atoms: N_4  and  C_6 
REMARK    5  A    between atoms: C_5  and  C_6 
REMARK    6  A    between atoms: C_5  and  C_7 
ROOT
HETATM    1  C   UNK N   1      25.920  27.286  -4.175  0.00  0.00    -0.051 A 
HETATM    2  C   UNK N   1      26.315  26.248  -3.337  0.00  0.00     0.047 A 
HETATM    3  C   UNK N   1      25.589  27.009  -5.499  0.00  0.00     0.047 A 
HETATM    4  C   UNK N   1      25.654  25.706  -6.008  0.00  0.00     0.104 A 
HETATM    5  C   UNK N   1      26.378  24.924  -3.796  0.00  0.00     0.104 A 
HETATM    6  C   UNK N   1      26.060  24.639  -5.153  0.00  0.00     0.135 A 
ENDROOT
BRANCH   1   7
HETATM    7  C   UNK N   1      25.939  28.709  -3.697  0.00  0.00     0.062 C 
BRANCH   7   8
HETATM    8  C   UNK N   1      26.917  29.611  -4.447  0.00  0.00     0.074 C 
HETATM    9  C   UNK N   1      26.695  31.062  -4.055  0.00  0.00     0.032 C 
BRANCH   8  10
HETATM   10  N   UNK N   1      28.272  29.243  -4.081  0.00  0.00    -0.426 N 
HETATM   11  H   UNK N   1      28.633  29.477  -3.156  0.00  0.00     0.150 HD
HETATM   12  H   UNK N   1      28.864  28.751  -4.750  0.00  0.00     0.150 HD
ENDBRANCH   8  10
ENDBRANCH   7   8
ENDBRANCH   1   7
BRANCH   5  13
HETATM   13  O   UNK N   1      26.743  23.933  -2.946  0.00  0.00    -0.353 OA
HETATM   14  C   UNK N   1      28.053  23.582  -2.703  0.00  0.00     0.210 C 
ENDBRANCH   5  13
BRANCH   4  15
HETATM   15  O   UNK N   1      25.333  25.538  -7.320  0.00  0.00    -0.353 OA
HETATM   16  C   UNK N   1      25.937  26.166  -8.386  0.00  0.00     0.210 C 
ENDBRANCH   4  15
BRANCH   6  17
HETATM   17  O   UNK N   1      26.132  23.375  -5.663  0.00  0.00    -0.351 OA
HETATM   18  C   UNK N   1      27.146  22.872  -6.445  0.00  0.00     0.210 C 
ENDBRANCH   6  17
TORSDOF 6
ENDMDL
MODEL 7
REMARK VINA RESULT:      -4.7      9.242     11.611
REMARK  6 active torsions:
REMARK  status: ('A' for Active; 'I' for Inactive)
REMARK    1  A    between atoms: O_1  and  C_11 
REMARK    2  A    between atoms: O_2  and  C_12 
REMARK    3  A    between atoms: O_3  and  C_13 
REMARK    4  A    between atoms: N_4  and  C_6 
REMARK    5  A    between atoms: C_5  and  C_6 
REMARK    6  A    between atoms: C_5  and  C_7 
ROOT
HETATM    1  C   UNK N   1      21.177  13.646   9.527  0.00  0.00    -0.051 A 
HETATM    2  C   UNK N   1      22.154  13.702   8.538  0.00  0.00     0.047 A 
HETATM    3  C   UNK N   1      20.094  14.519   9.469  0.00  0.00     0.047 A 
HETATM    4  C   UNK N   1      19.970  15.459   8.439  0.00  0.00     0.104 A 
HETATM    5  C   UNK N   1      22.065  14.614   7.475  0.00  0.00     0.104 A 
HETATM    6  C   UNK N   1      20.970  15.521   7.423  0.00  0.00     0.135 A 
ENDROOT
BRANCH   1   7
HETATM    7  C   UNK N   1      21.327  12.727  10.705  0.00  0.00     0.062 C 
BRANCH   7   8
HETATM    8  C   UNK N   1      22.754  12.238  10.943  0.00  0.00     0.074 C 
HETATM    9  C   UNK N   1      22.988  12.013  12.428  0.00  0.00     0.032 C 
BRANCH   8  10
HETATM   10  N   UNK N   1      22.940  10.973  10.256  0.00  0.00    -0.426 N 
HETATM   11  H   UNK N   1      22.258  10.224  10.372  0.00  0.00     0.150 HD
HETATM   12  H   UNK N   1      23.754  10.834   9.657  0.00  0.00     0.150 HD
ENDBRANCH   8  10
ENDBRANCH   7   8
ENDBRANCH   1   7
BRANCH   5  13
HETATM   13  O   UNK N   1      23.021  14.624   6.514  0.00  0.00    -0.353 OA
HETATM   14  C   UNK N   1      24.280  15.153   6.699  0.00  0.00     0.210 C 
ENDBRANCH   5  13
BRANCH   4  15
HETATM   15  O   UNK N   1      18.889  16.284   8.481  0.00  0.00    -0.353 OA
HETATM   16  C   UNK N   1      18.827  17.506   9.114  0.00  0.00     0.210 C 
ENDBRANCH   4  15
BRANCH   6  17
HETATM   17  O   UNK N   1      20.846  16.449   6.430  0.00  0.00    -0.351 OA
HETATM   18  C   UNK N   1      21.404  17.707   6.421  0.00  0.00     0.210 C 
ENDBRANCH   6  17
TORSDOF 6
ENDMDL
MODEL 8
REMARK VINA RESULT:      -4.7     14.099     15.978
REMARK  6 active torsions:
REMARK  status: ('A' for Active; 'I' for Inactive)
REMARK    1  A    between atoms: O_1  and  C_11 
REMARK    2  A    between atoms: O_2  and  C_12 
REMARK    3  A    between atoms: O_3  and  C_13 
REMARK    4  A    between atoms: N_4  and  C_6 
REMARK    5  A    between atoms: C_5  and  C_6 
REMARK    6  A    between atoms: C_5  and  C_7 
ROOT
HETATM    1  C   UNK N   1      25.996  27.369  -4.365  0.00  0.00    -0.051 A 
HETATM    2  C   UNK N   1      25.614  27.082  -5.671  0.00  0.00     0.047 A 
HETATM    3  C   UNK N   1      26.355  26.328  -3.512  0.00  0.00     0.047 A 
HETATM    4  C   UNK N   1      26.332  24.996  -3.941  0.00  0.00     0.104 A 
HETATM    5  C   UNK N   1      25.593  25.765  -6.152  0.00  0.00     0.104 A 
HETATM    6  C   UNK N   1      25.939  24.696  -5.279  0.00  0.00     0.135 A 
ENDROOT
BRANCH   1   7
HETATM    7  C   UNK N   1      25.933  28.773  -3.836  0.00  0.00     0.062 C 
BRANCH   7   8
HETATM    8  C   UNK N   1      27.289  29.466  -3.727  0.00  0.00     0.074 C 
HETATM    9  C   UNK N   1      27.673  30.075  -5.066  0.00  0.00     0.032 C 
BRANCH   8  10
HETATM   10  N   UNK N   1      27.195  30.535  -2.751  0.00  0.00    -0.426 N 
HETATM   11  H   UNK N   1      26.330  31.068  -2.659  0.00  0.00     0.150 HD
HETATM   12  H   UNK N   1      27.994  30.754  -2.157  0.00  0.00     0.150 HD
ENDBRANCH   8  10
ENDBRANCH   7   8
ENDBRANCH   1   7
BRANCH   5  13
HETATM   13  O   UNK N   1      25.239  25.522  -7.439  0.00  0.00    -0.353 OA
HETATM   14  C   UNK N   1      25.977  25.943  -8.524  0.00  0.00     0.210 C 
ENDBRANCH   5  13
BRANCH   4  15
HETATM   15  O   UNK N   1      26.677  24.047  -3.028  0.00  0.00    -0.353 OA
HETATM   16  C   UNK N   1      27.957  23.630  -2.739  0.00  0.00     0.210 C 
ENDBRANCH   4  15
BRANCH   6  17
HETATM   17  O   UNK N   1      25.908  23.393  -5.682  0.00  0.00    -0.351 OA
HETATM   18  C   UNK N   1      26.801  22.784  -6.533  0.00  0.00     0.210 C 
ENDBRANCH   6  17
TORSDOF 6
ENDMDL
MODEL 9
REMARK VINA RESULT:      -4.7      7.453     10.638
REMARK  6 active torsions:
REMARK  status: ('A' for Active; 'I' for Inactive)
REMARK    1  A    between atoms: O_1  and  C_11 
REMARK    2  A    between atoms: O_2  and  C_12 
REMARK    3  A    between atoms: O_3  and  C_13 
REMARK    4  A    between atoms: N_4  and  C_6 
REMARK    5  A    between atoms: C_5  and  C_6 
REMARK    6  A    between atoms: C_5  and  C_7 
ROOT
HETATM    1  C   UNK N   1      24.445  19.850   3.635  0.00  0.00    -0.051 A 
HETATM    2  C   UNK N   1      23.981  18.783   4.398  0.00  0.00     0.047 A 
HETATM    3  C   UNK N   1      23.545  20.589   2.872  0.00  0.00     0.047 A 
HETATM    4  C   UNK N   1      22.180  20.275   2.850  0.00  0.00     0.104 A 
HETATM    5  C   UNK N   1      22.621  18.442   4.423  0.00  0.00     0.104 A 
HETATM    6  C   UNK N   1      21.700  19.181   3.629  0.00  0.00     0.135 A 
ENDROOT
BRANCH   1   7
HETATM    7  C   UNK N   1      25.914  20.152   3.550  0.00  0.00     0.062 C 
BRANCH   7   8
HETATM    8  C   UNK N   1      26.675  19.945   4.856  0.00  0.00     0.074 C 
HETATM    9  C   UNK N   1      28.140  19.660   4.568  0.00  0.00     0.032 C 
BRANCH   8  10
HETATM   10  N   UNK N   1      26.595  21.160   5.647  0.00  0.00    -0.426 N 
HETATM   11  H   UNK N   1      27.415  21.759   5.745  0.00  0.00     0.150 HD
HETATM   12  H   UNK N   1      25.720  21.413   6.104  0.00  0.00     0.150 HD
ENDBRANCH   8  10
ENDBRANCH   7   8
ENDBRANCH   1   7
BRANCH   5  13
HETATM   13  O   UNK N   1      22.198  17.411   5.196  0.00  0.00    -0.353 OA
HETATM   14  C   UNK N   1      22.427  16.087   4.893  0.00  0.00     0.210 C 
ENDBRANCH   5  13
BRANCH   4  15
HETATM   15  O   UNK N   1      21.383  21.040   2.055  0.00  0.00    -0.353 OA
HETATM   16  C   UNK N   1      20.963  20.721   0.784  0.00  0.00     0.210 C 
ENDBRANCH   4  15
BRANCH   6  17
HETATM   17  O   UNK N   1      20.370  18.876   3.589  0.00  0.00    -0.351 OA
HETATM   18  C   UNK N   1      19.781  17.914   2.801  0.00  0.00     0.210 C 
ENDBRANCH   6  17
TORSDOF 6
ENDMDL
