MODEL 1
REMARK VINA RESULT:      -6.1      0.000      0.000
REMARK  9 active torsions:
REMARK  status: ('A' for Active; 'I' for Inactive)
REMARK    1  A    between atoms: O_1  and  C_11 
REMARK    2  A    between atoms: O_1  and  C_19 
REMARK    3  A    between atoms: O_3  and  C_15 
REMARK    4  A    between atoms: O_3  and  C_20 
REMARK    5  A    between atoms: N_4  and  C_12 
REMARK    6  A    between atoms: C_5  and  C_10 
REMARK    7  A    between atoms: C_5  and  C_11 
REMARK    8  A    between atoms: C_12  and  C_15 
REMARK    9  A    between atoms: C_20  and  C_22 
ROOT
HETATM    1  N   UNK N   1      30.680  26.381  -5.673  0.00  0.00     0.090 N 
HETATM    2  C   UNK N   1      30.307  24.131  -4.003  0.00  0.00     0.078 C 
HETATM    3  C   UNK N   1      30.499  25.504  -3.321  0.00  0.00     0.055 C 
HETATM    4  C   UNK N   1      31.189  24.003  -5.264  0.00  0.00     0.055 C 
HETATM    5  C   UNK N   1      30.458  26.720  -4.260  0.00  0.00     0.274 C 
HETATM    6  C   UNK N   1      31.686  25.333  -5.835  0.00  0.00     0.274 C 
ENDROOT
BRANCH   2   7
HETATM    7  C   UNK N   1      28.820  23.998  -4.407  0.00  0.00    -0.040 A 
HETATM    8  C   UNK N   1      27.771  24.372  -3.547  0.00  0.00     0.008 A 
HETATM    9  C   UNK N   1      26.436  24.278  -3.947  0.00  0.00     0.001 A 
HETATM   10  C   UNK N   1      26.121  23.806  -5.221  0.00  0.00     0.000 A 
HETATM   11  C   UNK N   1      27.142  23.425  -6.091  0.00  0.00     0.001 A 
HETATM   12  C   UNK N   1      28.476  23.523  -5.688  0.00  0.00     0.008 A 
ENDBRANCH   2   7
BRANCH   2  13
HETATM   13  C   UNK N   1      30.834  23.066  -3.015  0.00  0.00     0.272 C 
HETATM   14  O   UNK N   1      30.704  23.221  -1.810  0.00  0.00    -0.264 OA
BRANCH  13  15
HETATM   15  O   UNK N   1      31.446  21.924  -3.434  0.00  0.00    -0.321 OA
BRANCH  15  16
HETATM   16  C   UNK N   1      30.801  20.763  -3.793  0.00  0.00     0.174 C 
HETATM   17  C   UNK N   1      31.334  20.287  -5.128  0.00  0.00     0.034 C 
ENDBRANCH  15  16
ENDBRANCH  13  15
ENDBRANCH   2  13
BRANCH   1  18
HETATM   18  C   UNK N   1      31.065  27.586  -6.415  0.00  0.00     0.298 C 
BRANCH  18  19
HETATM   19  C   UNK N   1      30.338  27.723  -7.754  0.00  0.00     0.198 C 
BRANCH  19  20
HETATM   20  O   UNK N   1      29.178  28.482  -7.589  0.00  0.00    -0.385 OA
BRANCH  20  21
HETATM   21  C   UNK N   1      28.121  27.589  -7.791  0.00  0.00     0.206 C 
BRANCH  21  22
HETATM   22  C   UNK N   1      27.113  27.654  -6.683  0.00  0.00    -0.035 A 
HETATM   23  C   UNK N   1      25.857  27.038  -6.801  0.00  0.00     0.009 A 
HETATM   24  C   UNK N   1      24.942  27.098  -5.748  0.00  0.00     0.001 A 
HETATM   25  C   UNK N   1      25.276  27.774  -4.571  0.00  0.00     0.000 A 
HETATM   26  C   UNK N   1      26.525  28.391  -4.450  0.00  0.00     0.001 A 
HETATM   27  C   UNK N   1      27.442  28.330  -5.504  0.00  0.00     0.009 A 
ENDBRANCH  21  22
ENDBRANCH  20  21
ENDBRANCH  19  20
ENDBRANCH  18  19
ENDBRANCH   1  18
TORSDOF 9
ENDMDL
MODEL 2
REMARK VINA RESULT:      -6.0     12.021     14.932
REMARK  9 active torsions:
REMARK  status: ('A' for Active; 'I' for Inactive)
REMARK    1  A    between atoms: O_1  and  C_11 
REMARK    2  A    between atoms: O_1  and  C_19 
REMARK    3  A    between atoms: O_3  and  C_15 
REMARK    4  A    between atoms: O_3  and  C_20 
REMARK    5  A    between atoms: N_4  and  C_12 
REMARK    6  A    between atoms: C_5  and  C_10 
REMARK    7  A    between atoms: C_5  and  C_11 
REMARK    8  A    between atoms: C_12  and  C_15 
REMARK    9  A    between atoms: C_20  and  C_22 
ROOT
HETATM    1  N   UNK N   1      31.487  17.652   8.155  0.00  0.00     0.090 N 
HETATM    2  C   UNK N   1      33.449  16.117   6.819  0.00  0.00     0.078 C 
HETATM    3  C   UNK N   1      32.525  15.384   7.816  0.00  0.00     0.055 C 
HETATM    4  C   UNK N   1      33.805  17.534   7.321  0.00  0.00     0.055 C 
HETATM    5  C   UNK N   1      31.330  16.202   8.333  0.00  0.00     0.274 C 
HETATM    6  C   UNK N   1      32.862  18.089   8.391  0.00  0.00     0.274 C 
ENDROOT
BRANCH   2   7
HETATM    7  C   UNK N   1      32.707  16.229   5.466  0.00  0.00    -0.040 A 
HETATM    8  C   UNK N   1      31.945  15.171   4.937  0.00  0.00     0.008 A 
HETATM    9  C   UNK N   1      31.253  15.307   3.731  0.00  0.00     0.001 A 
HETATM   10  C   UNK N   1      31.308  16.510   3.027  0.00  0.00     0.000 A 
HETATM   11  C   UNK N   1      32.059  17.572   3.528  0.00  0.00     0.001 A 
HETATM   12  C   UNK N   1      32.748  17.432   4.735  0.00  0.00     0.008 A 
ENDBRANCH   2   7
BRANCH   2  13
HETATM   13  C   UNK N   1      34.782  15.336   6.792  0.00  0.00     0.272 C 
HETATM   14  O   UNK N   1      35.638  15.601   5.962  0.00  0.00    -0.264 OA
BRANCH  13  15
HETATM   15  O   UNK N   1      35.063  14.344   7.682  0.00  0.00    -0.321 OA
BRANCH  15  16
HETATM   16  C   UNK N   1      36.069  14.379   8.619  0.00  0.00     0.174 C 
HETATM   17  C   UNK N   1      35.691  15.345   9.722  0.00  0.00     0.034 C 
ENDBRANCH  15  16
ENDBRANCH  13  15
ENDBRANCH   2  13
BRANCH   1  18
HETATM   18  C   UNK N   1      30.560  18.361   9.042  0.00  0.00     0.298 C 
BRANCH  18  19
HETATM   19  C   UNK N   1      29.370  17.504   9.475  0.00  0.00     0.198 C 
BRANCH  19  20
HETATM   20  O   UNK N   1      28.346  17.602   8.530  0.00  0.00    -0.385 OA
BRANCH  20  21
HETATM   21  C   UNK N   1      28.226  18.968   8.257  0.00  0.00     0.206 C 
BRANCH  21  22
HETATM   22  C   UNK N   1      27.977  19.229   6.802  0.00  0.00    -0.035 A 
HETATM   23  C   UNK N   1      27.290  20.376   6.373  0.00  0.00     0.009 A 
HETATM   24  C   UNK N   1      27.087  20.604   5.010  0.00  0.00     0.001 A 
HETATM   25  C   UNK N   1      27.567  19.689   4.070  0.00  0.00     0.000 A 
HETATM   26  C   UNK N   1      28.250  18.545   4.493  0.00  0.00     0.001 A 
HETATM   27  C   UNK N   1      28.455  18.316   5.857  0.00  0.00     0.009 A 
ENDBRANCH  21  22
ENDBRANCH  20  21
ENDBRANCH  19  20
ENDBRANCH  18  19
ENDBRANCH   1  18
TORSDOF 9
ENDMDL
MODEL 3
REMARK VINA RESULT:      -5.7     15.341     19.320
REMARK  9 active torsions:
REMARK  status: ('A' for Active; 'I' for Inactive)
REMARK    1  A    between atoms: O_1  and  C_11 
REMARK    2  A    between atoms: O_1  and  C_19 
REMARK    3  A    between atoms: O_3  and  C_15 
REMARK    4  A    between atoms: O_3  and  C_20 
REMARK    5  A    between atoms: N_4  and  C_12 
REMARK    6  A    between atoms: C_5  and  C_10 
REMARK    7  A    between atoms: C_5  and  C_11 
REMARK    8  A    between atoms: C_12  and  C_15 
REMARK    9  A    between atoms: C_20  and  C_22 
ROOT
HETATM    1  N   UNK N   1      33.384  15.741   9.678  0.00  0.00     0.090 N 
HETATM    2  C   UNK N   1      32.629  17.050   7.289  0.00  0.00     0.078 C 
HETATM    3  C   UNK N   1      32.725  15.509   7.260  0.00  0.00     0.055 C 
HETATM    4  C   UNK N   1      33.735  17.665   8.175  0.00  0.00     0.055 C 
HETATM    5  C   UNK N   1      32.902  14.831   8.629  0.00  0.00     0.274 C 
HETATM    6  C   UNK N   1      34.372  16.691   9.170  0.00  0.00     0.274 C 
ENDROOT
BRANCH   2   7
HETATM    7  C   UNK N   1      31.246  17.436   7.863  0.00  0.00    -0.040 A 
HETATM    8  C   UNK N   1      30.054  16.835   7.418  0.00  0.00     0.008 A 
HETATM    9  C   UNK N   1      28.819  17.173   7.977  0.00  0.00     0.001 A 
HETATM   10  C   UNK N   1      28.750  18.122   8.996  0.00  0.00     0.000 A 
HETATM   11  C   UNK N   1      29.916  18.736   9.451  0.00  0.00     0.001 A 
HETATM   12  C   UNK N   1      31.149  18.393   8.892  0.00  0.00     0.008 A 
ENDBRANCH   2   7
BRANCH   2  13
HETATM   13  C   UNK N   1      32.923  17.541   5.854  0.00  0.00     0.272 C 
HETATM   14  O   UNK N   1      34.063  17.827   5.518  0.00  0.00    -0.264 OA
BRANCH  13  15
HETATM   15  O   UNK N   1      31.946  17.665   4.912  0.00  0.00    -0.321 OA
BRANCH  15  16
HETATM   16  C   UNK N   1      31.566  16.681   4.029  0.00  0.00     0.174 C 
HETATM   17  C   UNK N   1      32.531  16.657   2.862  0.00  0.00     0.034 C 
ENDBRANCH  15  16
ENDBRANCH  13  15
ENDBRANCH   2  13
BRANCH   1  18
HETATM   18  C   UNK N   1      33.940  14.962  10.789  0.00  0.00     0.298 C 
BRANCH  18  19
HETATM   19  C   UNK N   1      34.606  13.662  10.335  0.00  0.00     0.198 C 
BRANCH  19  20
HETATM   20  O   UNK N   1      34.926  12.881  11.448  0.00  0.00    -0.385 OA
BRANCH  20  21
HETATM   21  C   UNK N   1      35.845  13.640  12.180  0.00  0.00     0.206 C 
BRANCH  21  22
HETATM   22  C   UNK N   1      35.725  13.395  13.654  0.00  0.00    -0.035 A 
HETATM   23  C   UNK N   1      36.549  14.063  14.574  0.00  0.00     0.009 A 
HETATM   24  C   UNK N   1      36.406  13.830  15.944  0.00  0.00     0.001 A 
HETATM   25  C   UNK N   1      35.440  12.930  16.401  0.00  0.00     0.000 A 
HETATM   26  C   UNK N   1      34.619  12.261  15.489  0.00  0.00     0.001 A 
HETATM   27  C   UNK N   1      34.761  12.495  14.117  0.00  0.00     0.009 A 
ENDBRANCH  21  22
ENDBRANCH  20  21
ENDBRANCH  19  20
ENDBRANCH  18  19
ENDBRANCH   1  18
TORSDOF 9
ENDMDL
MODEL 4
REMARK VINA RESULT:      -5.6     11.074     14.454
REMARK  9 active torsions:
REMARK  status: ('A' for Active; 'I' for Inactive)
REMARK    1  A    between atoms: O_1  and  C_11 
REMARK    2  A    between atoms: O_1  and  C_19 
REMARK    3  A    between atoms: O_3  and  C_15 
REMARK    4  A    between atoms: O_3  and  C_20 
REMARK    5  A    between atoms: N_4  and  C_12 
REMARK    6  A    between atoms: C_5  and  C_10 
REMARK    7  A    between atoms: C_5  and  C_11 
REMARK    8  A    between atoms: C_12  and  C_15 
REMARK    9  A    between atoms: C_20  and  C_22 
ROOT
HETATM    1  N   UNK N   1      28.414  15.974   4.222  0.00  0.00     0.090 N 
HETATM    2  C   UNK N   1      27.986  18.191   5.924  0.00  0.00     0.078 C 
HETATM    3  C   UNK N   1      29.352  18.091   5.209  0.00  0.00     0.055 C 
HETATM    4  C   UNK N   1      27.472  16.797   6.348  0.00  0.00     0.055 C 
HETATM    5  C   UNK N   1      29.450  17.011   4.119  0.00  0.00     0.274 C 
HETATM    6  C   UNK N   1      28.124  15.624   5.611  0.00  0.00     0.274 C 
ENDROOT
BRANCH   2   7
HETATM    7  C   UNK N   1      26.974  18.828   4.943  0.00  0.00    -0.040 A 
HETATM    8  C   UNK N   1      25.656  18.353   4.809  0.00  0.00     0.008 A 
HETATM    9  C   UNK N   1      24.749  18.968   3.943  0.00  0.00     0.001 A 
HETATM   10  C   UNK N   1      25.141  20.075   3.191  0.00  0.00     0.000 A 
HETATM   11  C   UNK N   1      26.442  20.562   3.303  0.00  0.00     0.001 A 
HETATM   12  C   UNK N   1      27.346  19.947   4.172  0.00  0.00     0.008 A 
ENDBRANCH   2   7
BRANCH   2  13
HETATM   13  C   UNK N   1      28.228  18.964   7.239  0.00  0.00     0.272 C 
HETATM   14  O   UNK N   1      27.432  19.812   7.614  0.00  0.00    -0.264 OA
BRANCH  13  15
HETATM   15  O   UNK N   1      29.313  18.734   8.030  0.00  0.00    -0.321 OA
BRANCH  15  16
HETATM   16  C   UNK N   1      29.292  18.655   9.404  0.00  0.00     0.174 C 
HETATM   17  C   UNK N   1      28.865  17.262   9.817  0.00  0.00     0.034 C 
ENDBRANCH  15  16
ENDBRANCH  13  15
ENDBRANCH   2  13
BRANCH   1  18
HETATM   18  C   UNK N   1      28.826  14.788   3.466  0.00  0.00     0.298 C 
BRANCH  18  19
HETATM   19  C   UNK N   1      30.340  14.702   3.263  0.00  0.00     0.198 C 
BRANCH  19  20
HETATM   20  O   UNK N   1      30.905  13.888   4.248  0.00  0.00    -0.385 OA
BRANCH  20  21
HETATM   21  C   UNK N   1      32.213  14.356   4.407  0.00  0.00     0.206 C 
BRANCH  21  22
HETATM   22  C   UNK N   1      32.302  15.424   5.456  0.00  0.00    -0.035 A 
HETATM   23  C   UNK N   1      31.639  15.296   6.686  0.00  0.00     0.009 A 
HETATM   24  C   UNK N   1      31.753  16.296   7.654  0.00  0.00     0.001 A 
HETATM   25  C   UNK N   1      32.529  17.430   7.398  0.00  0.00     0.000 A 
HETATM   26  C   UNK N   1      33.190  17.562   6.173  0.00  0.00     0.001 A 
HETATM   27  C   UNK N   1      33.077  16.560   5.204  0.00  0.00     0.009 A 
ENDBRANCH  21  22
ENDBRANCH  20  21
ENDBRANCH  19  20
ENDBRANCH  18  19
ENDBRANCH   1  18
TORSDOF 9
ENDMDL
MODEL 5
REMARK VINA RESULT:      -5.6      2.248      3.805
REMARK  9 active torsions:
REMARK  status: ('A' for Active; 'I' for Inactive)
REMARK    1  A    between atoms: O_1  and  C_11 
REMARK    2  A    between atoms: O_1  and  C_19 
REMARK    3  A    between atoms: O_3  and  C_15 
REMARK    4  A    between atoms: O_3  and  C_20 
REMARK    5  A    between atoms: N_4  and  C_12 
REMARK    6  A    between atoms: C_5  and  C_10 
REMARK    7  A    between atoms: C_5  and  C_11 
REMARK    8  A    between atoms: C_12  and  C_15 
REMARK    9  A    between atoms: C_20  and  C_22 
ROOT
HETATM    1  N   UNK N   1      29.710  25.717  -4.358  0.00  0.00     0.090 N 
HETATM    2  C   UNK N   1      28.180  23.670  -5.566  0.00  0.00     0.078 C 
HETATM    3  C   UNK N   1      28.861  24.698  -6.497  0.00  0.00     0.055 C 
HETATM    4  C   UNK N   1      27.667  24.339  -4.272  0.00  0.00     0.055 C 
HETATM    5  C   UNK N   1      29.868  25.640  -5.818  0.00  0.00     0.274 C 
HETATM    6  C   UNK N   1      28.305  25.694  -3.956  0.00  0.00     0.274 C 
ENDROOT
BRANCH   2   7
HETATM    7  C   UNK N   1      29.222  22.587  -5.200  0.00  0.00    -0.040 A 
HETATM    8  C   UNK N   1      29.660  22.382  -3.879  0.00  0.00     0.008 A 
HETATM    9  C   UNK N   1      30.575  21.374  -3.566  0.00  0.00     0.001 A 
HETATM   10  C   UNK N   1      31.073  20.547  -4.572  0.00  0.00     0.000 A 
HETATM   11  C   UNK N   1      30.659  20.733  -5.890  0.00  0.00     0.001 A 
HETATM   12  C   UNK N   1      29.742  21.740  -6.198  0.00  0.00     0.008 A 
ENDBRANCH   2   7
BRANCH   2  13
HETATM   13  C   UNK N   1      26.919  23.168  -6.305  0.00  0.00     0.272 C 
HETATM   14  O   UNK N   1      25.829  23.189  -5.754  0.00  0.00    -0.264 OA
BRANCH  13  15
HETATM   15  O   UNK N   1      26.963  22.697  -7.583  0.00  0.00    -0.321 OA
BRANCH  15  16
HETATM   16  C   UNK N   1      25.876  22.269  -8.309  0.00  0.00     0.174 C 
HETATM   17  C   UNK N   1      25.768  20.762  -8.205  0.00  0.00     0.034 C 
ENDBRANCH  15  16
ENDBRANCH  13  15
ENDBRANCH   2  13
BRANCH   1  18
HETATM   18  C   UNK N   1      30.372  26.924  -3.854  0.00  0.00     0.298 C 
BRANCH  18  19
HETATM   19  C   UNK N   1      30.289  28.103  -4.824  0.00  0.00     0.198 C 
BRANCH  19  20
HETATM   20  O   UNK N   1      29.318  29.008  -4.390  0.00  0.00    -0.385 OA
BRANCH  20  21
HETATM   21  C   UNK N   1      28.582  29.335  -5.533  0.00  0.00     0.206 C 
BRANCH  21  22
HETATM   22  C   UNK N   1      27.324  28.527  -5.640  0.00  0.00    -0.035 A 
HETATM   23  C   UNK N   1      27.073  27.711  -6.755  0.00  0.00     0.009 A 
HETATM   24  C   UNK N   1      25.902  26.954  -6.823  0.00  0.00     0.001 A 
HETATM   25  C   UNK N   1      24.975  27.007  -5.778  0.00  0.00     0.000 A 
HETATM   26  C   UNK N   1      25.220  27.819  -4.667  0.00  0.00     0.001 A 
HETATM   27  C   UNK N   1      26.393  28.577  -4.598  0.00  0.00     0.009 A 
ENDBRANCH  21  22
ENDBRANCH  20  21
ENDBRANCH  19  20
ENDBRANCH  18  19
ENDBRANCH   1  18
TORSDOF 9
ENDMDL
MODEL 6
REMARK VINA RESULT:      -5.6     11.964     14.507
REMARK  9 active torsions:
REMARK  status: ('A' for Active; 'I' for Inactive)
REMARK    1  A    between atoms: O_1  and  C_11 
REMARK    2  A    between atoms: O_1  and  C_19 
REMARK    3  A    between atoms: O_3  and  C_15 
REMARK    4  A    between atoms: O_3  and  C_20 
REMARK    5  A    between atoms: N_4  and  C_12 
REMARK    6  A    between atoms: C_5  and  C_10 
REMARK    7  A    between atoms: C_5  and  C_11 
REMARK    8  A    between atoms: C_12  and  C_15 
REMARK    9  A    between atoms: C_20  and  C_22 
ROOT
HETATM    1  N   UNK N   1      31.351  16.151   4.856  0.00  0.00     0.090 N 
HETATM    2  C   UNK N   1      32.089  16.520   7.560  0.00  0.00     0.078 C 
HETATM    3  C   UNK N   1      32.802  17.388   6.499  0.00  0.00     0.055 C 
HETATM    4  C   UNK N   1      31.825  15.093   7.033  0.00  0.00     0.055 C 
HETATM    5  C   UNK N   1      32.205  17.325   5.084  0.00  0.00     0.274 C 
HETATM    6  C   UNK N   1      31.877  14.954   5.509  0.00  0.00     0.274 C 
ENDROOT
BRANCH   2   7
HETATM    7  C   UNK N   1      30.739  17.193   7.903  0.00  0.00    -0.040 A 
HETATM    8  C   UNK N   1      29.516  16.735   7.376  0.00  0.00     0.008 A 
HETATM    9  C   UNK N   1      28.305  17.335   7.729  0.00  0.00     0.001 A 
HETATM   10  C   UNK N   1      28.291  18.409   8.618  0.00  0.00     0.000 A 
HETATM   11  C   UNK N   1      29.489  18.884   9.150  0.00  0.00     0.001 A 
HETATM   12  C   UNK N   1      30.698  18.280   8.797  0.00  0.00     0.008 A 
ENDBRANCH   2   7
BRANCH   2  13
HETATM   13  C   UNK N   1      33.076  16.356   8.737  0.00  0.00     0.272 C 
HETATM   14  O   UNK N   1      34.003  17.139   8.882  0.00  0.00    -0.264 OA
BRANCH  13  15
HETATM   15  O   UNK N   1      32.956  15.355   9.654  0.00  0.00    -0.321 OA
BRANCH  15  16
HETATM   16  C   UNK N   1      33.974  14.877  10.446  0.00  0.00     0.174 C 
HETATM   17  C   UNK N   1      34.563  13.637   9.807  0.00  0.00     0.034 C 
ENDBRANCH  15  16
ENDBRANCH  13  15
ENDBRANCH   2  13
BRANCH   1  18
HETATM   18  C   UNK N   1      31.194  15.927   3.416  0.00  0.00     0.298 C 
BRANCH  18  19
HETATM   19  C   UNK N   1      29.730  15.873   2.973  0.00  0.00     0.198 C 
BRANCH  19  20
HETATM   20  O   UNK N   1      29.156  17.142   3.079  0.00  0.00    -0.385 OA
BRANCH  20  21
HETATM   21  C   UNK N   1      27.927  16.937   3.714  0.00  0.00     0.206 C 
BRANCH  21  22
HETATM   22  C   UNK N   1      27.394  18.199   4.323  0.00  0.00    -0.035 A 
HETATM   23  C   UNK N   1      26.020  18.379   4.548  0.00  0.00     0.009 A 
HETATM   24  C   UNK N   1      25.551  19.556   5.133  0.00  0.00     0.001 A 
HETATM   25  C   UNK N   1      26.451  20.562   5.496  0.00  0.00     0.000 A 
HETATM   26  C   UNK N   1      27.820  20.389   5.272  0.00  0.00     0.001 A 
HETATM   27  C   UNK N   1      28.290  19.209   4.688  0.00  0.00     0.009 A 
ENDBRANCH  21  22
ENDBRANCH  20  21
ENDBRANCH  19  20
ENDBRANCH  18  19
ENDBRANCH   1  18
TORSDOF 9
ENDMDL
MODEL 7
REMARK VINA RESULT:      -5.5     14.415     17.433
REMARK  9 active torsions:
REMARK  status: ('A' for Active; 'I' for Inactive)
REMARK    1  A    between atoms: O_1  and  C_11 
REMARK    2  A    between atoms: O_1  and  C_19 
REMARK    3  A    between atoms: O_3  and  C_15 
REMARK    4  A    between atoms: O_3  and  C_20 
REMARK    5  A    between atoms: N_4  and  C_12 
REMARK    6  A    between atoms: C_5  and  C_10 
REMARK    7  A    between atoms: C_5  and  C_11 
REMARK    8  A    between atoms: C_12  and  C_15 
REMARK    9  A    between atoms: C_20  and  C_22 
ROOT
HETATM    1  N   UNK N   1      20.906  16.394   6.509  0.00  0.00     0.090 N 
HETATM    2  C   UNK N   1      22.838  17.288   4.649  0.00  0.00     0.078 C 
HETATM    3  C   UNK N   1      23.239  16.139   5.601  0.00  0.00     0.055 C 
HETATM    4  C   UNK N   1      21.936  18.319   5.362  0.00  0.00     0.055 C 
HETATM    5  C   UNK N   1      22.092  15.530   6.423  0.00  0.00     0.274 C 
HETATM    6  C   UNK N   1      21.262  17.805   6.637  0.00  0.00     0.274 C 
ENDROOT
BRANCH   2   7
HETATM    7  C   UNK N   1      22.065  16.676   3.456  0.00  0.00    -0.040 A 
HETATM    8  C   UNK N   1      20.916  17.283   2.915  0.00  0.00     0.008 A 
HETATM    9  C   UNK N   1      20.255  16.732   1.814  0.00  0.00     0.001 A 
HETATM   10  C   UNK N   1      20.731  15.558   1.231  0.00  0.00     0.000 A 
HETATM   11  C   UNK N   1      21.864  14.935   1.751  0.00  0.00     0.001 A 
HETATM   12  C   UNK N   1      22.524  15.490   2.850  0.00  0.00     0.008 A 
ENDBRANCH   2   7
BRANCH   2  13
HETATM   13  C   UNK N   1      24.137  18.044   4.292  0.00  0.00     0.272 C 
HETATM   14  O   UNK N   1      25.163  17.429   4.046  0.00  0.00    -0.264 OA
BRANCH  13  15
HETATM   15  O   UNK N   1      24.193  19.404   4.226  0.00  0.00    -0.321 OA
BRANCH  15  16
HETATM   16  C   UNK N   1      24.024  20.151   3.084  0.00  0.00     0.174 C 
HETATM   17  C   UNK N   1      25.378  20.604   2.579  0.00  0.00     0.034 C 
ENDBRANCH  15  16
ENDBRANCH  13  15
ENDBRANCH   2  13
BRANCH   1  18
HETATM   18  C   UNK N   1      20.066  15.969   7.633  0.00  0.00     0.298 C 
BRANCH  18  19
HETATM   19  C   UNK N   1      20.837  15.178   8.691  0.00  0.00     0.198 C 
BRANCH  19  20
HETATM   20  O   UNK N   1      20.194  13.962   8.936  0.00  0.00    -0.385 OA
BRANCH  20  21
HETATM   21  C   UNK N   1      21.102  12.978   8.533  0.00  0.00     0.206 C 
BRANCH  21  22
HETATM   22  C   UNK N   1      22.062  12.619   9.627  0.00  0.00    -0.035 A 
HETATM   23  C   UNK N   1      23.449  12.614   9.410  0.00  0.00     0.009 A 
HETATM   24  C   UNK N   1      24.323  12.294  10.451  0.00  0.00     0.001 A 
HETATM   25  C   UNK N   1      23.817  11.976  11.714  0.00  0.00     0.000 A 
HETATM   26  C   UNK N   1      22.436  11.978  11.935  0.00  0.00     0.001 A 
HETATM   27  C   UNK N   1      21.561  12.300  10.893  0.00  0.00     0.009 A 
ENDBRANCH  21  22
ENDBRANCH  20  21
ENDBRANCH  19  20
ENDBRANCH  18  19
ENDBRANCH   1  18
TORSDOF 9
ENDMDL
MODEL 8
REMARK VINA RESULT:      -5.5     13.068     16.299
REMARK  9 active torsions:
REMARK  status: ('A' for Active; 'I' for Inactive)
REMARK    1  A    between atoms: O_1  and  C_11 
REMARK    2  A    between atoms: O_1  and  C_19 
REMARK    3  A    between atoms: O_3  and  C_15 
REMARK    4  A    between atoms: O_3  and  C_20 
REMARK    5  A    between atoms: N_4  and  C_12 
REMARK    6  A    between atoms: C_5  and  C_10 
REMARK    7  A    between atoms: C_5  and  C_11 
REMARK    8  A    between atoms: C_12  and  C_15 
REMARK    9  A    between atoms: C_20  and  C_22 
ROOT
HETATM    1  N   UNK N   1      25.846  15.973   5.662  0.00  0.00     0.090 N 
HETATM    2  C   UNK N   1      28.216  17.076   4.586  0.00  0.00     0.078 C 
HETATM    3  C   UNK N   1      27.123  16.624   3.592  0.00  0.00     0.055 C 
HETATM    4  C   UNK N   1      28.304  16.122   5.797  0.00  0.00     0.055 C 
HETATM    5  C   UNK N   1      25.769  16.257   4.222  0.00  0.00     0.274 C 
HETATM    6  C   UNK N   1      27.066  15.249   6.015  0.00  0.00     0.274 C 
ENDROOT
BRANCH   2   7
HETATM    7  C   UNK N   1      27.856  18.496   5.083  0.00  0.00    -0.040 A 
HETATM    8  C   UNK N   1      27.376  19.497   4.218  0.00  0.00     0.008 A 
HETATM    9  C   UNK N   1      27.023  20.761   4.696  0.00  0.00     0.001 A 
HETATM   10  C   UNK N   1      27.143  21.052   6.054  0.00  0.00     0.000 A 
HETATM   11  C   UNK N   1      27.620  20.079   6.932  0.00  0.00     0.001 A 
HETATM   12  C   UNK N   1      27.970  18.816   6.450  0.00  0.00     0.008 A 
ENDBRANCH   2   7
BRANCH   2  13
HETATM   13  C   UNK N   1      29.568  16.944   3.850  0.00  0.00     0.272 C 
HETATM   14  O   UNK N   1      29.640  16.338   2.791  0.00  0.00    -0.264 OA
BRANCH  13  15
HETATM   15  O   UNK N   1      30.717  17.494   4.333  0.00  0.00    -0.321 OA
BRANCH  15  16
HETATM   16  C   UNK N   1      31.755  16.793   4.902  0.00  0.00     0.174 C 
HETATM   17  C   UNK N   1      31.845  17.140   6.373  0.00  0.00     0.034 C 
ENDBRANCH  15  16
ENDBRANCH  13  15
ENDBRANCH   2  13
BRANCH   1  18
HETATM   18  C   UNK N   1      24.659  15.222   6.081  0.00  0.00     0.298 C 
BRANCH  18  19
HETATM   19  C   UNK N   1      24.853  13.706   6.010  0.00  0.00     0.198 C 
BRANCH  19  20
HETATM   20  O   UNK N   1      24.104  13.085   7.012  0.00  0.00    -0.385 OA
BRANCH  20  21
HETATM   21  C   UNK N   1      24.792  13.346   8.202  0.00  0.00     0.206 C 
BRANCH  21  22
HETATM   22  C   UNK N   1      24.019  12.899   9.406  0.00  0.00    -0.035 A 
HETATM   23  C   UNK N   1      24.660  12.319  10.511  0.00  0.00     0.009 A 
HETATM   24  C   UNK N   1      23.919  11.927  11.628  0.00  0.00     0.001 A 
HETATM   25  C   UNK N   1      22.534  12.112  11.647  0.00  0.00     0.000 A 
HETATM   26  C   UNK N   1      21.891  12.688  10.547  0.00  0.00     0.001 A 
HETATM   27  C   UNK N   1      22.633  13.082   9.429  0.00  0.00     0.009 A 
ENDBRANCH  21  22
ENDBRANCH  20  21
ENDBRANCH  19  20
ENDBRANCH  18  19
ENDBRANCH   1  18
TORSDOF 9
ENDMDL
MODEL 9
REMARK VINA RESULT:      -5.5     13.375     16.414
REMARK  9 active torsions:
REMARK  status: ('A' for Active; 'I' for Inactive)
REMARK    1  A    between atoms: O_1  and  C_11 
REMARK    2  A    between atoms: O_1  and  C_19 
REMARK    3  A    between atoms: O_3  and  C_15 
REMARK    4  A    between atoms: O_3  and  C_20 
REMARK    5  A    between atoms: N_4  and  C_12 
REMARK    6  A    between atoms: C_5  and  C_10 
REMARK    7  A    between atoms: C_5  and  C_11 
REMARK    8  A    between atoms: C_12  and  C_15 
REMARK    9  A    between atoms: C_20  and  C_22 
ROOT
HETATM    1  N   UNK N   1      25.793  15.992   5.959  0.00  0.00     0.090 N 
HETATM    2  C   UNK N   1      28.349  17.173   6.208  0.00  0.00     0.078 C 
HETATM    3  C   UNK N   1      28.110  16.234   5.005  0.00  0.00     0.055 C 
HETATM    4  C   UNK N   1      27.621  16.664   7.472  0.00  0.00     0.055 C 
HETATM    5  C   UNK N   1      26.650  15.810   4.778  0.00  0.00     0.274 C 
HETATM    6  C   UNK N   1      26.491  15.667   7.200  0.00  0.00     0.274 C 
ENDROOT
BRANCH   2   7
HETATM    7  C   UNK N   1      27.807  18.575   5.841  0.00  0.00    -0.040 A 
HETATM    8  C   UNK N   1      27.520  19.549   6.814  0.00  0.00     0.008 A 
HETATM    9  C   UNK N   1      27.066  20.821   6.456  0.00  0.00     0.001 A 
HETATM   10  C   UNK N   1      26.889  21.145   5.112  0.00  0.00     0.000 A 
HETATM   11  C   UNK N   1      27.162  20.196   4.128  0.00  0.00     0.001 A 
HETATM   12  C   UNK N   1      27.618  18.927   4.490  0.00  0.00     0.008 A 
ENDBRANCH   2   7
BRANCH   2  13
HETATM   13  C   UNK N   1      29.857  17.100   6.537  0.00  0.00     0.272 C 
HETATM   14  O   UNK N   1      30.690  17.208   5.650  0.00  0.00    -0.264 OA
BRANCH  13  15
HETATM   15  O   UNK N   1      30.318  16.924   7.807  0.00  0.00    -0.321 OA
BRANCH  15  16
HETATM   16  C   UNK N   1      31.050  17.844   8.521  0.00  0.00     0.174 C 
HETATM   17  C   UNK N   1      30.110  18.699   9.344  0.00  0.00     0.034 C 
ENDBRANCH  15  16
ENDBRANCH  13  15
ENDBRANCH   2  13
BRANCH   1  18
HETATM   18  C   UNK N   1      24.581  15.179   5.819  0.00  0.00     0.298 C 
BRANCH  18  19
HETATM   19  C   UNK N   1      23.314  15.909   6.267  0.00  0.00     0.198 C 
BRANCH  19  20
HETATM   20  O   UNK N   1      22.644  15.149   7.229  0.00  0.00    -0.385 OA
BRANCH  20  21
HETATM   21  C   UNK N   1      23.341  13.938   7.292  0.00  0.00     0.206 C 
BRANCH  21  22
HETATM   22  C   UNK N   1      23.280  13.328   8.660  0.00  0.00    -0.035 A 
HETATM   23  C   UNK N   1      22.067  13.223   9.360  0.00  0.00     0.009 A 
HETATM   24  C   UNK N   1      22.034  12.634  10.625  0.00  0.00     0.001 A 
HETATM   25  C   UNK N   1      23.212  12.146  11.199  0.00  0.00     0.000 A 
HETATM   26  C   UNK N   1      24.422  12.250  10.507  0.00  0.00     0.001 A 
HETATM   27  C   UNK N   1      24.455  12.838   9.239  0.00  0.00     0.009 A 
ENDBRANCH  21  22
ENDBRANCH  20  21
ENDBRANCH  19  20
ENDBRANCH  18  19
ENDBRANCH   1  18
TORSDOF 9
ENDMDL
