REMARK  1 active torsions:
REMARK  status: ('A' for Active; 'I' for Inactive)
REMARK    1  A    between atoms: C_11  and  O_2 
ROOT
HETATM    1 Cl   UNK N   1       2.204  -4.125  -0.540  0.00  0.00    -0.080 Cl
HETATM    2  O   UNK N   1      -0.104  -2.350   0.134  0.00  0.00    -0.291 OA
HETATM    3  C   UNK N   1       7.160   0.583  -0.184  0.00  0.00     0.001 C 
HETATM    4  C   UNK N   1       7.113   1.964   0.461  0.00  0.00    -0.014 C 
HETATM    5  C   UNK N   1       5.896  -0.236   0.130  0.00  0.00    -0.004 C 
HETATM    6  C   UNK N   1       4.640   0.540  -0.349  0.00  0.00     0.002 C 
HETATM    7  C   UNK N   1       3.360  -0.196   0.127  0.00  0.00    -0.014 C 
HETATM    8  C   UNK N   1       5.948   2.752  -0.138  0.00  0.00     0.012 C 
HETATM    9  C   UNK N   1       4.632   2.010   0.149  0.00  0.00     0.007 C 
HETATM   10  C   UNK N   1       8.511   2.496   0.168  0.00  0.00     0.126 C 
HETATM   11  C   UNK N   1       8.486   0.025   0.307  0.00  0.00     0.008 C 
HETATM   12  C   UNK N   1       5.943  -1.570  -0.612  0.00  0.00     0.010 C 
HETATM   13  C   UNK N   1       9.401   1.260   0.393  0.00  0.00     0.033 C 
HETATM   14  C   UNK N   1       3.375  -1.681  -0.239  0.00  0.00    -0.046 C 
HETATM   15  C   UNK N   1       4.680  -2.422  -0.464  0.00  0.00     0.037 C 
HETATM   16  C   UNK N   1       6.947   1.910   1.989  0.00  0.00     0.018 C 
HETATM   17  C   UNK N   1       2.118   0.467  -0.484  0.00  0.00     0.022 C 
HETATM   18  C   UNK N   1       3.251  -0.106   1.656  0.00  0.00     0.020 C 
HETATM   19  C   UNK N   1       0.823  -0.192   0.004  0.00  0.00     0.086 C 
HETATM   20  C   UNK N   1       2.212  -2.381  -0.247  0.00  0.00     0.083 C 
HETATM   21  C   UNK N   1       0.913  -1.693  -0.019  0.00  0.00     0.171 C 
ENDROOT
BRANCH  10  22
HETATM   22  O   UNK N   1       8.629   2.886  -1.169  0.00  0.00    -0.395 OA
HETATM   23  H   UNK N   1       8.904   2.951  -2.097  0.00  0.00     0.210 HD
ENDBRANCH  10  22
TORSDOF 1
