MODEL 1
REMARK VINA RESULT:      -7.4      0.000      0.000
REMARK  1 active torsions:
REMARK  status: ('A' for Active; 'I' for Inactive)
REMARK    1  A    between atoms: C_11  and  O_2 
ROOT
HETATM    1 Cl   UNK N   1      34.916  12.581  19.773  0.00  0.00    -0.080 Cl
HETATM    2  O   UNK N   1      34.902   9.593  19.831  0.00  0.00    -0.291 OA
HETATM    3  C   UNK N   1      36.629  13.396  13.197  0.00  0.00     0.001 C 
HETATM    4  C   UNK N   1      36.576  12.373  12.068  0.00  0.00    -0.014 C 
HETATM    5  C   UNK N   1      35.970  12.864  14.481  0.00  0.00    -0.004 C 
HETATM    6  C   UNK N   1      36.665  11.546  14.915  0.00  0.00     0.002 C 
HETATM    7  C   UNK N   1      35.889  10.913  16.100  0.00  0.00    -0.014 C 
HETATM    8  C   UNK N   1      37.390  11.144  12.474  0.00  0.00     0.012 C 
HETATM    9  C   UNK N   1      36.784  10.531  13.747  0.00  0.00     0.007 C 
HETATM   10  C   UNK N   1      37.109  13.177  10.888  0.00  0.00     0.126 C 
HETATM   11  C   UNK N   1      36.011  14.632  12.563  0.00  0.00     0.008 C 
HETATM   12  C   UNK N   1      36.131  13.881  15.608  0.00  0.00     0.010 C 
HETATM   13  C   UNK N   1      36.452  14.555  11.090  0.00  0.00     0.033 C 
HETATM   14  C   UNK N   1      35.644  11.913  17.232  0.00  0.00    -0.046 C 
HETATM   15  C   UNK N   1      35.611  13.407  16.968  0.00  0.00     0.037 C 
HETATM   16  C   UNK N   1      35.144  11.932  11.721  0.00  0.00     0.018 C 
HETATM   17  C   UNK N   1      36.662   9.705  16.646  0.00  0.00     0.022 C 
HETATM   18  C   UNK N   1      34.515  10.428  15.617  0.00  0.00     0.020 C 
HETATM   19  C   UNK N   1      35.904   9.012  17.784  0.00  0.00     0.086 C 
HETATM   20  C   UNK N   1      35.331  11.458  18.472  0.00  0.00     0.083 C 
HETATM   21  C   UNK N   1      35.340  10.000  18.768  0.00  0.00     0.171 C 
ENDROOT
BRANCH  10  22
HETATM   22  O   UNK N   1      38.495  13.334  10.973  0.00  0.00    -0.395 OA
HETATM   23  H   UNK N   1      39.422  13.532  10.767  0.00  0.00     0.210 HD
ENDBRANCH  10  22
TORSDOF 1
ENDMDL
MODEL 2
REMARK VINA RESULT:      -7.3     25.785     27.740
REMARK  1 active torsions:
REMARK  status: ('A' for Active; 'I' for Inactive)
REMARK    1  A    between atoms: C_11  and  O_2 
ROOT
HETATM    1 Cl   UNK N   1      25.705  23.701 -11.483  0.00  0.00    -0.080 Cl
HETATM    2  O   UNK N   1      26.067  20.922 -10.446  0.00  0.00    -0.291 OA
HETATM    3  C   UNK N   1      26.396  27.030  -5.542  0.00  0.00     0.001 C 
HETATM    4  C   UNK N   1      26.980  26.518  -4.230  0.00  0.00    -0.014 C 
HETATM    5  C   UNK N   1      26.608  26.027  -6.689  0.00  0.00    -0.004 C 
HETATM    6  C   UNK N   1      25.971  24.662  -6.312  0.00  0.00     0.002 C 
HETATM    7  C   UNK N   1      26.339  23.602  -7.384  0.00  0.00    -0.014 C 
HETATM    8  C   UNK N   1      26.233  25.250  -3.815  0.00  0.00     0.012 C 
HETATM    9  C   UNK N   1      26.410  24.179  -4.904  0.00  0.00     0.007 C 
HETATM   10  C   UNK N   1      26.814  27.729  -3.318  0.00  0.00     0.126 C 
HETATM   11  C   UNK N   1      27.043  28.398  -5.690  0.00  0.00     0.008 C 
HETATM   12  C   UNK N   1      25.925  26.536  -7.957  0.00  0.00     0.010 C 
HETATM   13  C   UNK N   1      27.177  28.905  -4.243  0.00  0.00     0.033 C 
HETATM   14  C   UNK N   1      26.033  24.082  -8.803  0.00  0.00    -0.046 C 
HETATM   15  C   UNK N   1      25.973  25.562  -9.137  0.00  0.00     0.037 C 
HETATM   16  C   UNK N   1      28.483  26.207  -4.320  0.00  0.00     0.018 C 
HETATM   17  C   UNK N   1      25.578  22.298  -7.111  0.00  0.00     0.022 C 
HETATM   18  C   UNK N   1      27.844  23.304  -7.319  0.00  0.00     0.020 C 
HETATM   19  C   UNK N   1      25.953  21.200  -8.113  0.00  0.00     0.086 C 
HETATM   20  C   UNK N   1      25.931  23.177  -9.809  0.00  0.00     0.083 C 
HETATM   21  C   UNK N   1      25.996  21.719  -9.525  0.00  0.00     0.171 C 
ENDROOT
BRANCH  10  22
HETATM   22  O   UNK N   1      25.483  27.877  -2.919  0.00  0.00    -0.395 OA
HETATM   23  H   UNK N   1      24.555  27.703  -2.694  0.00  0.00     0.210 HD
ENDBRANCH  10  22
TORSDOF 1
ENDMDL
MODEL 3
REMARK VINA RESULT:      -7.1     21.374     25.212
REMARK  1 active torsions:
REMARK  status: ('A' for Active; 'I' for Inactive)
REMARK    1  A    between atoms: C_11  and  O_2 
ROOT
HETATM    1 Cl   UNK N   1      32.242  19.757  -4.476  0.00  0.00    -0.080 Cl
HETATM    2  O   UNK N   1      32.312  21.692  -2.199  0.00  0.00    -0.291 OA
HETATM    3  C   UNK N   1      27.215  22.700  -8.071  0.00  0.00     0.001 C 
HETATM    4  C   UNK N   1      26.654  24.112  -7.938  0.00  0.00    -0.014 C 
HETATM    5  C   UNK N   1      28.472  22.503  -7.206  0.00  0.00    -0.004 C 
HETATM    6  C   UNK N   1      28.138  22.812  -5.722  0.00  0.00     0.002 C 
HETATM    7  C   UNK N   1      29.440  22.791  -4.879  0.00  0.00    -0.014 C 
HETATM    8  C   UNK N   1      26.204  24.333  -6.494  0.00  0.00     0.012 C 
HETATM    9  C   UNK N   1      27.411  24.174  -5.555  0.00  0.00     0.007 C 
HETATM   10  C   UNK N   1      25.557  24.115  -8.996  0.00  0.00     0.126 C 
HETATM   11  C   UNK N   1      27.377  22.540  -9.574  0.00  0.00     0.008 C 
HETATM   12  C   UNK N   1      28.943  21.053  -7.295  0.00  0.00     0.010 C 
HETATM   13  C   UNK N   1      26.205  23.346 -10.162  0.00  0.00     0.033 C 
HETATM   14  C   UNK N   1      30.254  21.515  -5.101  0.00  0.00    -0.046 C 
HETATM   15  C   UNK N   1      30.124  20.713  -6.382  0.00  0.00     0.037 C 
HETATM   16  C   UNK N   1      27.670  25.202  -8.317  0.00  0.00     0.018 C 
HETATM   17  C   UNK N   1      29.100  22.927  -3.389  0.00  0.00     0.022 C 
HETATM   18  C   UNK N   1      30.334  23.974  -5.279  0.00  0.00     0.020 C 
HETATM   19  C   UNK N   1      30.362  22.968  -2.519  0.00  0.00     0.086 C 
HETATM   20  C   UNK N   1      31.195  21.154  -4.192  0.00  0.00     0.083 C 
HETATM   21  C   UNK N   1      31.362  21.922  -2.929  0.00  0.00     0.171 C 
ENDROOT
BRANCH  10  22
HETATM   22  O   UNK N   1      24.439  23.396  -8.562  0.00  0.00    -0.395 OA
HETATM   23  H   UNK N   1      23.546  23.027  -8.483  0.00  0.00     0.210 HD
ENDBRANCH  10  22
TORSDOF 1
ENDMDL
MODEL 4
REMARK VINA RESULT:      -7.1      6.822     11.114
REMARK  1 active torsions:
REMARK  status: ('A' for Active; 'I' for Inactive)
REMARK    1  A    between atoms: C_11  and  O_2 
ROOT
HETATM    1 Cl   UNK N   1      33.715  14.417   2.209  0.00  0.00    -0.080 Cl
HETATM    2  O   UNK N   1      31.799  16.710   2.190  0.00  0.00    -0.291 OA
HETATM    3  C   UNK N   1      35.634  14.836   8.766  0.00  0.00     0.001 C 
HETATM    4  C   UNK N   1      34.954  15.582   9.909  0.00  0.00    -0.014 C 
HETATM    5  C   UNK N   1      34.771  14.834   7.493  0.00  0.00    -0.004 C 
HETATM    6  C   UNK N   1      34.461  16.296   7.072  0.00  0.00     0.002 C 
HETATM    7  C   UNK N   1      33.446  16.296   5.899  0.00  0.00    -0.014 C 
HETATM    8  C   UNK N   1      34.792  17.051   9.515  0.00  0.00     0.012 C 
HETATM    9  C   UNK N   1      33.919  17.145   8.253  0.00  0.00     0.007 C 
HETATM   10  C   UNK N   1      35.891  15.294  11.076  0.00  0.00     0.126 C 
HETATM   11  C   UNK N   1      35.954  13.485   9.387  0.00  0.00     0.008 C 
HETATM   12  C   UNK N   1      35.530  14.161   6.351  0.00  0.00     0.010 C 
HETATM   13  C   UNK N   1      36.262  13.815  10.859  0.00  0.00     0.033 C 
HETATM   14  C   UNK N   1      33.881  15.378   4.756  0.00  0.00    -0.046 C 
HETATM   15  C   UNK N   1      34.811  14.205   5.000  0.00  0.00     0.037 C 
HETATM   16  C   UNK N   1      33.574  15.006  10.268  0.00  0.00     0.018 C 
HETATM   17  C   UNK N   1      33.264  17.724   5.365  0.00  0.00     0.022 C 
HETATM   18  C   UNK N   1      32.084  15.790   6.395  0.00  0.00     0.020 C 
HETATM   19  C   UNK N   1      32.225  17.782   4.240  0.00  0.00     0.086 C 
HETATM   20  C   UNK N   1      33.335  15.538   3.523  0.00  0.00     0.083 C 
HETATM   21  C   UNK N   1      32.409  16.669   3.247  0.00  0.00     0.171 C 
ENDROOT
BRANCH  10  22
HETATM   22  O   UNK N   1      37.058  16.058  10.982  0.00  0.00    -0.395 OA
HETATM   23  H   UNK N   1      37.686  16.777  10.811  0.00  0.00     0.210 HD
ENDBRANCH  10  22
TORSDOF 1
ENDMDL
MODEL 5
REMARK VINA RESULT:      -7.1     21.147     23.384
REMARK  1 active torsions:
REMARK  status: ('A' for Active; 'I' for Inactive)
REMARK    1  A    between atoms: C_11  and  O_2 
ROOT
HETATM    1 Cl   UNK N   1      33.538  18.997  -7.288  0.00  0.00    -0.080 Cl
HETATM    2  O   UNK N   1      35.642  19.536  -5.236  0.00  0.00    -0.291 OA
HETATM    3  C   UNK N   1      28.663  23.075  -4.746  0.00  0.00     0.001 C 
HETATM    4  C   UNK N   1      28.803  24.200  -3.726  0.00  0.00    -0.014 C 
HETATM    5  C   UNK N   1      30.034  22.538  -5.194  0.00  0.00    -0.004 C 
HETATM    6  C   UNK N   1      30.831  22.047  -3.956  0.00  0.00     0.002 C 
HETATM    7  C   UNK N   1      32.276  21.676  -4.381  0.00  0.00    -0.014 C 
HETATM    8  C   UNK N   1      29.465  23.646  -2.464  0.00  0.00     0.012 C 
HETATM    9  C   UNK N   1      30.860  23.103  -2.818  0.00  0.00     0.007 C 
HETATM   10  C   UNK N   1      27.362  24.675  -3.581  0.00  0.00     0.126 C 
HETATM   11  C   UNK N   1      27.780  23.696  -5.815  0.00  0.00     0.008 C 
HETATM   12  C   UNK N   1      29.845  21.353  -6.138  0.00  0.00     0.010 C 
HETATM   13  C   UNK N   1      26.839  24.626  -5.028  0.00  0.00     0.033 C 
HETATM   14  C   UNK N   1      32.302  20.725  -5.579  0.00  0.00    -0.046 C 
HETATM   15  C   UNK N   1      31.145  20.665  -6.559  0.00  0.00     0.037 C 
HETATM   16  C   UNK N   1      29.633  25.386  -4.247  0.00  0.00     0.018 C 
HETATM   17  C   UNK N   1      33.018  21.030  -3.202  0.00  0.00     0.022 C 
HETATM   18  C   UNK N   1      33.036  22.945  -4.792  0.00  0.00     0.020 C 
HETATM   19  C   UNK N   1      34.471  20.697  -3.558  0.00  0.00     0.086 C 
HETATM   20  C   UNK N   1      33.424  20.008  -5.842  0.00  0.00     0.083 C 
HETATM   21  C   UNK N   1      34.584  20.050  -4.911  0.00  0.00     0.171 C 
ENDROOT
BRANCH  10  22
HETATM   22  O   UNK N   1      26.614  23.778  -2.812  0.00  0.00    -0.395 OA
HETATM   23  H   UNK N   1      26.050  23.040  -2.532  0.00  0.00     0.210 HD
ENDBRANCH  10  22
TORSDOF 1
ENDMDL
MODEL 6
REMARK VINA RESULT:      -6.9     10.948     13.506
REMARK  1 active torsions:
REMARK  status: ('A' for Active; 'I' for Inactive)
REMARK    1  A    between atoms: C_11  and  O_2 
ROOT
HETATM    1 Cl   UNK N   1      32.740  17.914   8.657  0.00  0.00    -0.080 Cl
HETATM    2  O   UNK N   1      34.525  17.586   6.283  0.00  0.00    -0.291 OA
HETATM    3  C   UNK N   1      26.825  16.262   5.635  0.00  0.00     0.001 C 
HETATM    4  C   UNK N   1      26.605  15.544   4.308  0.00  0.00    -0.014 C 
HETATM    5  C   UNK N   1      28.308  16.261   6.045  0.00  0.00    -0.004 C 
HETATM    6  C   UNK N   1      29.158  16.922   4.927  0.00  0.00     0.002 C 
HETATM    7  C   UNK N   1      30.665  16.760   5.254  0.00  0.00    -0.014 C 
HETATM    8  C   UNK N   1      27.341  16.304   3.205  0.00  0.00     0.012 C 
HETATM    9  C   UNK N   1      28.845  16.334   3.525  0.00  0.00     0.007 C 
HETATM   10  C   UNK N   1      25.084  15.518   4.213  0.00  0.00     0.126 C 
HETATM   11  C   UNK N   1      25.849  15.559   6.566  0.00  0.00     0.008 C 
HETATM   12  C   UNK N   1      28.494  17.070   7.327  0.00  0.00     0.010 C 
HETATM   13  C   UNK N   1      24.656  15.209   5.659  0.00  0.00     0.033 C 
HETATM   14  C   UNK N   1      31.004  17.219   6.673  0.00  0.00    -0.046 C 
HETATM   15  C   UNK N   1      29.951  17.233   7.766  0.00  0.00     0.037 C 
HETATM   16  C   UNK N   1      27.094  14.086   4.323  0.00  0.00     0.018 C 
HETATM   17  C   UNK N   1      31.507  17.556   4.247  0.00  0.00     0.022 C 
HETATM   18  C   UNK N   1      31.060  15.280   5.148  0.00  0.00     0.020 C 
HETATM   19  C   UNK N   1      33.009  17.380   4.496  0.00  0.00     0.086 C 
HETATM   20  C   UNK N   1      32.291  17.504   6.997  0.00  0.00     0.083 C 
HETATM   21  C   UNK N   1      33.353  17.489   5.956  0.00  0.00     0.171 C 
ENDROOT
BRANCH  10  22
HETATM   22  O   UNK N   1      24.582  16.775   3.864  0.00  0.00    -0.395 OA
HETATM   23  H   UNK N   1      23.991  17.503   3.614  0.00  0.00     0.210 HD
ENDBRANCH  10  22
TORSDOF 1
ENDMDL
MODEL 7
REMARK VINA RESULT:      -6.8      1.899      6.459
REMARK  1 active torsions:
REMARK  status: ('A' for Active; 'I' for Inactive)
REMARK    1  A    between atoms: C_11  and  O_2 
ROOT
HETATM    1 Cl   UNK N   1      36.383  14.968  13.291  0.00  0.00    -0.080 Cl
HETATM    2  O   UNK N   1      37.097  12.894  11.261  0.00  0.00    -0.291 OA
HETATM    3  C   UNK N   1      35.054  10.759  18.523  0.00  0.00     0.001 C 
HETATM    4  C   UNK N   1      35.436   9.292  18.682  0.00  0.00    -0.014 C 
HETATM    5  C   UNK N   1      35.716  11.390  17.286  0.00  0.00    -0.004 C 
HETATM    6  C   UNK N   1      35.319  10.589  16.017  0.00  0.00     0.002 C 
HETATM    7  C   UNK N   1      36.126  11.110  14.799  0.00  0.00    -0.014 C 
HETATM    8  C   UNK N   1      34.906   8.508  17.482  0.00  0.00     0.012 C 
HETATM    9  C   UNK N   1      35.536   9.063  16.194  0.00  0.00     0.007 C 
HETATM   10  C   UNK N   1      34.824   8.952  20.036  0.00  0.00     0.126 C 
HETATM   11  C   UNK N   1      35.412  11.351  19.877  0.00  0.00     0.008 C 
HETATM   12  C   UNK N   1      35.231  12.828  17.113  0.00  0.00     0.010 C 
HETATM   13  C   UNK N   1      35.119  10.211  20.870  0.00  0.00     0.033 C 
HETATM   14  C   UNK N   1      36.038  12.630  14.652  0.00  0.00    -0.046 C 
HETATM   15  C   UNK N   1      35.738  13.519  15.845  0.00  0.00     0.037 C 
HETATM   16  C   UNK N   1      36.955   9.073  18.790  0.00  0.00     0.018 C 
HETATM   17  C   UNK N   1      35.619  10.444  13.513  0.00  0.00     0.022 C 
HETATM   18  C   UNK N   1      37.610  10.756  14.972  0.00  0.00     0.020 C 
HETATM   19  C   UNK N   1      36.426  10.886  12.287  0.00  0.00     0.086 C 
HETATM   20  C   UNK N   1      36.350  13.208  13.464  0.00  0.00     0.083 C 
HETATM   21  C   UNK N   1      36.661  12.371  12.274  0.00  0.00     0.171 C 
ENDROOT
BRANCH  10  22
HETATM   22  O   UNK N   1      33.438   8.804  19.937  0.00  0.00    -0.395 OA
HETATM   23  H   UNK N   1      32.513   8.886  19.658  0.00  0.00     0.210 HD
ENDBRANCH  10  22
TORSDOF 1
ENDMDL
MODEL 8
REMARK VINA RESULT:      -6.7      4.072      7.926
REMARK  1 active torsions:
REMARK  status: ('A' for Active; 'I' for Inactive)
REMARK    1  A    between atoms: C_11  and  O_2 
ROOT
HETATM    1 Cl   UNK N   1      34.853  18.586   8.313  0.00  0.00    -0.080 Cl
HETATM    2  O   UNK N   1      34.510  16.801   5.940  0.00  0.00    -0.291 OA
HETATM    3  C   UNK N   1      35.647  13.718  13.058  0.00  0.00     0.001 C 
HETATM    4  C   UNK N   1      35.975  12.242  12.859  0.00  0.00    -0.014 C 
HETATM    5  C   UNK N   1      35.752  14.508  11.743  0.00  0.00    -0.004 C 
HETATM    6  C   UNK N   1      34.805  13.884  10.683  0.00  0.00     0.002 C 
HETATM    7  C   UNK N   1      35.043  14.562   9.308  0.00  0.00    -0.014 C 
HETATM    8  C   UNK N   1      34.938  11.625  11.920  0.00  0.00     0.012 C 
HETATM    9  C   UNK N   1      34.989  12.347  10.563  0.00  0.00     0.007 C 
HETATM   10  C   UNK N   1      35.982  11.724  14.293  0.00  0.00     0.126 C 
HETATM   11  C   UNK N   1      36.582  14.123  14.186  0.00  0.00     0.008 C 
HETATM   12  C   UNK N   1      35.323  15.956  11.970  0.00  0.00     0.010 C 
HETATM   13  C   UNK N   1      36.677  12.862  15.063  0.00  0.00     0.033 C 
HETATM   14  C   UNK N   1      34.988  16.088   9.398  0.00  0.00    -0.046 C 
HETATM   15  C   UNK N   1      35.279  16.810  10.700  0.00  0.00     0.037 C 
HETATM   16  C   UNK N   1      37.379  12.011  12.275  0.00  0.00     0.018 C 
HETATM   17  C   UNK N   1      33.998  14.073   8.296  0.00  0.00     0.022 C 
HETATM   18  C   UNK N   1      36.436  14.188   8.781  0.00  0.00     0.020 C 
HETATM   19  C   UNK N   1      34.228  14.675   6.905  0.00  0.00     0.086 C 
HETATM   20  C   UNK N   1      34.795  16.819   8.270  0.00  0.00     0.083 C 
HETATM   21  C   UNK N   1      34.520  16.149   6.971  0.00  0.00     0.171 C 
ENDROOT
BRANCH  10  22
HETATM   22  O   UNK N   1      34.680  11.591  14.784  0.00  0.00    -0.395 OA
HETATM   23  H   UNK N   1      33.721  11.670  14.907  0.00  0.00     0.210 HD
ENDBRANCH  10  22
TORSDOF 1
ENDMDL
MODEL 9
REMARK VINA RESULT:      -6.7      6.167     10.229
REMARK  1 active torsions:
REMARK  status: ('A' for Active; 'I' for Inactive)
REMARK    1  A    between atoms: C_11  and  O_2 
ROOT
HETATM    1 Cl   UNK N   1      32.698  17.938   4.029  0.00  0.00    -0.080 Cl
HETATM    2  O   UNK N   1      33.408  15.596   2.313  0.00  0.00    -0.291 OA
HETATM    3  C   UNK N   1      34.772  15.381  10.030  0.00  0.00     0.001 C 
HETATM    4  C   UNK N   1      35.689  14.190  10.289  0.00  0.00    -0.014 C 
HETATM    5  C   UNK N   1      34.717  15.744   8.536  0.00  0.00    -0.004 C 
HETATM    6  C   UNK N   1      34.245  14.512   7.718  0.00  0.00     0.002 C 
HETATM    7  C   UNK N   1      34.363  14.819   6.201  0.00  0.00    -0.014 C 
HETATM    8  C   UNK N   1      35.117  12.961   9.583  0.00  0.00     0.012 C 
HETATM    9  C   UNK N   1      35.046  13.230   8.071  0.00  0.00     0.007 C 
HETATM   10  C   UNK N   1      35.721  14.143  11.812  0.00  0.00     0.126 C 
HETATM   11  C   UNK N   1      35.313  16.437  10.980  0.00  0.00     0.008 C 
HETATM   12  C   UNK N   1      33.716  16.876   8.312  0.00  0.00     0.010 C 
HETATM   13  C   UNK N   1      35.795  15.631  12.199  0.00  0.00     0.033 C 
HETATM   14  C   UNK N   1      33.688  16.138   5.822  0.00  0.00    -0.046 C 
HETATM   15  C   UNK N   1      33.494  17.244   6.843  0.00  0.00     0.037 C 
HETATM   16  C   UNK N   1      37.129  14.422   9.801  0.00  0.00     0.018 C 
HETATM   17  C   UNK N   1      33.741  13.676   5.388  0.00  0.00     0.022 C 
HETATM   18  C   UNK N   1      35.843  14.937   5.812  0.00  0.00     0.020 C 
HETATM   19  C   UNK N   1      33.885  13.907   3.879  0.00  0.00     0.086 C 
HETATM   20  C   UNK N   1      33.362  16.376   4.526  0.00  0.00     0.083 C 
HETATM   21  C   UNK N   1      33.548  15.321   3.493  0.00  0.00     0.171 C 
ENDROOT
BRANCH  10  22
HETATM   22  O   UNK N   1      34.531  13.614  12.322  0.00  0.00    -0.395 OA
HETATM   23  H   UNK N   1      33.677  13.162  12.408  0.00  0.00     0.210 HD
ENDBRANCH  10  22
TORSDOF 1
ENDMDL
