MODEL 1
REMARK VINA RESULT:      -5.7      0.000      0.000
REMARK  9 active torsions:
REMARK  status: ('A' for Active; 'I' for Inactive)
REMARK    1  A    between atoms: C_6  and  O_1 
REMARK    2  A    between atoms: O_1  and  C_23 
REMARK    3  A    between atoms: C_7  and  N_3 
REMARK    4  A    between atoms: C_4  and  C_5 
REMARK    5  A    between atoms: C_4  and  C_6 
REMARK    6  A    between atoms: C_4  and  C_8 
REMARK    7  A    between atoms: C_4  and  C_9 
REMARK    8  A    between atoms: C_5  and  C_7 
REMARK    9  A    between atoms: C_6  and  C_10 
ROOT
HETATM    1  C   UNK N   1      28.392  16.961   5.289  0.00  0.00     0.043 C 
ENDROOT
BRANCH   1   2
HETATM    2  C   UNK N   1      28.045  15.951   4.162  0.00  0.00     0.057 C 
BRANCH   2   3
HETATM    3  C   UNK N   1      28.886  14.645   4.045  0.00  0.00     0.219 C 
HETATM    4  C   UNK N   1      28.261  13.375   4.629  0.00  0.00     0.043 C 
BRANCH   3   5
HETATM    5  N   UNK N   1      29.660  14.465   2.804  0.00  0.00     0.084 N 
HETATM    6  C   UNK N   1      31.004  14.063   3.182  0.00  0.00     0.309 C 
HETATM    7  C   UNK N   1      29.129  13.386   1.973  0.00  0.00     0.309 C 
ENDBRANCH   3   5
ENDBRANCH   2   3
ENDBRANCH   1   2
BRANCH   1   8
HETATM    8  C   UNK N   1      27.671  16.539   6.631  0.00  0.00     0.149 C 
BRANCH   8   9
HETATM    9  O   UNK N   1      27.650  17.577   7.554  0.00  0.00    -0.315 OA
BRANCH   9  10
HETATM   10  C   UNK N   1      28.114  17.550   8.831  0.00  0.00     0.255 C 
HETATM   11  O   UNK N   1      27.581  16.852   9.689  0.00  0.00    -0.266 OA
HETATM   12  C   UNK N   1      29.234  18.446   9.219  0.00  0.00     0.126 C 
ENDBRANCH   9  10
ENDBRANCH   8   9
BRANCH   8  13
HETATM   13  C   UNK N   1      26.253  16.007   6.366  0.00  0.00     0.029 C 
HETATM   14  C   UNK N   1      25.977  14.839   7.298  0.00  0.00     0.007 C 
ENDBRANCH   8  13
ENDBRANCH   1   8
BRANCH   1  15
HETATM   15  C   UNK N   1      27.763  18.314   4.906  0.00  0.00    -0.042 A 
HETATM   16  C   UNK N   1      28.047  19.510   5.584  0.00  0.00     0.008 A 
HETATM   17  C   UNK N   1      27.400  20.698   5.236  0.00  0.00     0.001 A 
HETATM   18  C   UNK N   1      26.457  20.709   4.206  0.00  0.00     0.000 A 
HETATM   19  C   UNK N   1      26.158  19.530   3.524  0.00  0.00     0.001 A 
HETATM   20  C   UNK N   1      26.800  18.342   3.876  0.00  0.00     0.008 A 
ENDBRANCH   1  15
BRANCH   1  21
HETATM   21  C   UNK N   1      29.931  16.874   5.470  0.00  0.00    -0.042 A 
HETATM   22  C   UNK N   1      30.769  17.533   4.543  0.00  0.00     0.008 A 
HETATM   23  C   UNK N   1      32.156  17.533   4.677  0.00  0.00     0.001 A 
HETATM   24  C   UNK N   1      32.741  16.905   5.773  0.00  0.00     0.000 A 
HETATM   25  C   UNK N   1      31.937  16.262   6.717  0.00  0.00     0.001 A 
HETATM   26  C   UNK N   1      30.546  16.236   6.559  0.00  0.00     0.008 A 
ENDBRANCH   1  21
TORSDOF 9
ENDMDL
MODEL 2
REMARK VINA RESULT:      -5.7      1.694      3.215
REMARK  9 active torsions:
REMARK  status: ('A' for Active; 'I' for Inactive)
REMARK    1  A    between atoms: C_6  and  O_1 
REMARK    2  A    between atoms: O_1  and  C_23 
REMARK    3  A    between atoms: C_7  and  N_3 
REMARK    4  A    between atoms: C_4  and  C_5 
REMARK    5  A    between atoms: C_4  and  C_6 
REMARK    6  A    between atoms: C_4  and  C_8 
REMARK    7  A    between atoms: C_4  and  C_9 
REMARK    8  A    between atoms: C_5  and  C_7 
REMARK    9  A    between atoms: C_6  and  C_10 
ROOT
HETATM    1  C   UNK N   1      29.369  17.110   5.753  0.00  0.00     0.043 C 
ENDROOT
BRANCH   1   2
HETATM    2  C   UNK N   1      28.404  15.895   5.787  0.00  0.00     0.057 C 
BRANCH   2   3
HETATM    3  C   UNK N   1      27.058  15.988   5.008  0.00  0.00     0.219 C 
HETATM    4  C   UNK N   1      27.014  15.309   3.636  0.00  0.00     0.043 C 
BRANCH   3   5
HETATM    5  N   UNK N   1      25.823  15.897   5.806  0.00  0.00     0.084 N 
HETATM    6  C   UNK N   1      24.930  14.974   5.126  0.00  0.00     0.309 C 
HETATM    7  C   UNK N   1      26.061  15.333   7.132  0.00  0.00     0.309 C 
ENDBRANCH   3   5
ENDBRANCH   2   3
ENDBRANCH   1   2
BRANCH   1   8
HETATM    8  C   UNK N   1      30.000  17.338   7.184  0.00  0.00     0.149 C 
BRANCH   8   9
HETATM    9  O   UNK N   1      29.192  16.827   8.192  0.00  0.00    -0.315 OA
BRANCH   9  10
HETATM   10  C   UNK N   1      28.713  17.492   9.276  0.00  0.00     0.255 C 
HETATM   11  O   UNK N   1      27.579  17.289   9.700  0.00  0.00    -0.266 OA
HETATM   12  C   UNK N   1      29.545  18.548   9.909  0.00  0.00     0.126 C 
ENDBRANCH   9  10
ENDBRANCH   8   9
BRANCH   8  13
HETATM   13  C   UNK N   1      31.423  16.760   7.271  0.00  0.00     0.029 C 
HETATM   14  C   UNK N   1      32.343  17.794   7.899  0.00  0.00     0.007 C 
ENDBRANCH   8  13
ENDBRANCH   1   8
BRANCH   1  15
HETATM   15  C   UNK N   1      28.520  18.367   5.487  0.00  0.00    -0.042 A 
HETATM   16  C   UNK N   1      28.144  18.781   4.200  0.00  0.00     0.008 A 
HETATM   17  C   UNK N   1      27.426  19.964   4.011  0.00  0.00     0.001 A 
HETATM   18  C   UNK N   1      27.074  20.755   5.107  0.00  0.00     0.000 A 
HETATM   19  C   UNK N   1      27.441  20.363   6.394  0.00  0.00     0.001 A 
HETATM   20  C   UNK N   1      28.164  19.184   6.582  0.00  0.00     0.008 A 
ENDBRANCH   1  15
BRANCH   1  21
HETATM   21  C   UNK N   1      30.485  16.731   4.742  0.00  0.00    -0.042 A 
HETATM   22  C   UNK N   1      31.422  17.716   4.355  0.00  0.00     0.008 A 
HETATM   23  C   UNK N   1      32.475  17.426   3.490  0.00  0.00     0.001 A 
HETATM   24  C   UNK N   1      32.642  16.127   3.020  0.00  0.00     0.000 A 
HETATM   25  C   UNK N   1      31.743  15.129   3.401  0.00  0.00     0.001 A 
HETATM   26  C   UNK N   1      30.667  15.431   4.244  0.00  0.00     0.008 A 
ENDBRANCH   1  21
TORSDOF 9
ENDMDL
MODEL 3
REMARK VINA RESULT:      -5.4      2.087      5.075
REMARK  9 active torsions:
REMARK  status: ('A' for Active; 'I' for Inactive)
REMARK    1  A    between atoms: C_6  and  O_1 
REMARK    2  A    between atoms: O_1  and  C_23 
REMARK    3  A    between atoms: C_7  and  N_3 
REMARK    4  A    between atoms: C_4  and  C_5 
REMARK    5  A    between atoms: C_4  and  C_6 
REMARK    6  A    between atoms: C_4  and  C_8 
REMARK    7  A    between atoms: C_4  and  C_9 
REMARK    8  A    between atoms: C_5  and  C_7 
REMARK    9  A    between atoms: C_6  and  C_10 
ROOT
HETATM    1  C   UNK N   1      29.184  16.889   5.659  0.00  0.00     0.043 C 
ENDROOT
BRANCH   1   2
HETATM    2  C   UNK N   1      29.591  16.602   7.129  0.00  0.00     0.057 C 
BRANCH   2   3
HETATM    3  C   UNK N   1      31.085  16.766   7.536  0.00  0.00     0.219 C 
HETATM    4  C   UNK N   1      31.414  17.927   8.479  0.00  0.00     0.043 C 
BRANCH   3   5
HETATM    5  N   UNK N   1      31.852  15.526   7.757  0.00  0.00     0.084 N 
HETATM    6  C   UNK N   1      33.136  15.683   7.094  0.00  0.00     0.309 C 
HETATM    7  C   UNK N   1      32.147  15.303   9.170  0.00  0.00     0.309 C 
ENDBRANCH   3   5
ENDBRANCH   2   3
ENDBRANCH   1   2
BRANCH   1   8
HETATM    8  C   UNK N   1      28.143  15.806   5.167  0.00  0.00     0.149 C 
BRANCH   8   9
HETATM    9  O   UNK N   1      27.457  15.229   6.229  0.00  0.00    -0.315 OA
BRANCH   9  10
HETATM   10  C   UNK N   1      26.318  14.490   6.166  0.00  0.00     0.255 C 
HETATM   11  O   UNK N   1      26.300  13.391   5.619  0.00  0.00    -0.266 OA
HETATM   12  C   UNK N   1      25.051  15.060   6.692  0.00  0.00     0.126 C 
ENDBRANCH   9  10
ENDBRANCH   8   9
BRANCH   8  13
HETATM   13  C   UNK N   1      27.168  16.391   4.132  0.00  0.00     0.029 C 
HETATM   14  C   UNK N   1      27.360  15.674   2.806  0.00  0.00     0.007 C 
ENDBRANCH   8  13
ENDBRANCH   1   8
BRANCH   1  15
HETATM   15  C   UNK N   1      30.432  16.669   4.783  0.00  0.00    -0.042 A 
HETATM   16  C   UNK N   1      31.309  17.704   4.425  0.00  0.00     0.008 A 
HETATM   17  C   UNK N   1      32.392  17.462   3.576  0.00  0.00     0.001 A 
HETATM   18  C   UNK N   1      32.613  16.179   3.070  0.00  0.00     0.000 A 
HETATM   19  C   UNK N   1      31.750  15.137   3.411  0.00  0.00     0.001 A 
HETATM   20  C   UNK N   1      30.665  15.382   4.254  0.00  0.00     0.008 A 
ENDBRANCH   1  15
BRANCH   1  21
HETATM   21  C   UNK N   1      28.515  18.290   5.675  0.00  0.00    -0.042 A 
HETATM   22  C   UNK N   1      28.099  18.835   6.910  0.00  0.00     0.008 A 
HETATM   23  C   UNK N   1      27.536  20.107   6.998  0.00  0.00     0.001 A 
HETATM   24  C   UNK N   1      27.415  20.887   5.851  0.00  0.00     0.000 A 
HETATM   25  C   UNK N   1      27.837  20.381   4.619  0.00  0.00     0.001 A 
HETATM   26  C   UNK N   1      28.370  19.090   4.531  0.00  0.00     0.008 A 
ENDBRANCH   1  21
TORSDOF 9
ENDMDL
MODEL 4
REMARK VINA RESULT:      -5.4      2.135      5.397
REMARK  9 active torsions:
REMARK  status: ('A' for Active; 'I' for Inactive)
REMARK    1  A    between atoms: C_6  and  O_1 
REMARK    2  A    between atoms: O_1  and  C_23 
REMARK    3  A    between atoms: C_7  and  N_3 
REMARK    4  A    between atoms: C_4  and  C_5 
REMARK    5  A    between atoms: C_4  and  C_6 
REMARK    6  A    between atoms: C_4  and  C_8 
REMARK    7  A    between atoms: C_4  and  C_9 
REMARK    8  A    between atoms: C_5  and  C_7 
REMARK    9  A    between atoms: C_6  and  C_10 
ROOT
HETATM    1  C   UNK N   1      29.568  17.516   5.889  0.00  0.00     0.043 C 
ENDROOT
BRANCH   1   2
HETATM    2  C   UNK N   1      30.197  17.951   7.239  0.00  0.00     0.057 C 
BRANCH   2   3
HETATM    3  C   UNK N   1      30.191  16.942   8.425  0.00  0.00     0.219 C 
HETATM    4  C   UNK N   1      31.497  16.185   8.687  0.00  0.00     0.043 C 
BRANCH   3   5
HETATM    5  N   UNK N   1      29.427  17.332   9.624  0.00  0.00     0.084 N 
HETATM    6  C   UNK N   1      29.706  18.735   9.882  0.00  0.00     0.309 C 
HETATM    7  C   UNK N   1      27.985  17.233   9.418  0.00  0.00     0.309 C 
ENDBRANCH   3   5
ENDBRANCH   2   3
ENDBRANCH   1   2
BRANCH   1   8
HETATM    8  C   UNK N   1      28.874  16.105   6.048  0.00  0.00     0.149 C 
BRANCH   8   9
HETATM    9  O   UNK N   1      27.648  16.056   5.396  0.00  0.00    -0.315 OA
BRANCH   9  10
HETATM   10  C   UNK N   1      26.416  16.004   5.968  0.00  0.00     0.255 C 
HETATM   11  O   UNK N   1      26.222  15.386   7.011  0.00  0.00    -0.266 OA
HETATM   12  C   UNK N   1      25.264  16.634   5.274  0.00  0.00     0.126 C 
ENDBRANCH   9  10
ENDBRANCH   8   9
BRANCH   8  13
HETATM   13  C   UNK N   1      29.795  14.968   5.576  0.00  0.00     0.029 C 
HETATM   14  C   UNK N   1      28.964  13.920   4.854  0.00  0.00     0.007 C 
ENDBRANCH   8  13
ENDBRANCH   1   8
BRANCH   1  15
HETATM   15  C   UNK N   1      30.722  17.284   4.896  0.00  0.00    -0.042 A 
HETATM   16  C   UNK N   1      30.518  16.910   3.558  0.00  0.00     0.008 A 
HETATM   17  C   UNK N   1      31.602  16.650   2.716  0.00  0.00     0.001 A 
HETATM   18  C   UNK N   1      32.908  16.758   3.199  0.00  0.00     0.000 A 
HETATM   19  C   UNK N   1      33.131  17.125   4.527  0.00  0.00     0.001 A 
HETATM   20  C   UNK N   1      32.048  17.378   5.369  0.00  0.00     0.008 A 
ENDBRANCH   1  15
BRANCH   1  21
HETATM   21  C   UNK N   1      28.498  18.592   5.559  0.00  0.00    -0.042 A 
HETATM   22  C   UNK N   1      27.936  19.344   6.614  0.00  0.00     0.008 A 
HETATM   23  C   UNK N   1      27.007  20.357   6.380  0.00  0.00     0.001 A 
HETATM   24  C   UNK N   1      26.648  20.673   5.073  0.00  0.00     0.000 A 
HETATM   25  C   UNK N   1      27.204  19.959   4.008  0.00  0.00     0.001 A 
HETATM   26  C   UNK N   1      28.111  18.921   4.250  0.00  0.00     0.008 A 
ENDBRANCH   1  21
TORSDOF 9
ENDMDL
MODEL 5
REMARK VINA RESULT:      -5.4     11.535     14.334
REMARK  9 active torsions:
REMARK  status: ('A' for Active; 'I' for Inactive)
REMARK    1  A    between atoms: C_6  and  O_1 
REMARK    2  A    between atoms: O_1  and  C_23 
REMARK    3  A    between atoms: C_7  and  N_3 
REMARK    4  A    between atoms: C_4  and  C_5 
REMARK    5  A    between atoms: C_4  and  C_6 
REMARK    6  A    between atoms: C_4  and  C_8 
REMARK    7  A    between atoms: C_4  and  C_9 
REMARK    8  A    between atoms: C_5  and  C_7 
REMARK    9  A    between atoms: C_6  and  C_10 
ROOT
HETATM    1  C   UNK N   1      27.718  23.778  -5.692  0.00  0.00     0.043 C 
ENDROOT
BRANCH   1   2
HETATM    2  C   UNK N   1      26.635  24.394  -4.766  0.00  0.00     0.057 C 
BRANCH   2   3
HETATM    3  C   UNK N   1      26.336  25.918  -4.878  0.00  0.00     0.219 C 
HETATM    4  C   UNK N   1      25.060  26.311  -5.631  0.00  0.00     0.043 C 
BRANCH   3   5
HETATM    5  N   UNK N   1      26.667  26.748  -3.706  0.00  0.00     0.084 N 
HETATM    6  C   UNK N   1      27.968  27.348  -3.949  0.00  0.00     0.309 C 
HETATM    7  C   UNK N   1      25.732  27.856  -3.530  0.00  0.00     0.309 C 
ENDBRANCH   3   5
ENDBRANCH   2   3
ENDBRANCH   1   2
BRANCH   1   8
HETATM    8  C   UNK N   1      28.322  24.896  -6.631  0.00  0.00     0.149 C 
BRANCH   8   9
HETATM    9  O   UNK N   1      29.711  24.876  -6.632  0.00  0.00    -0.315 OA
BRANCH   9  10
HETATM   10  C   UNK N   1      30.547  25.895  -6.305  0.00  0.00     0.255 C 
HETATM   11  O   UNK N   1      30.506  26.970  -6.897  0.00  0.00    -0.266 OA
HETATM   12  C   UNK N   1      31.591  25.678  -5.269  0.00  0.00     0.126 C 
ENDBRANCH   9  10
ENDBRANCH   8   9
BRANCH   8  13
HETATM   13  C   UNK N   1      27.768  24.791  -8.062  0.00  0.00     0.029 C 
HETATM   14  C   UNK N   1      27.320  26.167  -8.526  0.00  0.00     0.007 C 
ENDBRANCH   8  13
ENDBRANCH   1   8
BRANCH   1  15
HETATM   15  C   UNK N   1      27.008  22.798  -6.644  0.00  0.00    -0.042 A 
HETATM   16  C   UNK N   1      25.613  22.642  -6.684  0.00  0.00     0.008 A 
HETATM   17  C   UNK N   1      25.024  21.693  -7.522  0.00  0.00     0.001 A 
HETATM   18  C   UNK N   1      25.821  20.883  -8.334  0.00  0.00     0.000 A 
HETATM   19  C   UNK N   1      27.208  21.019  -8.306  0.00  0.00     0.001 A 
HETATM   20  C   UNK N   1      27.797  21.963  -7.463  0.00  0.00     0.008 A 
ENDBRANCH   1  15
BRANCH   1  21
HETATM   21  C   UNK N   1      28.822  23.237  -4.744  0.00  0.00    -0.042 A 
HETATM   22  C   UNK N   1      28.910  23.753  -3.431  0.00  0.00     0.008 A 
HETATM   23  C   UNK N   1      29.846  23.275  -2.517  0.00  0.00     0.001 A 
HETATM   24  C   UNK N   1      30.695  22.234  -2.881  0.00  0.00     0.000 A 
HETATM   25  C   UNK N   1      30.617  21.691  -4.166  0.00  0.00     0.001 A 
HETATM   26  C   UNK N   1      29.697  22.197  -5.092  0.00  0.00     0.008 A 
ENDBRANCH   1  21
TORSDOF 9
ENDMDL
MODEL 6
REMARK VINA RESULT:      -5.3      2.267      5.171
REMARK  9 active torsions:
REMARK  status: ('A' for Active; 'I' for Inactive)
REMARK    1  A    between atoms: C_6  and  O_1 
REMARK    2  A    between atoms: O_1  and  C_23 
REMARK    3  A    between atoms: C_7  and  N_3 
REMARK    4  A    between atoms: C_4  and  C_5 
REMARK    5  A    between atoms: C_4  and  C_6 
REMARK    6  A    between atoms: C_4  and  C_8 
REMARK    7  A    between atoms: C_4  and  C_9 
REMARK    8  A    between atoms: C_5  and  C_7 
REMARK    9  A    between atoms: C_6  and  C_10 
ROOT
HETATM    1  C   UNK N   1      29.143  17.002   5.647  0.00  0.00     0.043 C 
ENDROOT
BRANCH   1   2
HETATM    2  C   UNK N   1      28.963  18.334   4.872  0.00  0.00     0.057 C 
BRANCH   2   3
HETATM    3  C   UNK N   1      27.603  19.085   4.984  0.00  0.00     0.219 C 
HETATM    4  C   UNK N   1      27.602  20.379   5.804  0.00  0.00     0.043 C 
BRANCH   3   5
HETATM    5  N   UNK N   1      26.747  19.088   3.785  0.00  0.00     0.084 N 
HETATM    6  C   UNK N   1      25.494  18.444   4.141  0.00  0.00     0.309 C 
HETATM    7  C   UNK N   1      26.403  20.441   3.354  0.00  0.00     0.309 C 
ENDBRANCH   3   5
ENDBRANCH   2   3
ENDBRANCH   1   2
BRANCH   1   8
HETATM    8  C   UNK N   1      30.520  16.333   5.255  0.00  0.00     0.149 C 
BRANCH   8   9
HETATM    9  O   UNK N   1      31.577  17.230   5.351  0.00  0.00    -0.315 OA
BRANCH   9  10
HETATM   10  C   UNK N   1      32.576  17.421   4.450  0.00  0.00     0.255 C 
HETATM   11  O   UNK N   1      33.624  17.977   4.766  0.00  0.00    -0.266 OA
HETATM   12  C   UNK N   1      32.363  17.027   3.032  0.00  0.00     0.126 C 
ENDBRANCH   9  10
ENDBRANCH   8   9
BRANCH   8  13
HETATM   13  C   UNK N   1      30.791  15.069   6.088  0.00  0.00     0.029 C 
HETATM   14  C   UNK N   1      31.083  13.907   5.152  0.00  0.00     0.007 C 
ENDBRANCH   8  13
ENDBRANCH   1   8
BRANCH   1  15
HETATM   15  C   UNK N   1      28.066  16.024   5.141  0.00  0.00    -0.042 A 
HETATM   16  C   UNK N   1      27.142  15.395   5.990  0.00  0.00     0.008 A 
HETATM   17  C   UNK N   1      26.226  14.468   5.487  0.00  0.00     0.001 A 
HETATM   18  C   UNK N   1      26.221  14.153   4.127  0.00  0.00     0.000 A 
HETATM   19  C   UNK N   1      27.134  14.765   3.267  0.00  0.00     0.001 A 
HETATM   20  C   UNK N   1      28.053  15.686   3.771  0.00  0.00     0.008 A 
ENDBRANCH   1  15
BRANCH   1  21
HETATM   21  C   UNK N   1      29.159  17.390   7.151  0.00  0.00    -0.042 A 
HETATM   22  C   UNK N   1      30.319  17.989   7.691  0.00  0.00     0.008 A 
HETATM   23  C   UNK N   1      30.379  18.404   9.020  0.00  0.00     0.001 A 
HETATM   24  C   UNK N   1      29.259  18.268   9.835  0.00  0.00     0.000 A 
HETATM   25  C   UNK N   1      28.092  17.697   9.322  0.00  0.00     0.001 A 
HETATM   26  C   UNK N   1      28.047  17.251   7.996  0.00  0.00     0.008 A 
ENDBRANCH   1  21
TORSDOF 9
ENDMDL
MODEL 7
REMARK VINA RESULT:      -5.3     11.600     14.739
REMARK  9 active torsions:
REMARK  status: ('A' for Active; 'I' for Inactive)
REMARK    1  A    between atoms: C_6  and  O_1 
REMARK    2  A    between atoms: O_1  and  C_23 
REMARK    3  A    between atoms: C_7  and  N_3 
REMARK    4  A    between atoms: C_4  and  C_5 
REMARK    5  A    between atoms: C_4  and  C_6 
REMARK    6  A    between atoms: C_4  and  C_8 
REMARK    7  A    between atoms: C_4  and  C_9 
REMARK    8  A    between atoms: C_5  and  C_7 
REMARK    9  A    between atoms: C_6  and  C_10 
ROOT
HETATM    1  C   UNK N   1      27.668  25.057  -5.252  0.00  0.00     0.043 C 
ENDROOT
BRANCH   1   2
HETATM    2  C   UNK N   1      26.324  25.444  -4.581  0.00  0.00     0.057 C 
BRANCH   2   3
HETATM    3  C   UNK N   1      25.754  26.874  -4.820  0.00  0.00     0.219 C 
HETATM    4  C   UNK N   1      24.662  27.006  -5.886  0.00  0.00     0.043 C 
BRANCH   3   5
HETATM    5  N   UNK N   1      25.595  27.731  -3.631  0.00  0.00     0.084 N 
HETATM    6  C   UNK N   1      26.400  27.157  -2.567  0.00  0.00     0.309 C 
HETATM    7  C   UNK N   1      26.109  29.081  -3.849  0.00  0.00     0.309 C 
ENDBRANCH   3   5
ENDBRANCH   2   3
ENDBRANCH   1   2
BRANCH   1   8
HETATM    8  C   UNK N   1      27.430  23.902  -6.305  0.00  0.00     0.149 C 
BRANCH   8   9
HETATM    9  O   UNK N   1      28.209  22.784  -6.031  0.00  0.00    -0.315 OA
BRANCH   9  10
HETATM   10  C   UNK N   1      28.922  22.043  -6.919  0.00  0.00     0.255 C 
HETATM   11  O   UNK N   1      28.766  22.172  -8.129  0.00  0.00    -0.266 OA
HETATM   12  C   UNK N   1      29.845  20.993  -6.415  0.00  0.00     0.126 C 
ENDBRANCH   9  10
ENDBRANCH   8   9
BRANCH   8  13
HETATM   13  C   UNK N   1      25.942  23.527  -6.404  0.00  0.00     0.029 C 
HETATM   14  C   UNK N   1      25.519  23.550  -7.864  0.00  0.00     0.007 C 
ENDBRANCH   8  13
ENDBRANCH   1   8
BRANCH   1  15
HETATM   15  C   UNK N   1      28.563  24.429  -4.167  0.00  0.00    -0.042 A 
HETATM   16  C   UNK N   1      29.964  24.415  -4.243  0.00  0.00     0.008 A 
HETATM   17  C   UNK N   1      30.726  23.776  -3.262  0.00  0.00     0.001 A 
HETATM   18  C   UNK N   1      30.098  23.139  -2.189  0.00  0.00     0.000 A 
HETATM   19  C   UNK N   1      28.706  23.139  -2.098  0.00  0.00     0.001 A 
HETATM   20  C   UNK N   1      27.945  23.771  -3.082  0.00  0.00     0.008 A 
ENDBRANCH   1  15
BRANCH   1  21
HETATM   21  C   UNK N   1      28.157  26.337  -5.981  0.00  0.00    -0.042 A 
HETATM   22  C   UNK N   1      27.851  26.506  -7.350  0.00  0.00     0.008 A 
HETATM   23  C   UNK N   1      28.219  27.654  -8.048  0.00  0.00     0.001 A 
HETATM   24  C   UNK N   1      28.870  28.687  -7.380  0.00  0.00     0.000 A 
HETATM   25  C   UNK N   1      29.169  28.556  -6.022  0.00  0.00     0.001 A 
HETATM   26  C   UNK N   1      28.826  27.387  -5.333  0.00  0.00     0.008 A 
ENDBRANCH   1  21
TORSDOF 9
ENDMDL
MODEL 8
REMARK VINA RESULT:      -5.2     11.747     14.941
REMARK  9 active torsions:
REMARK  status: ('A' for Active; 'I' for Inactive)
REMARK    1  A    between atoms: C_6  and  O_1 
REMARK    2  A    between atoms: O_1  and  C_23 
REMARK    3  A    between atoms: C_7  and  N_3 
REMARK    4  A    between atoms: C_4  and  C_5 
REMARK    5  A    between atoms: C_4  and  C_6 
REMARK    6  A    between atoms: C_4  and  C_8 
REMARK    7  A    between atoms: C_4  and  C_9 
REMARK    8  A    between atoms: C_5  and  C_7 
REMARK    9  A    between atoms: C_6  and  C_10 
ROOT
HETATM    1  C   UNK N   1      27.300  24.882  -5.276  0.00  0.00     0.043 C 
ENDROOT
BRANCH   1   2
HETATM    2  C   UNK N   1      26.041  25.426  -4.549  0.00  0.00     0.057 C 
BRANCH   2   3
HETATM    3  C   UNK N   1      25.596  26.894  -4.822  0.00  0.00     0.219 C 
HETATM    4  C   UNK N   1      24.445  27.086  -5.814  0.00  0.00     0.043 C 
BRANCH   3   5
HETATM    5  N   UNK N   1      25.610  27.815  -3.672  0.00  0.00     0.084 N 
HETATM    6  C   UNK N   1      26.439  27.214  -2.641  0.00  0.00     0.309 C 
HETATM    7  C   UNK N   1      26.228  29.098  -3.998  0.00  0.00     0.309 C 
ENDBRANCH   3   5
ENDBRANCH   2   3
ENDBRANCH   1   2
BRANCH   1   8
HETATM    8  C   UNK N   1      26.912  23.635  -6.165  0.00  0.00     0.149 C 
BRANCH   8   9
HETATM    9  O   UNK N   1      25.645  23.770  -6.721  0.00  0.00    -0.315 OA
BRANCH   9  10
HETATM   10  C   UNK N   1      25.077  22.980  -7.668  0.00  0.00     0.255 C 
HETATM   11  O   UNK N   1      24.695  23.441  -8.740  0.00  0.00    -0.266 OA
HETATM   12  C   UNK N   1      24.832  21.544  -7.369  0.00  0.00     0.126 C 
ENDBRANCH   9  10
ENDBRANCH   8   9
BRANCH   8  13
HETATM   13  C   UNK N   1      27.966  23.368  -7.253  0.00  0.00     0.029 C 
HETATM   14  C   UNK N   1      28.587  22.000  -7.020  0.00  0.00     0.007 C 
ENDBRANCH   8  13
ENDBRANCH   1   8
BRANCH   1  15
HETATM   15  C   UNK N   1      28.250  24.325  -4.200  0.00  0.00    -0.042 A 
HETATM   16  C   UNK N   1      29.644  24.285  -4.354  0.00  0.00     0.008 A 
HETATM   17  C   UNK N   1      30.455  23.710  -3.373  0.00  0.00     0.001 A 
HETATM   18  C   UNK N   1      29.884  23.164  -2.221  0.00  0.00     0.000 A 
HETATM   19  C   UNK N   1      28.500  23.191  -2.050  0.00  0.00     0.001 A 
HETATM   20  C   UNK N   1      27.690  23.759  -3.034  0.00  0.00     0.008 A 
ENDBRANCH   1  15
BRANCH   1  21
HETATM   21  C   UNK N   1      27.793  26.041  -6.185  0.00  0.00    -0.042 A 
HETATM   22  C   UNK N   1      28.780  26.924  -5.692  0.00  0.00     0.008 A 
HETATM   23  C   UNK N   1      29.298  27.955  -6.475  0.00  0.00     0.001 A 
HETATM   24  C   UNK N   1      28.870  28.101  -7.791  0.00  0.00     0.000 A 
HETATM   25  C   UNK N   1      27.910  27.230  -8.311  0.00  0.00     0.001 A 
HETATM   26  C   UNK N   1      27.368  26.218  -7.510  0.00  0.00     0.008 A 
ENDBRANCH   1  21
TORSDOF 9
ENDMDL
MODEL 9
REMARK VINA RESULT:      -5.2     12.002     14.884
REMARK  9 active torsions:
REMARK  status: ('A' for Active; 'I' for Inactive)
REMARK    1  A    between atoms: C_6  and  O_1 
REMARK    2  A    between atoms: O_1  and  C_23 
REMARK    3  A    between atoms: C_7  and  N_3 
REMARK    4  A    between atoms: C_4  and  C_5 
REMARK    5  A    between atoms: C_4  and  C_6 
REMARK    6  A    between atoms: C_4  and  C_8 
REMARK    7  A    between atoms: C_4  and  C_9 
REMARK    8  A    between atoms: C_5  and  C_7 
REMARK    9  A    between atoms: C_6  and  C_10 
ROOT
HETATM    1  C   UNK N   1      27.416  24.197  -6.435  0.00  0.00     0.043 C 
ENDROOT
BRANCH   1   2
HETATM    2  C   UNK N   1      26.357  24.769  -5.455  0.00  0.00     0.057 C 
BRANCH   2   3
HETATM    3  C   UNK N   1      26.269  26.313  -5.270  0.00  0.00     0.219 C 
HETATM    4  C   UNK N   1      24.941  26.973  -5.652  0.00  0.00     0.043 C 
BRANCH   3   5
HETATM    5  N   UNK N   1      26.948  26.879  -4.089  0.00  0.00     0.084 N 
HETATM    6  C   UNK N   1      27.786  27.972  -4.550  0.00  0.00     0.309 C 
HETATM    7  C   UNK N   1      26.006  27.459  -3.136  0.00  0.00     0.309 C 
ENDBRANCH   3   5
ENDBRANCH   2   3
ENDBRANCH   1   2
BRANCH   1   8
HETATM    8  C   UNK N   1      28.710  23.765  -5.637  0.00  0.00     0.149 C 
BRANCH   8   9
HETATM    9  O   UNK N   1      28.552  23.932  -4.267  0.00  0.00    -0.315 OA
BRANCH   9  10
HETATM   10  C   UNK N   1      29.521  24.219  -3.358  0.00  0.00     0.255 C 
HETATM   11  O   UNK N   1      29.605  23.604  -2.299  0.00  0.00    -0.266 OA
HETATM   12  C   UNK N   1      30.443  25.357  -3.611  0.00  0.00     0.126 C 
ENDBRANCH   9  10
ENDBRANCH   8   9
BRANCH   8  13
HETATM   13  C   UNK N   1      29.125  22.323  -5.973  0.00  0.00     0.029 C 
HETATM   14  C   UNK N   1      30.579  22.312  -6.415  0.00  0.00     0.007 C 
ENDBRANCH   8  13
ENDBRANCH   1   8
BRANCH   1  15
HETATM   15  C   UNK N   1      27.876  25.352  -7.345  0.00  0.00    -0.042 A 
HETATM   16  C   UNK N   1      27.101  25.847  -8.406  0.00  0.00     0.008 A 
HETATM   17  C   UNK N   1      27.593  26.854  -9.240  0.00  0.00     0.001 A 
HETATM   18  C   UNK N   1      28.868  27.382  -9.026  0.00  0.00     0.000 A 
HETATM   19  C   UNK N   1      29.655  26.900  -7.980  0.00  0.00     0.001 A 
HETATM   20  C   UNK N   1      29.166  25.890  -7.151  0.00  0.00     0.008 A 
ENDBRANCH   1  15
BRANCH   1  21
HETATM   21  C   UNK N   1      26.758  22.949  -7.082  0.00  0.00    -0.042 A 
HETATM   22  C   UNK N   1      25.511  22.501  -6.591  0.00  0.00     0.008 A 
HETATM   23  C   UNK N   1      24.845  21.416  -7.159  0.00  0.00     0.001 A 
HETATM   24  C   UNK N   1      25.394  20.776  -8.266  0.00  0.00     0.000 A 
HETATM   25  C   UNK N   1      26.615  21.209  -8.785  0.00  0.00     0.001 A 
HETATM   26  C   UNK N   1      27.297  22.278  -8.191  0.00  0.00     0.008 A 
ENDBRANCH   1  21
TORSDOF 9
ENDMDL
