REMARK  8 active torsions:
REMARK  status: ('A' for Active; 'I' for Inactive)
REMARK    1  A    between atoms: N_4  and  C_9 
REMARK    2  A    between atoms: N_5  and  C_10 
REMARK    3  A    between atoms: N_5  and  C_15 
REMARK    4  A    between atoms: N_5  and  C_16 
REMARK    5  A    between atoms: N_8  and  C_22 
REMARK    6  A    between atoms: C_9  and  C_10 
REMARK    7  A    between atoms: C_11  and  C_14 
REMARK    8  A    between atoms: C_14  and  C_19 
ROOT
HETATM    1  N   UNK N   1       5.056   0.561  -0.213  0.00  0.00    -0.333 N 
HETATM    2  N   UNK N   1       5.112  -1.673   0.063  0.00  0.00    -0.344 N 
ATOM      3  HN  UNK N   1       5.454  -2.627   0.179  1.00  0.00     0.167 HD
HETATM    4  C   UNK N   1       5.845  -0.542  -0.098  0.00  0.00     0.088 A 
HETATM    5  C   UNK N   1       3.797   0.096  -0.125  0.00  0.00     0.062 A 
HETATM    6  C   UNK N   1       3.841  -1.255   0.037  0.00  0.00     0.063 A 
HETATM    7  C   UNK N   1       2.586   0.783  -0.207  0.00  0.00     0.034 A 
HETATM    8  C   UNK N   1       2.701  -2.038   0.118  0.00  0.00     0.068 A 
HETATM    9  C   UNK N   1       1.450  -1.395   0.029  0.00  0.00     0.105 A 
HETATM   10  C   UNK N   1       1.399   0.019  -0.126  0.00  0.00     0.038 A 
ENDROOT
BRANCH   4  11
HETATM   11  C   UNK N   1       7.355  -0.511  -0.158  0.00  0.00     0.115 C 
BRANCH  11  12
HETATM   12  C   UNK N   1       8.091  -1.829  -0.092  0.00  0.00    -0.051 A 
HETATM   13  C   UNK N   1       9.490  -1.811  -0.067  0.00  0.00     0.009 A 
HETATM   14  C   UNK N   1      10.211  -3.009  -0.015  0.00  0.00     0.024 A 
HETATM   15  C   UNK N   1       9.536  -4.233   0.009  0.00  0.00     0.034 A 
HETATM   16 Cl   UNK N   1      10.431  -5.735   0.069  0.00  0.00    -0.084 Cl
HETATM   17  C   UNK N   1       8.142  -4.261  -0.017  0.00  0.00     0.024 A 
HETATM   18  C   UNK N   1       7.427  -3.066  -0.068  0.00  0.00     0.009 A 
ENDBRANCH  11  12
ENDBRANCH   4  11
BRANCH   1  19
HETATM   19  C   UNK N   1       5.479   1.940  -0.449  0.00  0.00     0.161 C 
BRANCH  19  20
HETATM   20  C   UNK N   1       6.514   2.395   0.573  0.00  0.00     0.292 C 
BRANCH  20  21
HETATM   21  N   UNK N   1       7.214   3.564   0.062  0.00  0.00     0.089 N 
BRANCH  21  22
HETATM   22  C   UNK N   1       8.599   3.471   0.506  0.00  0.00     0.268 C 
HETATM   23  C   UNK N   1       9.499   4.298  -0.397  0.00  0.00     0.037 C 
ENDBRANCH  21  22
BRANCH  21  24
HETATM   24  C   UNK N   1       6.616   4.730   0.694  0.00  0.00     0.268 C 
HETATM   25  C   UNK N   1       6.340   5.793  -0.350  0.00  0.00     0.037 C 
ENDBRANCH  21  24
ENDBRANCH  20  21
ENDBRANCH  19  20
ENDBRANCH   1  19
BRANCH   9  26
HETATM   26  N   UNK N   1       0.254  -2.164   0.075  0.00  0.00    -0.116 N 
HETATM   27  O   UNK N   1      -0.918  -1.574  -0.023  0.00  0.00    -0.532 OA
HETATM   28  O   UNK N   1       0.306  -3.353   0.171  0.00  0.00    -0.532 OA
ENDBRANCH   9  26
TORSDOF 8
