MODEL 1
REMARK VINA RESULT:      -6.8      0.000      0.000
REMARK  8 active torsions:
REMARK  status: ('A' for Active; 'I' for Inactive)
REMARK    1  A    between atoms: N_4  and  C_9 
REMARK    2  A    between atoms: N_5  and  C_10 
REMARK    3  A    between atoms: N_5  and  C_15 
REMARK    4  A    between atoms: N_5  and  C_16 
REMARK    5  A    between atoms: N_8  and  C_22 
REMARK    6  A    between atoms: C_9  and  C_10 
REMARK    7  A    between atoms: C_11  and  C_14 
REMARK    8  A    between atoms: C_14  and  C_19 
ROOT
HETATM    1  N   UNK N   1      30.677  16.553   5.444  0.00  0.00    -0.333 N 
HETATM    2  N   UNK N   1      30.179  17.260   7.524  0.00  0.00    -0.344 N 
ATOM      3  HN  UNK N   1      29.657  17.514   8.362  1.00  0.00     0.167 HD
HETATM    4  C   UNK N   1      29.687  16.804   6.344  0.00  0.00     0.088 A 
HETATM    5  C   UNK N   1      31.815  16.869   6.087  0.00  0.00     0.062 A 
HETATM    6  C   UNK N   1      31.504  17.299   7.341  0.00  0.00     0.063 A 
HETATM    7  C   UNK N   1      33.134  16.833   5.633  0.00  0.00     0.034 A 
HETATM    8  C   UNK N   1      32.461  17.739   8.241  0.00  0.00     0.068 A 
HETATM    9  C   UNK N   1      33.809  17.735   7.828  0.00  0.00     0.105 A 
HETATM   10  C   UNK N   1      34.140  17.272   6.524  0.00  0.00     0.038 A 
ENDROOT
BRANCH   4  11
HETATM   11  C   UNK N   1      28.215  16.611   6.057  0.00  0.00     0.115 C 
BRANCH  11  12
HETATM   12  C   UNK N   1      27.520  17.650   5.208  0.00  0.00    -0.051 A 
HETATM   13  C   UNK N   1      26.265  17.341   4.671  0.00  0.00     0.009 A 
HETATM   14  C   UNK N   1      25.591  18.271   3.871  0.00  0.00     0.024 A 
HETATM   15  C   UNK N   1      26.170  19.514   3.602  0.00  0.00     0.034 A 
HETATM   16 Cl   UNK N   1      25.335  20.680   2.600  0.00  0.00    -0.084 Cl
HETATM   17  C   UNK N   1      27.420  19.831   4.132  0.00  0.00     0.024 A 
HETATM   18  C   UNK N   1      28.089  18.903   4.928  0.00  0.00     0.009 A 
ENDBRANCH  11  12
ENDBRANCH   4  11
BRANCH   1  19
HETATM   19  C   UNK N   1      30.532  16.105   4.061  0.00  0.00     0.161 C 
BRANCH  19  20
HETATM   20  C   UNK N   1      30.530  14.585   3.958  0.00  0.00     0.292 C 
BRANCH  20  21
HETATM   21  N   UNK N   1      29.344  14.153   3.233  0.00  0.00     0.089 N 
BRANCH  21  22
HETATM   22  C   UNK N   1      29.779  13.216   2.205  0.00  0.00     0.268 C 
HETATM   23  C   UNK N   1      31.256  12.899   2.371  0.00  0.00     0.037 C 
ENDBRANCH  21  22
BRANCH  21  24
HETATM   24  C   UNK N   1      28.797  15.327   2.571  0.00  0.00     0.268 C 
HETATM   25  C   UNK N   1      27.391  15.033   2.088  0.00  0.00     0.037 C 
ENDBRANCH  21  24
ENDBRANCH  20  21
ENDBRANCH  19  20
ENDBRANCH   1  19
BRANCH   9  26
HETATM   26  N   UNK N   1      34.820  18.209   8.709  0.00  0.00    -0.116 N 
HETATM   27  O   UNK N   1      35.383  19.380   8.504  0.00  0.00    -0.532 OA
HETATM   28  O   UNK N   1      35.143  17.561   9.659  0.00  0.00    -0.532 OA
ENDBRANCH   9  26
TORSDOF 8
ENDMDL
MODEL 2
REMARK VINA RESULT:      -6.4      9.071     10.873
REMARK  8 active torsions:
REMARK  status: ('A' for Active; 'I' for Inactive)
REMARK    1  A    between atoms: N_4  and  C_9 
REMARK    2  A    between atoms: N_5  and  C_10 
REMARK    3  A    between atoms: N_5  and  C_15 
REMARK    4  A    between atoms: N_5  and  C_16 
REMARK    5  A    between atoms: N_8  and  C_22 
REMARK    6  A    between atoms: C_9  and  C_10 
REMARK    7  A    between atoms: C_11  and  C_14 
REMARK    8  A    between atoms: C_14  and  C_19 
ROOT
HETATM    1  N   UNK N   1      19.764  16.298   5.245  0.00  0.00    -0.333 N 
HETATM    2  N   UNK N   1      21.140  17.778   6.238  0.00  0.00    -0.344 N 
ATOM      3  HN  UNK N   1      21.698  18.261   6.942  1.00  0.00     0.167 HD
HETATM    4  C   UNK N   1      20.360  16.680   6.407  0.00  0.00     0.088 A 
HETATM    5  C   UNK N   1      20.185  17.191   4.331  0.00  0.00     0.062 A 
HETATM    6  C   UNK N   1      21.012  18.083   4.942  0.00  0.00     0.063 A 
HETATM    7  C   UNK N   1      19.866  17.297   2.978  0.00  0.00     0.034 A 
HETATM    8  C   UNK N   1      21.579  19.157   4.275  0.00  0.00     0.068 A 
HETATM    9  C   UNK N   1      21.281  19.318   2.907  0.00  0.00     0.105 A 
HETATM   10  C   UNK N   1      20.428  18.379   2.261  0.00  0.00     0.038 A 
ENDROOT
BRANCH   4  11
HETATM   11  C   UNK N   1      20.164  15.974   7.730  0.00  0.00     0.115 C 
BRANCH  11  12
HETATM   12  C   UNK N   1      21.229  14.998   8.173  0.00  0.00    -0.051 A 
HETATM   13  C   UNK N   1      21.121  14.426   9.445  0.00  0.00     0.009 A 
HETATM   14  C   UNK N   1      22.090  13.524   9.899  0.00  0.00     0.024 A 
HETATM   15  C   UNK N   1      23.176  13.193   9.083  0.00  0.00     0.034 A 
HETATM   16 Cl   UNK N   1      24.394  12.071   9.646  0.00  0.00    -0.084 Cl
HETATM   17  C   UNK N   1      23.293  13.760   7.815  0.00  0.00     0.024 A 
HETATM   18  C   UNK N   1      22.326  14.656   7.366  0.00  0.00     0.009 A 
ENDBRANCH  11  12
ENDBRANCH   4  11
BRANCH   1  19
HETATM   19  C   UNK N   1      18.820  15.200   5.045  0.00  0.00     0.161 C 
BRANCH  19  20
HETATM   20  C   UNK N   1      19.536  13.873   4.828  0.00  0.00     0.292 C 
BRANCH  20  21
HETATM   21  N   UNK N   1      20.306  13.936   3.595  0.00  0.00     0.089 N 
BRANCH  21  22
HETATM   22  C   UNK N   1      19.688  13.018   2.648  0.00  0.00     0.268 C 
HETATM   23  C   UNK N   1      19.440  13.716   1.321  0.00  0.00     0.037 C 
ENDBRANCH  21  22
BRANCH  21  24
HETATM   24  C   UNK N   1      21.640  13.440   3.898  0.00  0.00     0.268 C 
HETATM   25  C   UNK N   1      22.663  14.525   3.629  0.00  0.00     0.037 C 
ENDBRANCH  21  24
ENDBRANCH  20  21
ENDBRANCH  19  20
ENDBRANCH   1  19
BRANCH   9  26
HETATM   26  N   UNK N   1      21.816  20.425   2.191  0.00  0.00    -0.116 N 
HETATM   27  O   UNK N   1      21.564  20.569   0.908  0.00  0.00    -0.532 OA
HETATM   28  O   UNK N   1      22.471  21.248   2.757  0.00  0.00    -0.532 OA
ENDBRANCH   9  26
TORSDOF 8
ENDMDL
MODEL 3
REMARK VINA RESULT:      -6.3     11.119     12.897
REMARK  8 active torsions:
REMARK  status: ('A' for Active; 'I' for Inactive)
REMARK    1  A    between atoms: N_4  and  C_9 
REMARK    2  A    between atoms: N_5  and  C_10 
REMARK    3  A    between atoms: N_5  and  C_15 
REMARK    4  A    between atoms: N_5  and  C_16 
REMARK    5  A    between atoms: N_8  and  C_22 
REMARK    6  A    between atoms: C_9  and  C_10 
REMARK    7  A    between atoms: C_11  and  C_14 
REMARK    8  A    between atoms: C_14  and  C_19 
ROOT
HETATM    1  N   UNK N   1      28.301  23.607  -5.145  0.00  0.00    -0.333 N 
HETATM    2  N   UNK N   1      28.736  23.854  -2.949  0.00  0.00    -0.344 N 
ATOM      3  HN  UNK N   1      28.661  24.137  -1.972  1.00  0.00     0.167 HD
HETATM    4  C   UNK N   1      27.901  24.170  -3.972  0.00  0.00     0.088 A 
HETATM    5  C   UNK N   1      29.419  22.927  -4.838  0.00  0.00     0.062 A 
HETATM    6  C   UNK N   1      29.677  23.085  -3.511  0.00  0.00     0.063 A 
HETATM    7  C   UNK N   1      30.264  22.184  -5.662  0.00  0.00     0.034 A 
HETATM    8  C   UNK N   1      30.789  22.538  -2.892  0.00  0.00     0.068 A 
HETATM    9  C   UNK N   1      31.683  21.788  -3.682  0.00  0.00     0.105 A 
HETATM   10  C   UNK N   1      31.410  21.607  -5.067  0.00  0.00     0.038 A 
ENDROOT
BRANCH   4  11
HETATM   11  C   UNK N   1      26.683  25.053  -3.830  0.00  0.00     0.115 C 
BRANCH  11  12
HETATM   12  C   UNK N   1      26.860  26.539  -4.037  0.00  0.00    -0.051 A 
HETATM   13  C   UNK N   1      25.907  27.407  -3.492  0.00  0.00     0.009 A 
HETATM   14  C   UNK N   1      26.029  28.790  -3.667  0.00  0.00     0.024 A 
HETATM   15  C   UNK N   1      27.104  29.313  -4.392  0.00  0.00     0.034 A 
HETATM   16 Cl   UNK N   1      27.260  31.040  -4.620  0.00  0.00    -0.084 Cl
HETATM   17  C   UNK N   1      28.058  28.456  -4.941  0.00  0.00     0.024 A 
HETATM   18  C   UNK N   1      27.934  27.079  -4.763  0.00  0.00     0.009 A 
ENDBRANCH  11  12
ENDBRANCH   4  11
BRANCH   1  19
HETATM   19  C   UNK N   1      27.689  23.763  -6.463  0.00  0.00     0.161 C 
BRANCH  19  20
HETATM   20  C   UNK N   1      26.616  22.711  -6.715  0.00  0.00     0.292 C 
BRANCH  20  21
HETATM   21  N   UNK N   1      26.533  22.440  -8.143  0.00  0.00     0.089 N 
BRANCH  21  22
HETATM   22  C   UNK N   1      25.598  21.337  -8.323  0.00  0.00     0.268 C 
HETATM   23  C   UNK N   1      24.584  21.314  -7.191  0.00  0.00     0.037 C 
ENDBRANCH  21  22
BRANCH  21  24
HETATM   24  C   UNK N   1      27.848  21.990  -8.570  0.00  0.00     0.268 C 
HETATM   25  C   UNK N   1      28.065  20.555  -8.134  0.00  0.00     0.037 C 
ENDBRANCH  21  24
ENDBRANCH  20  21
ENDBRANCH  19  20
ENDBRANCH   1  19
BRANCH   9  26
HETATM   26  N   UNK N   1      32.855  21.235  -3.094  0.00  0.00    -0.116 N 
HETATM   27  O   UNK N   1      33.807  20.739  -3.855  0.00  0.00    -0.532 OA
HETATM   28  O   UNK N   1      32.997  21.247  -1.909  0.00  0.00    -0.532 OA
ENDBRANCH   9  26
TORSDOF 8
ENDMDL
MODEL 4
REMARK VINA RESULT:      -6.3      5.968      8.735
REMARK  8 active torsions:
REMARK  status: ('A' for Active; 'I' for Inactive)
REMARK    1  A    between atoms: N_4  and  C_9 
REMARK    2  A    between atoms: N_5  and  C_10 
REMARK    3  A    between atoms: N_5  and  C_15 
REMARK    4  A    between atoms: N_5  and  C_16 
REMARK    5  A    between atoms: N_8  and  C_22 
REMARK    6  A    between atoms: C_9  and  C_10 
REMARK    7  A    between atoms: C_11  and  C_14 
REMARK    8  A    between atoms: C_14  and  C_19 
ROOT
HETATM    1  N   UNK N   1      26.325  17.943   4.144  0.00  0.00    -0.333 N 
HETATM    2  N   UNK N   1      24.398  16.891   4.648  0.00  0.00    -0.344 N 
ATOM      3  HN  UNK N   1      23.734  16.194   4.982  1.00  0.00     0.167 HD
HETATM    4  C   UNK N   1      25.754  16.822   4.663  0.00  0.00     0.088 A 
HETATM    5  C   UNK N   1      25.290  18.727   3.793  0.00  0.00     0.062 A 
HETATM    6  C   UNK N   1      24.130  18.081   4.097  0.00  0.00     0.063 A 
HETATM    7  C   UNK N   1      25.289  19.983   3.186  0.00  0.00     0.034 A 
HETATM    8  C   UNK N   1      22.881  18.611   3.817  0.00  0.00     0.068 A 
HETATM    9  C   UNK N   1      22.824  19.874   3.193  0.00  0.00     0.105 A 
HETATM   10  C   UNK N   1      24.033  20.559   2.886  0.00  0.00     0.038 A 
ENDROOT
BRANCH   4  11
HETATM   11  C   UNK N   1      26.536  15.637   5.180  0.00  0.00     0.115 C 
BRANCH  11  12
HETATM   12  C   UNK N   1      25.776  14.552   5.907  0.00  0.00    -0.051 A 
HETATM   13  C   UNK N   1      25.631  14.655   7.295  0.00  0.00     0.009 A 
HETATM   14  C   UNK N   1      24.942  13.668   8.009  0.00  0.00     0.024 A 
HETATM   15  C   UNK N   1      24.397  12.570   7.338  0.00  0.00     0.034 A 
HETATM   16 Cl   UNK N   1      23.539  11.329   8.224  0.00  0.00    -0.084 Cl
HETATM   17  C   UNK N   1      24.538  12.457   5.955  0.00  0.00     0.024 A 
HETATM   18  C   UNK N   1      25.224  13.442   5.247  0.00  0.00     0.009 A 
ENDBRANCH  11  12
ENDBRANCH   4  11
BRANCH   1  19
HETATM   19  C   UNK N   1      27.748  18.210   3.947  0.00  0.00     0.161 C 
BRANCH  19  20
HETATM   20  C   UNK N   1      28.284  19.199   4.976  0.00  0.00     0.292 C 
BRANCH  20  21
HETATM   21  N   UNK N   1      27.759  18.858   6.290  0.00  0.00     0.089 N 
BRANCH  21  22
HETATM   22  C   UNK N   1      27.633  20.099   7.044  0.00  0.00     0.268 C 
HETATM   23  C   UNK N   1      27.243  21.240   6.120  0.00  0.00     0.037 C 
ENDBRANCH  21  22
BRANCH  21  24
HETATM   24  C   UNK N   1      28.759  18.031   6.948  0.00  0.00     0.268 C 
HETATM   25  C   UNK N   1      28.225  17.544   8.280  0.00  0.00     0.037 C 
ENDBRANCH  21  24
ENDBRANCH  20  21
ENDBRANCH  19  20
ENDBRANCH   1  19
BRANCH   9  26
HETATM   26  N   UNK N   1      21.563  20.441   2.858  0.00  0.00    -0.116 N 
HETATM   27  O   UNK N   1      21.336  20.880   1.639  0.00  0.00    -0.532 OA
HETATM   28  O   UNK N   1      20.691  20.494   3.673  0.00  0.00    -0.532 OA
ENDBRANCH   9  26
TORSDOF 8
ENDMDL
MODEL 5
REMARK VINA RESULT:      -6.2      3.630      5.420
REMARK  8 active torsions:
REMARK  status: ('A' for Active; 'I' for Inactive)
REMARK    1  A    between atoms: N_4  and  C_9 
REMARK    2  A    between atoms: N_5  and  C_10 
REMARK    3  A    between atoms: N_5  and  C_15 
REMARK    4  A    between atoms: N_5  and  C_16 
REMARK    5  A    between atoms: N_8  and  C_22 
REMARK    6  A    between atoms: C_9  and  C_10 
REMARK    7  A    between atoms: C_11  and  C_14 
REMARK    8  A    between atoms: C_14  and  C_19 
ROOT
HETATM    1  N   UNK N   1      35.017  15.431   7.873  0.00  0.00    -0.333 N 
HETATM    2  N   UNK N   1      34.228  16.745   9.523  0.00  0.00    -0.344 N 
ATOM      3  HN  UNK N   1      33.813  17.534  10.019  1.00  0.00     0.167 HD
HETATM    4  C   UNK N   1      34.456  16.630   8.189  0.00  0.00     0.088 A 
HETATM    5  C   UNK N   1      35.145  14.789   9.047  0.00  0.00     0.062 A 
HETATM    6  C   UNK N   1      34.670  15.592  10.039  0.00  0.00     0.063 A 
HETATM    7  C   UNK N   1      35.686  13.533   9.321  0.00  0.00     0.034 A 
HETATM    8  C   UNK N   1      34.700  15.231  11.376  0.00  0.00     0.068 A 
HETATM    9  C   UNK N   1      35.248  13.976  11.709  0.00  0.00     0.105 A 
HETATM   10  C   UNK N   1      35.733  13.127  10.675  0.00  0.00     0.038 A 
ENDROOT
BRANCH   4  11
HETATM   11  C   UNK N   1      34.139  17.708   7.179  0.00  0.00     0.115 C 
BRANCH  11  12
HETATM   12  C   UNK N   1      32.922  17.518   6.302  0.00  0.00    -0.051 A 
HETATM   13  C   UNK N   1      31.699  17.220   6.915  0.00  0.00     0.009 A 
HETATM   14  C   UNK N   1      30.550  17.028   6.140  0.00  0.00     0.024 A 
HETATM   15  C   UNK N   1      30.618  17.129   4.747  0.00  0.00     0.034 A 
HETATM   16 Cl   UNK N   1      29.187  16.884   3.772  0.00  0.00    -0.084 Cl
HETATM   17  C   UNK N   1      31.833  17.424   4.128  0.00  0.00     0.024 A 
HETATM   18  C   UNK N   1      32.975  17.616   4.903  0.00  0.00     0.009 A 
ENDBRANCH  11  12
ENDBRANCH   4  11
BRANCH   1  19
HETATM   19  C   UNK N   1      35.451  14.969   6.556  0.00  0.00     0.161 C 
BRANCH  19  20
HETATM   20  C   UNK N   1      34.642  13.765   6.087  0.00  0.00     0.292 C 
BRANCH  20  21
HETATM   21  N   UNK N   1      33.485  14.226   5.335  0.00  0.00     0.089 N 
BRANCH  21  22
HETATM   22  C   UNK N   1      32.297  13.718   6.010  0.00  0.00     0.268 C 
HETATM   23  C   UNK N   1      31.181  13.480   5.006  0.00  0.00     0.037 C 
ENDBRANCH  21  22
BRANCH  21  24
HETATM   24  C   UNK N   1      33.555  13.607   4.020  0.00  0.00     0.268 C 
HETATM   25  C   UNK N   1      34.099  14.602   3.015  0.00  0.00     0.037 C 
ENDBRANCH  21  24
ENDBRANCH  20  21
ENDBRANCH  19  20
ENDBRANCH   1  19
BRANCH   9  26
HETATM   26  N   UNK N   1      35.328  13.578  13.073  0.00  0.00    -0.116 N 
HETATM   27  O   UNK N   1      36.288  14.044  13.843  0.00  0.00    -0.532 OA
HETATM   28  O   UNK N   1      34.508  12.845  13.536  0.00  0.00    -0.532 OA
ENDBRANCH   9  26
TORSDOF 8
ENDMDL
MODEL 6
REMARK VINA RESULT:      -6.2      2.348      4.802
REMARK  8 active torsions:
REMARK  status: ('A' for Active; 'I' for Inactive)
REMARK    1  A    between atoms: N_4  and  C_9 
REMARK    2  A    between atoms: N_5  and  C_10 
REMARK    3  A    between atoms: N_5  and  C_15 
REMARK    4  A    between atoms: N_5  and  C_16 
REMARK    5  A    between atoms: N_8  and  C_22 
REMARK    6  A    between atoms: C_9  and  C_10 
REMARK    7  A    between atoms: C_11  and  C_14 
REMARK    8  A    between atoms: C_14  and  C_19 
ROOT
HETATM    1  N   UNK N   1      30.096  16.904   5.542  0.00  0.00    -0.333 N 
HETATM    2  N   UNK N   1      32.088  17.099   4.510  0.00  0.00    -0.344 N 
ATOM      3  HN  UNK N   1      32.807  17.116   3.787  1.00  0.00     0.167 HD
HETATM    4  C   UNK N   1      30.766  16.826   4.360  0.00  0.00     0.088 A 
HETATM    5  C   UNK N   1      31.033  17.231   6.450  0.00  0.00     0.062 A 
HETATM    6  C   UNK N   1      32.234  17.341   5.818  0.00  0.00     0.063 A 
HETATM    7  C   UNK N   1      30.913  17.414   7.828  0.00  0.00     0.034 A 
HETATM    8  C   UNK N   1      33.411  17.628   6.489  0.00  0.00     0.068 A 
HETATM    9  C   UNK N   1      33.348  17.811   7.885  0.00  0.00     0.105 A 
HETATM   10  C   UNK N   1      32.093  17.710   8.549  0.00  0.00     0.038 A 
ENDROOT
BRANCH   4  11
HETATM   11  C   UNK N   1      30.119  16.464   3.044  0.00  0.00     0.115 C 
BRANCH  11  12
HETATM   12  C   UNK N   1      29.805  15.008   2.788  0.00  0.00    -0.051 A 
HETATM   13  C   UNK N   1      28.639  14.691   2.082  0.00  0.00     0.009 A 
HETATM   14  C   UNK N   1      28.306  13.356   1.832  0.00  0.00     0.024 A 
HETATM   15  C   UNK N   1      29.137  12.328   2.289  0.00  0.00     0.034 A 
HETATM   16 Cl   UNK N   1      28.724  10.656   1.984  0.00  0.00    -0.084 Cl
HETATM   17  C   UNK N   1      30.300  12.634   2.995  0.00  0.00     0.024 A 
HETATM   18  C   UNK N   1      30.629  13.966   3.242  0.00  0.00     0.009 A 
ENDBRANCH  11  12
ENDBRANCH   4  11
BRANCH   1  19
HETATM   19  C   UNK N   1      28.682  16.628   5.786  0.00  0.00     0.161 C 
BRANCH  19  20
HETATM   20  C   UNK N   1      27.871  17.911   5.922  0.00  0.00     0.292 C 
BRANCH  20  21
HETATM   21  N   UNK N   1      27.645  18.481   4.603  0.00  0.00     0.089 N 
BRANCH  21  22
HETATM   22  C   UNK N   1      28.032  19.885   4.662  0.00  0.00     0.268 C 
HETATM   23  C   UNK N   1      27.053  20.666   5.523  0.00  0.00     0.037 C 
ENDBRANCH  21  22
BRANCH  21  24
HETATM   24  C   UNK N   1      26.214  18.418   4.350  0.00  0.00     0.268 C 
HETATM   25  C   UNK N   1      25.916  17.307   3.365  0.00  0.00     0.037 C 
ENDBRANCH  21  24
ENDBRANCH  20  21
ENDBRANCH  19  20
ENDBRANCH   1  19
BRANCH   9  26
HETATM   26  N   UNK N   1      34.538  18.075   8.619  0.00  0.00    -0.116 N 
HETATM   27  O   UNK N   1      35.256  19.145   8.355  0.00  0.00    -0.532 OA
HETATM   28  O   UNK N   1      34.876  17.344   9.501  0.00  0.00    -0.532 OA
ENDBRANCH   9  26
TORSDOF 8
ENDMDL
MODEL 7
REMARK VINA RESULT:      -6.1     12.830     15.690
REMARK  8 active torsions:
REMARK  status: ('A' for Active; 'I' for Inactive)
REMARK    1  A    between atoms: N_4  and  C_9 
REMARK    2  A    between atoms: N_5  and  C_10 
REMARK    3  A    between atoms: N_5  and  C_15 
REMARK    4  A    between atoms: N_5  and  C_16 
REMARK    5  A    between atoms: N_8  and  C_22 
REMARK    6  A    between atoms: C_9  and  C_10 
REMARK    7  A    between atoms: C_11  and  C_14 
REMARK    8  A    between atoms: C_14  and  C_19 
ROOT
HETATM    1  N   UNK N   1      28.609  26.221  -5.199  0.00  0.00    -0.333 N 
HETATM    2  N   UNK N   1      28.414  23.978  -5.195  0.00  0.00    -0.344 N 
ATOM      3  HN  UNK N   1      28.551  22.994  -4.965  1.00  0.00     0.167 HD
HETATM    4  C   UNK N   1      29.052  25.051  -4.662  0.00  0.00     0.088 A 
HETATM    5  C   UNK N   1      27.672  25.859  -6.093  0.00  0.00     0.062 A 
HETATM    6  C   UNK N   1      27.565  24.501  -6.087  0.00  0.00     0.063 A 
HETATM    7  C   UNK N   1      26.909  26.648  -6.953  0.00  0.00     0.034 A 
HETATM    8  C   UNK N   1      26.710  23.813  -6.932  0.00  0.00     0.068 A 
HETATM    9  C   UNK N   1      25.924  24.562  -7.830  0.00  0.00     0.105 A 
HETATM   10  C   UNK N   1      26.022  25.982  -7.830  0.00  0.00     0.038 A 
ENDROOT
BRANCH   4  11
HETATM   11  C   UNK N   1      30.135  24.960  -3.612  0.00  0.00     0.115 C 
BRANCH  11  12
HETATM   12  C   UNK N   1      31.086  23.787  -3.679  0.00  0.00    -0.051 A 
HETATM   13  C   UNK N   1      30.920  22.740  -2.766  0.00  0.00     0.009 A 
HETATM   14  C   UNK N   1      31.784  21.640  -2.788  0.00  0.00     0.024 A 
HETATM   15  C   UNK N   1      32.822  21.582  -3.722  0.00  0.00     0.034 A 
HETATM   16 Cl   UNK N   1      33.909  20.212  -3.752  0.00  0.00    -0.084 Cl
HETATM   17  C   UNK N   1      32.997  22.622  -4.635  0.00  0.00     0.024 A 
HETATM   18  C   UNK N   1      32.134  23.716  -4.611  0.00  0.00     0.009 A 
ENDBRANCH  11  12
ENDBRANCH   4  11
BRANCH   1  19
HETATM   19  C   UNK N   1      29.092  27.572  -4.916  0.00  0.00     0.161 C 
BRANCH  19  20
HETATM   20  C   UNK N   1      28.264  28.251  -3.833  0.00  0.00     0.292 C 
BRANCH  20  21
HETATM   21  N   UNK N   1      27.432  29.282  -4.437  0.00  0.00     0.089 N 
BRANCH  21  22
HETATM   22  C   UNK N   1      28.048  30.568  -4.139  0.00  0.00     0.268 C 
HETATM   23  C   UNK N   1      27.674  31.020  -2.737  0.00  0.00     0.037 C 
ENDBRANCH  21  22
BRANCH  21  24
HETATM   24  C   UNK N   1      26.141  29.235  -3.768  0.00  0.00     0.268 C 
HETATM   25  C   UNK N   1      25.729  27.793  -3.550  0.00  0.00     0.037 C 
ENDBRANCH  21  24
ENDBRANCH  20  21
ENDBRANCH  19  20
ENDBRANCH   1  19
BRANCH   9  26
HETATM   26  N   UNK N   1      25.056  23.894  -8.738  0.00  0.00    -0.116 N 
HETATM   27  O   UNK N   1      24.425  22.800  -8.369  0.00  0.00    -0.532 OA
HETATM   28  O   UNK N   1      24.870  24.339  -9.830  0.00  0.00    -0.532 OA
ENDBRANCH   9  26
TORSDOF 8
ENDMDL
MODEL 8
REMARK VINA RESULT:      -6.1      8.071     10.987
REMARK  8 active torsions:
REMARK  status: ('A' for Active; 'I' for Inactive)
REMARK    1  A    between atoms: N_4  and  C_9 
REMARK    2  A    between atoms: N_5  and  C_10 
REMARK    3  A    between atoms: N_5  and  C_15 
REMARK    4  A    between atoms: N_5  and  C_16 
REMARK    5  A    between atoms: N_8  and  C_22 
REMARK    6  A    between atoms: C_9  and  C_10 
REMARK    7  A    between atoms: C_11  and  C_14 
REMARK    8  A    between atoms: C_14  and  C_19 
ROOT
HETATM    1  N   UNK N   1      35.534  12.685  12.824  0.00  0.00    -0.333 N 
HETATM    2  N   UNK N   1      36.753  14.369  13.689  0.00  0.00    -0.344 N 
ATOM      3  HN  UNK N   1      37.387  15.164  13.771  1.00  0.00     0.167 HD
HETATM    4  C   UNK N   1      36.421  13.684  12.565  0.00  0.00     0.088 A 
HETATM    5  C   UNK N   1      35.315  12.752  14.149  0.00  0.00     0.062 A 
HETATM    6  C   UNK N   1      36.060  13.769  14.664  0.00  0.00     0.063 A 
HETATM    7  C   UNK N   1      34.515  11.949  14.962  0.00  0.00     0.034 A 
HETATM    8  C   UNK N   1      36.086  14.070  16.016  0.00  0.00     0.068 A 
HETATM    9  C   UNK N   1      35.304  13.281  16.883  0.00  0.00     0.105 A 
HETATM   10  C   UNK N   1      34.513  12.226  16.348  0.00  0.00     0.038 A 
ENDROOT
BRANCH   4  11
HETATM   11  C   UNK N   1      36.979  13.984  11.193  0.00  0.00     0.115 C 
BRANCH  11  12
HETATM   12  C   UNK N   1      36.164  14.867  10.276  0.00  0.00    -0.051 A 
HETATM   13  C   UNK N   1      35.768  16.126  10.741  0.00  0.00     0.009 A 
HETATM   14  C   UNK N   1      35.005  16.971   9.929  0.00  0.00     0.024 A 
HETATM   15  C   UNK N   1      34.629  16.560   8.646  0.00  0.00     0.034 A 
HETATM   16 Cl   UNK N   1      33.671  17.609   7.627  0.00  0.00    -0.084 Cl
HETATM   17  C   UNK N   1      35.018  15.306   8.175  0.00  0.00     0.024 A 
HETATM   18  C   UNK N   1      35.779  14.467   8.987  0.00  0.00     0.009 A 
ENDBRANCH  11  12
ENDBRANCH   4  11
BRANCH   1  19
HETATM   19  C   UNK N   1      34.990  11.709  11.882  0.00  0.00     0.161 C 
BRANCH  19  20
HETATM   20  C   UNK N   1      35.585  10.322  12.101  0.00  0.00     0.292 C 
BRANCH  20  21
HETATM   21  N   UNK N   1      37.033  10.429  12.195  0.00  0.00     0.089 N 
BRANCH  21  22
HETATM   22  C   UNK N   1      37.597   9.728  11.049  0.00  0.00     0.268 C 
HETATM   23  C   UNK N   1      38.290  10.710  10.119  0.00  0.00     0.037 C 
ENDBRANCH  21  22
BRANCH  21  24
HETATM   24  C   UNK N   1      37.436   9.720  13.400  0.00  0.00     0.268 C 
HETATM   25  C   UNK N   1      38.233  10.646  14.296  0.00  0.00     0.037 C 
ENDBRANCH  21  24
ENDBRANCH  20  21
ENDBRANCH  19  20
ENDBRANCH   1  19
BRANCH   9  26
HETATM   26  N   UNK N   1      35.326  13.534  18.283  0.00  0.00    -0.116 N 
HETATM   27  O   UNK N   1      35.333  12.534  19.138  0.00  0.00    -0.532 OA
HETATM   28  O   UNK N   1      35.371  14.655  18.692  0.00  0.00    -0.532 OA
ENDBRANCH   9  26
TORSDOF 8
ENDMDL
MODEL 9
REMARK VINA RESULT:      -6.0      6.791      9.685
REMARK  8 active torsions:
REMARK  status: ('A' for Active; 'I' for Inactive)
REMARK    1  A    between atoms: N_4  and  C_9 
REMARK    2  A    between atoms: N_5  and  C_10 
REMARK    3  A    between atoms: N_5  and  C_15 
REMARK    4  A    between atoms: N_5  and  C_16 
REMARK    5  A    between atoms: N_8  and  C_22 
REMARK    6  A    between atoms: C_9  and  C_10 
REMARK    7  A    between atoms: C_11  and  C_14 
REMARK    8  A    between atoms: C_14  and  C_19 
ROOT
HETATM    1  N   UNK N   1      21.854  16.658   5.920  0.00  0.00    -0.333 N 
HETATM    2  N   UNK N   1      23.203  14.872   6.167  0.00  0.00    -0.344 N 
ATOM      3  HN  UNK N   1      23.941  14.186   6.010  1.00  0.00     0.167 HD
HETATM    4  C   UNK N   1      22.896  15.951   5.403  0.00  0.00     0.088 A 
HETATM    5  C   UNK N   1      21.503  15.991   7.034  0.00  0.00     0.062 A 
HETATM    6  C   UNK N   1      22.321  14.911   7.172  0.00  0.00     0.063 A 
HETATM    7  C   UNK N   1      20.477  16.251   7.942  0.00  0.00     0.034 A 
HETATM    8  C   UNK N   1      22.187  13.997   8.204  0.00  0.00     0.068 A 
HETATM    9  C   UNK N   1      21.157  14.207   9.144  0.00  0.00     0.105 A 
HETATM   10  C   UNK N   1      20.309  15.342   9.011  0.00  0.00     0.038 A 
ENDROOT
BRANCH   4  11
HETATM   11  C   UNK N   1      23.615  16.318   4.125  0.00  0.00     0.115 C 
BRANCH  11  12
HETATM   12  C   UNK N   1      24.735  17.329   4.210  0.00  0.00    -0.051 A 
HETATM   13  C   UNK N   1      25.958  16.924   4.754  0.00  0.00     0.009 A 
HETATM   14  C   UNK N   1      27.019  17.831   4.860  0.00  0.00     0.024 A 
HETATM   15  C   UNK N   1      26.860  19.150   4.424  0.00  0.00     0.034 A 
HETATM   16 Cl   UNK N   1      28.180  20.290   4.557  0.00  0.00    -0.084 Cl
HETATM   17  C   UNK N   1      25.643  19.563   3.881  0.00  0.00     0.024 A 
HETATM   18  C   UNK N   1      24.589  18.657   3.777  0.00  0.00     0.009 A 
ENDBRANCH  11  12
ENDBRANCH   4  11
BRANCH   1  19
HETATM   19  C   UNK N   1      21.210  17.841   5.353  0.00  0.00     0.161 C 
BRANCH  19  20
HETATM   20  C   UNK N   1      20.263  17.479   4.215  0.00  0.00     0.292 C 
BRANCH  20  21
HETATM   21  N   UNK N   1      20.721  18.112   2.988  0.00  0.00     0.089 N 
BRANCH  21  22
HETATM   22  C   UNK N   1      19.984  19.361   2.841  0.00  0.00     0.268 C 
HETATM   23  C   UNK N   1      20.948  20.530   2.716  0.00  0.00     0.037 C 
ENDBRANCH  21  22
BRANCH  21  24
HETATM   24  C   UNK N   1      20.344  17.236   1.889  0.00  0.00     0.268 C 
HETATM   25  C   UNK N   1      20.251  15.806   2.383  0.00  0.00     0.037 C 
ENDBRANCH  21  24
ENDBRANCH  20  21
ENDBRANCH  19  20
ENDBRANCH   1  19
BRANCH   9  26
HETATM   26  N   UNK N   1      20.964  13.275  10.201  0.00  0.00    -0.116 N 
HETATM   27  O   UNK N   1      21.999  12.753  10.824  0.00  0.00    -0.532 OA
HETATM   28  O   UNK N   1      19.860  12.984  10.553  0.00  0.00    -0.532 OA
ENDBRANCH   9  26
TORSDOF 8
ENDMDL
