MODEL 1
REMARK VINA RESULT:      -5.2      0.000      0.000
REMARK  3 active torsions:
REMARK  status: ('A' for Active; 'I' for Inactive)
REMARK    1  A    between atoms: C_11  and  O_1 
REMARK    2  A    between atoms: O_2  and  C_13 
REMARK    3  A    between atoms: C_7  and  C_13 
ROOT
HETATM    1  N   UNK N   1      33.682  15.931   7.065  0.00  0.00     0.094 N 
HETATM    2  C   UNK N   1      34.696  16.491   7.966  0.00  0.00     0.239 C 
HETATM    3  C   UNK N   1      32.431  16.409   7.667  0.00  0.00     0.225 C 
HETATM    4  C   UNK N   1      34.747  15.709   9.316  0.00  0.00     0.145 C 
HETATM    5  C   UNK N   1      34.208  17.926   8.179  0.00  0.00     0.039 C 
HETATM    6  C   UNK N   1      32.709  17.877   7.915  0.00  0.00     0.038 C 
HETATM    7  C   UNK N   1      32.120  15.769   9.041  0.00  0.00     0.068 C 
HETATM    8  C   UNK N   1      33.357  15.173   9.717  0.00  0.00     0.136 C 
HETATM    9  C   UNK N   1      33.751  14.481   6.876  0.00  0.00     0.310 C 
ENDROOT
BRANCH   4  10
HETATM   10  C   UNK N   1      35.542  16.365  10.429  0.00  0.00     0.148 C 
HETATM   11  O   UNK N   1      36.741  16.172  10.545  0.00  0.00    -0.650 OA
BRANCH  10  12
HETATM   12  O   UNK N   1      34.909  17.134  11.338  0.00  0.00    -0.776 OA
HETATM   13  H   UNK N   1      33.976  17.104  11.411  0.00  0.00     0.167 HD
ENDBRANCH  10  12
ENDBRANCH   4  10
BRANCH   8  14
HETATM   14  O   UNK N   1      33.181  14.840  11.061  0.00  0.00    -0.395 OA
HETATM   15  H   UNK N   1      32.382  14.479  11.475  0.00  0.00     0.210 HD
ENDBRANCH   8  14
TORSDOF 3
ENDMDL
MODEL 2
REMARK VINA RESULT:      -4.9      6.793      8.210
REMARK  3 active torsions:
REMARK  status: ('A' for Active; 'I' for Inactive)
REMARK    1  A    between atoms: C_11  and  O_1 
REMARK    2  A    between atoms: O_2  and  C_13 
REMARK    3  A    between atoms: C_7  and  C_13 
ROOT
HETATM    1  N   UNK N   1      34.285  11.286  15.506  0.00  0.00     0.094 N 
HETATM    2  C   UNK N   1      34.690  12.690  15.368  0.00  0.00     0.239 C 
HETATM    3  C   UNK N   1      35.271  10.769  16.465  0.00  0.00     0.225 C 
HETATM    4  C   UNK N   1      35.982  12.824  14.504  0.00  0.00     0.145 C 
HETATM    5  C   UNK N   1      34.949  13.113  16.816  0.00  0.00     0.039 C 
HETATM    6  C   UNK N   1      35.273  11.821  17.554  0.00  0.00     0.038 C 
HETATM    7  C   UNK N   1      36.710  10.701  15.899  0.00  0.00     0.068 C 
HETATM    8  C   UNK N   1      36.920  11.611  14.687  0.00  0.00     0.136 C 
HETATM    9  C   UNK N   1      34.206  10.535  14.252  0.00  0.00     0.310 C 
ENDROOT
BRANCH   4  10
HETATM   10  C   UNK N   1      36.657  14.182  14.531  0.00  0.00     0.148 C 
HETATM   11  O   UNK N   1      36.385  15.036  13.704  0.00  0.00    -0.650 OA
BRANCH  10  12
HETATM   12  O   UNK N   1      37.609  14.436  15.450  0.00  0.00    -0.776 OA
HETATM   13  H   UNK N   1      38.303  13.823  15.591  0.00  0.00     0.167 HD
ENDBRANCH  10  12
ENDBRANCH   4  10
BRANCH   8  14
HETATM   14  O   UNK N   1      38.254  11.793  14.321  0.00  0.00    -0.395 OA
HETATM   15  H   UNK N   1      38.650  12.585  13.925  0.00  0.00     0.210 HD
ENDBRANCH   8  14
TORSDOF 3
ENDMDL
MODEL 3
REMARK VINA RESULT:      -4.9     17.348     18.596
REMARK  3 active torsions:
REMARK  status: ('A' for Active; 'I' for Inactive)
REMARK    1  A    between atoms: C_11  and  O_1 
REMARK    2  A    between atoms: O_2  and  C_13 
REMARK    3  A    between atoms: C_7  and  C_13 
ROOT
HETATM    1  N   UNK N   1      27.155  27.797  -5.482  0.00  0.00     0.094 N 
HETATM    2  C   UNK N   1      27.577  26.864  -4.431  0.00  0.00     0.239 C 
HETATM    3  C   UNK N   1      25.704  27.872  -5.271  0.00  0.00     0.225 C 
HETATM    4  C   UNK N   1      27.191  25.395  -4.789  0.00  0.00     0.145 C 
HETATM    5  C   UNK N   1      26.798  27.355  -3.207  0.00  0.00     0.039 C 
HETATM    6  C   UNK N   1      25.585  28.080  -3.776  0.00  0.00     0.038 C 
HETATM    7  C   UNK N   1      24.961  26.555  -5.604  0.00  0.00     0.068 C 
HETATM    8  C   UNK N   1      25.880  25.332  -5.603  0.00  0.00     0.136 C 
HETATM    9  C   UNK N   1      27.553  27.424  -6.840  0.00  0.00     0.310 C 
ENDROOT
BRANCH   4  10
HETATM   10  C   UNK N   1      27.310  24.386  -3.663  0.00  0.00     0.148 C 
HETATM   11  O   UNK N   1      26.324  23.997  -3.060  0.00  0.00    -0.650 OA
BRANCH  10  12
HETATM   12  O   UNK N   1      28.527  23.948  -3.286  0.00  0.00    -0.776 OA
HETATM   13  H   UNK N   1      28.760  23.048  -3.402  0.00  0.00     0.167 HD
ENDBRANCH  10  12
ENDBRANCH   4  10
BRANCH   8  14
HETATM   14  O   UNK N   1      25.216  24.106  -5.621  0.00  0.00    -0.395 OA
HETATM   15  H   UNK N   1      25.616  23.222  -5.641  0.00  0.00     0.210 HD
ENDBRANCH   8  14
TORSDOF 3
ENDMDL
MODEL 4
REMARK VINA RESULT:      -4.7     13.972     14.940
REMARK  3 active torsions:
REMARK  status: ('A' for Active; 'I' for Inactive)
REMARK    1  A    between atoms: C_11  and  O_1 
REMARK    2  A    between atoms: O_2  and  C_13 
REMARK    3  A    between atoms: C_7  and  C_13 
ROOT
HETATM    1  N   UNK N   1      32.086  22.040  -6.127  0.00  0.00     0.094 N 
HETATM    2  C   UNK N   1      31.282  22.889  -5.241  0.00  0.00     0.239 C 
HETATM    3  C   UNK N   1      31.680  20.689  -5.718  0.00  0.00     0.225 C 
HETATM    4  C   UNK N   1      31.845  22.883  -3.786  0.00  0.00     0.145 C 
HETATM    5  C   UNK N   1      29.900  22.232  -5.300  0.00  0.00     0.039 C 
HETATM    6  C   UNK N   1      30.169  20.782  -5.680  0.00  0.00     0.038 C 
HETATM    7  C   UNK N   1      32.145  20.307  -4.291  0.00  0.00     0.068 C 
HETATM    8  C   UNK N   1      32.481  21.524  -3.426  0.00  0.00     0.136 C 
HETATM    9  C   UNK N   1      33.528  22.281  -6.079  0.00  0.00     0.310 C 
ENDROOT
BRANCH   4  10
HETATM   10  C   UNK N   1      30.942  23.484  -2.726  0.00  0.00     0.148 C 
HETATM   11  O   UNK N   1      30.567  22.824  -1.771  0.00  0.00    -0.650 OA
BRANCH  10  12
HETATM   12  O   UNK N   1      30.504  24.752  -2.861  0.00  0.00    -0.776 OA
HETATM   13  H   UNK N   1      30.533  25.340  -2.133  0.00  0.00     0.167 HD
ENDBRANCH  10  12
ENDBRANCH   4  10
BRANCH   8  14
HETATM   14  O   UNK N   1      32.633  21.246  -2.068  0.00  0.00    -0.395 OA
HETATM   15  H   UNK N   1      31.968  20.872  -1.468  0.00  0.00     0.210 HD
ENDBRANCH   8  14
TORSDOF 3
ENDMDL
MODEL 5
REMARK VINA RESULT:      -4.7      2.298      3.086
REMARK  3 active torsions:
REMARK  status: ('A' for Active; 'I' for Inactive)
REMARK    1  A    between atoms: C_11  and  O_1 
REMARK    2  A    between atoms: O_2  and  C_13 
REMARK    3  A    between atoms: C_7  and  C_13 
ROOT
HETATM    1  N   UNK N   1      34.430  14.564   9.385  0.00  0.00     0.094 N 
HETATM    2  C   UNK N   1      35.055  15.704   8.704  0.00  0.00     0.239 C 
HETATM    3  C   UNK N   1      33.286  14.268   8.513  0.00  0.00     0.225 C 
HETATM    4  C   UNK N   1      34.230  17.011   8.914  0.00  0.00     0.145 C 
HETATM    5  C   UNK N   1      35.040  15.273   7.235  0.00  0.00     0.039 C 
HETATM    6  C   UNK N   1      33.900  14.269   7.129  0.00  0.00     0.038 C 
HETATM    7  C   UNK N   1      32.197  15.369   8.525  0.00  0.00     0.068 C 
HETATM    8  C   UNK N   1      32.718  16.720   9.019  0.00  0.00     0.136 C 
HETATM    9  C   UNK N   1      34.083  14.792  10.788  0.00  0.00     0.310 C 
ENDROOT
BRANCH   4  10
HETATM   10  C   UNK N   1      34.611  18.183   8.028  0.00  0.00     0.148 C 
HETATM   11  O   UNK N   1      35.239  19.129   8.473  0.00  0.00    -0.650 OA
BRANCH  10  12
HETATM   12  O   UNK N   1      34.209  18.205   6.742  0.00  0.00    -0.776 OA
HETATM   13  H   UNK N   1      33.873  17.429   6.340  0.00  0.00     0.167 HD
ENDBRANCH  10  12
ENDBRANCH   4  10
BRANCH   8  14
HETATM   14  O   UNK N   1      31.858  17.794   8.785  0.00  0.00    -0.395 OA
HETATM   15  H   UNK N   1      30.890  17.771   8.739  0.00  0.00     0.210 HD
ENDBRANCH   8  14
TORSDOF 3
ENDMDL
MODEL 6
REMARK VINA RESULT:      -4.7      1.595      2.863
REMARK  3 active torsions:
REMARK  status: ('A' for Active; 'I' for Inactive)
REMARK    1  A    between atoms: C_11  and  O_1 
REMARK    2  A    between atoms: O_2  and  C_13 
REMARK    3  A    between atoms: C_7  and  C_13 
ROOT
HETATM    1  N   UNK N   1      32.085  16.161   7.357  0.00  0.00     0.094 N 
HETATM    2  C   UNK N   1      32.910  15.819   8.521  0.00  0.00     0.239 C 
HETATM    3  C   UNK N   1      33.094  16.392   6.315  0.00  0.00     0.225 C 
HETATM    4  C   UNK N   1      33.603  17.085   9.114  0.00  0.00     0.145 C 
HETATM    5  C   UNK N   1      33.941  14.850   7.936  0.00  0.00     0.039 C 
HETATM    6  C   UNK N   1      34.011  15.195   6.455  0.00  0.00     0.038 C 
HETATM    7  C   UNK N   1      33.957  17.654   6.559  0.00  0.00     0.068 C 
HETATM    8  C   UNK N   1      33.944  18.116   8.017  0.00  0.00     0.136 C 
HETATM    9  C   UNK N   1      31.154  17.272   7.559  0.00  0.00     0.310 C 
ENDROOT
BRANCH   4  10
HETATM   10  C   UNK N   1      34.700  16.824  10.129  0.00  0.00     0.148 C 
HETATM   11  O   UNK N   1      35.763  17.419  10.074  0.00  0.00    -0.650 OA
BRANCH  10  12
HETATM   12  O   UNK N   1      34.521  15.885  11.079  0.00  0.00    -0.776 OA
HETATM   13  H   UNK N   1      33.840  15.247  10.988  0.00  0.00     0.167 HD
ENDBRANCH  10  12
ENDBRANCH   4  10
BRANCH   8  14
HETATM   14  O   UNK N   1      34.915  19.066   8.334  0.00  0.00    -0.395 OA
HETATM   15  H   UNK N   1      35.799  18.903   8.697  0.00  0.00     0.210 HD
ENDBRANCH   8  14
TORSDOF 3
ENDMDL
MODEL 7
REMARK VINA RESULT:      -4.6     10.718     12.474
REMARK  3 active torsions:
REMARK  status: ('A' for Active; 'I' for Inactive)
REMARK    1  A    between atoms: C_11  and  O_1 
REMARK    2  A    between atoms: O_2  and  C_13 
REMARK    3  A    between atoms: C_7  and  C_13 
ROOT
HETATM    1  N   UNK N   1      24.250  12.875   8.640  0.00  0.00     0.094 N 
HETATM    2  C   UNK N   1      22.954  13.553   8.511  0.00  0.00     0.239 C 
HETATM    3  C   UNK N   1      23.857  11.461   8.704  0.00  0.00     0.225 C 
HETATM    4  C   UNK N   1      22.183  13.563   9.867  0.00  0.00     0.145 C 
HETATM    5  C   UNK N   1      22.226  12.700   7.469  0.00  0.00     0.039 C 
HETATM    6  C   UNK N   1      22.875  11.326   7.559  0.00  0.00     0.038 C 
HETATM    7  C   UNK N   1      23.095  11.087   9.999  0.00  0.00     0.068 C 
HETATM    8  C   UNK N   1      22.478  12.298  10.701  0.00  0.00     0.136 C 
HETATM    9  C   UNK N   1      25.079  13.326   9.758  0.00  0.00     0.310 C 
ENDROOT
BRANCH   4  10
HETATM   10  C   UNK N   1      20.724  13.972   9.794  0.00  0.00     0.148 C 
HETATM   11  O   UNK N   1      20.400  15.081   9.401  0.00  0.00    -0.650 OA
BRANCH  10  12
HETATM   12  O   UNK N   1      19.770  13.119  10.216  0.00  0.00    -0.776 OA
HETATM   13  H   UNK N   1      18.873  13.267   9.989  0.00  0.00     0.167 HD
ENDBRANCH  10  12
ENDBRANCH   4  10
BRANCH   8  14
HETATM   14  O   UNK N   1      21.560  11.984  11.703  0.00  0.00    -0.395 OA
HETATM   15  H   UNK N   1      21.599  12.244  12.637  0.00  0.00     0.210 HD
ENDBRANCH   8  14
TORSDOF 3
ENDMDL
MODEL 8
REMARK VINA RESULT:      -4.5     14.021     15.061
REMARK  3 active torsions:
REMARK  status: ('A' for Active; 'I' for Inactive)
REMARK    1  A    between atoms: C_11  and  O_1 
REMARK    2  A    between atoms: O_2  and  C_13 
REMARK    3  A    between atoms: C_7  and  C_13 
ROOT
HETATM    1  N   UNK N   1      30.480  23.792  -5.576  0.00  0.00     0.094 N 
HETATM    2  C   UNK N   1      31.377  22.706  -5.163  0.00  0.00     0.239 C 
HETATM    3  C   UNK N   1      30.935  24.909  -4.738  0.00  0.00     0.225 C 
HETATM    4  C   UNK N   1      30.983  22.150  -3.759  0.00  0.00     0.145 C 
HETATM    5  C   UNK N   1      32.745  23.392  -5.119  0.00  0.00     0.039 C 
HETATM    6  C   UNK N   1      32.440  24.868  -4.900  0.00  0.00     0.038 C 
HETATM    7  C   UNK N   1      30.636  24.716  -3.231  0.00  0.00     0.068 C 
HETATM    8  C   UNK N   1      30.397  23.253  -2.852  0.00  0.00     0.136 C 
HETATM    9  C   UNK N   1      29.051  23.494  -5.467  0.00  0.00     0.310 C 
ENDROOT
BRANCH   4  10
HETATM   10  C   UNK N   1      31.999  21.234  -3.102  0.00  0.00     0.148 C 
HETATM   11  O   UNK N   1      32.593  21.575  -2.093  0.00  0.00    -0.650 OA
BRANCH  10  12
HETATM   12  O   UNK N   1      32.289  20.046  -3.667  0.00  0.00    -0.776 OA
HETATM   13  H   UNK N   1      32.531  19.316  -3.131  0.00  0.00     0.167 HD
ENDBRANCH  10  12
ENDBRANCH   4  10
BRANCH   8  14
HETATM   14  O   UNK N   1      30.402  23.000  -1.480  0.00  0.00    -0.395 OA
HETATM   15  H   UNK N   1      31.177  22.893  -0.907  0.00  0.00     0.210 HD
ENDBRANCH   8  14
TORSDOF 3
ENDMDL
MODEL 9
REMARK VINA RESULT:      -4.4      1.763      2.286
REMARK  3 active torsions:
REMARK  status: ('A' for Active; 'I' for Inactive)
REMARK    1  A    between atoms: C_11  and  O_1 
REMARK    2  A    between atoms: O_2  and  C_13 
REMARK    3  A    between atoms: C_7  and  C_13 
ROOT
HETATM    1  N   UNK N   1      35.200  13.533   7.784  0.00  0.00     0.094 N 
HETATM    2  C   UNK N   1      35.400  14.963   8.047  0.00  0.00     0.239 C 
HETATM    3  C   UNK N   1      33.751  13.459   7.550  0.00  0.00     0.225 C 
HETATM    4  C   UNK N   1      34.891  15.355   9.468  0.00  0.00     0.145 C 
HETATM    5  C   UNK N   1      34.558  15.631   6.956  0.00  0.00     0.039 C 
HETATM    6  C   UNK N   1      33.502  14.599   6.585  0.00  0.00     0.038 C 
HETATM    7  C   UNK N   1      32.904  13.741   8.814  0.00  0.00     0.068 C 
HETATM    8  C   UNK N   1      33.674  14.505   9.893  0.00  0.00     0.136 C 
HETATM    9  C   UNK N   1      35.693  12.634   8.828  0.00  0.00     0.310 C 
ENDROOT
BRANCH   4  10
HETATM   10  C   UNK N   1      34.777  16.843   9.743  0.00  0.00     0.148 C 
HETATM   11  O   UNK N   1      35.698  17.462  10.248  0.00  0.00    -0.650 OA
BRANCH  10  12
HETATM   12  O   UNK N   1      33.624  17.485   9.471  0.00  0.00    -0.776 OA
HETATM   13  H   UNK N   1      33.063  17.177   8.787  0.00  0.00     0.167 HD
ENDBRANCH  10  12
ENDBRANCH   4  10
BRANCH   8  14
HETATM   14  O   UNK N   1      32.881  15.020  10.918  0.00  0.00    -0.395 OA
HETATM   15  H   UNK N   1      32.001  15.420  10.835  0.00  0.00     0.210 HD
ENDBRANCH   8  14
TORSDOF 3
ENDMDL
