REMARK  3 active torsions:
REMARK  status: ('A' for Active; 'I' for Inactive)
REMARK    1  A    between atoms: C_11  and  O_1 
REMARK    2  A    between atoms: O_2  and  C_13 
REMARK    3  A    between atoms: C_7  and  C_13 
ROOT
HETATM    1  N   UNK N   1       5.127   1.362  -0.836  0.00  0.00     0.094 N 
HETATM    2  C   UNK N   1       5.149  -0.103  -0.751  0.00  0.00     0.239 C 
HETATM    3  C   UNK N   1       4.953   1.754   0.569  0.00  0.00     0.225 C 
HETATM    4  C   UNK N   1       3.720  -0.677  -0.501  0.00  0.00     0.145 C 
HETATM    5  C   UNK N   1       6.064  -0.361   0.449  0.00  0.00     0.039 C 
HETATM    6  C   UNK N   1       5.978   0.905   1.291  0.00  0.00     0.038 C 
HETATM    7  C   UNK N   1       3.567   1.381   1.149  0.00  0.00     0.068 C 
HETATM    8  C   UNK N   1       2.862   0.280   0.354  0.00  0.00     0.136 C 
HETATM    9  C   UNK N   1       4.128   1.917  -1.750  0.00  0.00     0.310 C 
ENDROOT
BRANCH   4  10
HETATM   10  C   UNK N   1       3.655  -2.141  -0.108  0.00  0.00     0.148 C 
HETATM   11  O   UNK N   1       4.672  -2.790   0.071  0.00  0.00    -0.650 OA
BRANCH  10  12
HETATM   12  O   UNK N   1       2.458  -2.751  -0.002  0.00  0.00    -0.776 OA
HETATM   13  H   UNK N   1       1.675  -2.242   0.072  0.00  0.00     0.167 HD
ENDBRANCH  10  12
ENDBRANCH   4  10
BRANCH   8  14
HETATM   14  O   UNK N   1       1.753  -0.277   0.991  0.00  0.00    -0.395 OA
HETATM   15  H   UNK N   1       1.032   0.197   1.434  0.00  0.00     0.210 HD
ENDBRANCH   8  14
TORSDOF 3
