MODEL 1
REMARK VINA RESULT:      -7.8      0.000      0.000
REMARK  2 active torsions:
REMARK  status: ('A' for Active; 'I' for Inactive)
REMARK    1  A    between atoms: C_10  and  O_1 
REMARK    2  A    between atoms: C_21  and  O_2 
ROOT
HETATM    1  C   UNK N   1      35.461  12.973  15.114  0.00  0.00     0.001 C 
HETATM    2  C   UNK N   1      35.675  12.377  16.515  0.00  0.00    -0.004 C 
HETATM    3  C   UNK N   1      35.792  11.966  14.019  0.00  0.00    -0.014 C 
HETATM    4  C   UNK N   1      34.818  11.094  16.679  0.00  0.00     0.002 C 
HETATM    5  C   UNK N   1      35.191  10.389  18.010  0.00  0.00    -0.017 C 
HETATM    6  C   UNK N   1      34.817  10.792  14.114  0.00  0.00     0.012 C 
HETATM    7  C   UNK N   1      34.970  10.113  15.485  0.00  0.00     0.007 C 
HETATM    8  C   UNK N   1      35.696  12.826  12.764  0.00  0.00     0.126 C 
HETATM    9  C   UNK N   1      36.311  14.176  14.742  0.00  0.00     0.008 C 
HETATM   10  C   UNK N   1      35.226  13.384  17.578  0.00  0.00     0.010 C 
HETATM   11  C   UNK N   1      36.358  14.143  13.204  0.00  0.00     0.033 C 
HETATM   12  C   UNK N   1      35.263  11.363  19.187  0.00  0.00    -0.072 C 
HETATM   13  C   UNK N   1      35.283  12.863  19.017  0.00  0.00     0.035 C 
HETATM   14  C   UNK N   1      34.150   9.294  18.340  0.00  0.00     0.017 C 
HETATM   15  C   UNK N   1      37.232  11.431  14.106  0.00  0.00     0.018 C 
HETATM   16  C   UNK N   1      36.569   9.725  17.876  0.00  0.00     0.020 C 
HETATM   17  C   UNK N   1      34.250   8.727  19.779  0.00  0.00     0.037 C 
HETATM   18  C   UNK N   1      35.349  10.864  20.427  0.00  0.00     0.008 C 
HETATM   19  C   UNK N   1      35.366   9.374  20.611  0.00  0.00     0.141 C 
ENDROOT
BRANCH   8  20
HETATM   20  O   UNK N   1      34.360  13.093  12.443  0.00  0.00    -0.395 OA
HETATM   21  H   UNK N   1      33.526  13.225  11.966  0.00  0.00     0.210 HD
ENDBRANCH   8  20
BRANCH  19  22
HETATM   22  O   UNK N   1      35.234   9.045  21.957  0.00  0.00    -0.392 OA
HETATM   23  H   UNK N   1      35.162   9.744  22.625  0.00  0.00     0.210 HD
ENDBRANCH  19  22
TORSDOF 2
ENDMDL
MODEL 2
REMARK VINA RESULT:      -7.7     14.612     17.256
REMARK  2 active torsions:
REMARK  status: ('A' for Active; 'I' for Inactive)
REMARK    1  A    between atoms: C_10  and  O_1 
REMARK    2  A    between atoms: C_21  and  O_2 
ROOT
HETATM    1  C   UNK N   1      22.813  13.372   9.891  0.00  0.00     0.001 C 
HETATM    2  C   UNK N   1      21.830  13.853   8.811  0.00  0.00    -0.004 C 
HETATM    3  C   UNK N   1      23.929  12.520   9.297  0.00  0.00    -0.014 C 
HETATM    4  C   UNK N   1      22.595  14.644   7.717  0.00  0.00     0.002 C 
HETATM    5  C   UNK N   1      21.638  14.948   6.535  0.00  0.00    -0.017 C 
HETATM    6  C   UNK N   1      24.759  13.383   8.347  0.00  0.00     0.012 C 
HETATM    7  C   UNK N   1      23.861  13.900   7.212  0.00  0.00     0.007 C 
HETATM    8  C   UNK N   1      24.637  12.016  10.549  0.00  0.00     0.126 C 
HETATM    9  C   UNK N   1      22.249  12.483  10.987  0.00  0.00     0.008 C 
HETATM   10  C   UNK N   1      20.795  14.792   9.437  0.00  0.00     0.010 C 
HETATM   11  C   UNK N   1      23.467  11.690  11.493  0.00  0.00     0.033 C 
HETATM   12  C   UNK N   1      20.285  15.488   7.003  0.00  0.00    -0.072 C 
HETATM   13  C   UNK N   1      19.824  15.430   8.439  0.00  0.00     0.035 C 
HETATM   14  C   UNK N   1      22.281  15.987   5.586  0.00  0.00     0.017 C 
HETATM   15  C   UNK N   1      23.407  11.292   8.531  0.00  0.00     0.018 C 
HETATM   16  C   UNK N   1      21.371  13.662   5.739  0.00  0.00     0.020 C 
HETATM   17  C   UNK N   1      21.309  16.586   4.537  0.00  0.00     0.037 C 
HETATM   18  C   UNK N   1      19.451  16.004   6.089  0.00  0.00     0.008 C 
HETATM   19  C   UNK N   1      19.880  16.038   4.651  0.00  0.00     0.141 C 
ENDROOT
BRANCH   8  20
HETATM   20  O   UNK N   1      25.403  13.031  11.132  0.00  0.00    -0.395 OA
HETATM   21  H   UNK N   1      25.871  13.863  11.302  0.00  0.00     0.210 HD
ENDBRANCH   8  20
BRANCH  19  22
HETATM   22  O   UNK N   1      18.995  16.801   3.893  0.00  0.00    -0.392 OA
HETATM   23  H   UNK N   1      18.106  16.993   4.230  0.00  0.00     0.210 HD
ENDBRANCH  19  22
TORSDOF 2
ENDMDL
MODEL 3
REMARK VINA RESULT:      -7.1      2.142      4.104
REMARK  2 active torsions:
REMARK  status: ('A' for Active; 'I' for Inactive)
REMARK    1  A    between atoms: C_10  and  O_1 
REMARK    2  A    between atoms: C_21  and  O_2 
ROOT
HETATM    1  C   UNK N   1      37.447  12.637  11.850  0.00  0.00     0.001 C 
HETATM    2  C   UNK N   1      36.943  11.900  13.102  0.00  0.00    -0.004 C 
HETATM    3  C   UNK N   1      36.384  13.568  11.280  0.00  0.00    -0.014 C 
HETATM    4  C   UNK N   1      36.491  12.929  14.172  0.00  0.00     0.002 C 
HETATM    5  C   UNK N   1      35.798  12.185  15.344  0.00  0.00    -0.017 C 
HETATM    6  C   UNK N   1      36.086  14.664  12.303  0.00  0.00     0.012 C 
HETATM    7  C   UNK N   1      35.554  14.023  13.595  0.00  0.00     0.007 C 
HETATM    8  C   UNK N   1      37.030  14.018   9.975  0.00  0.00     0.126 C 
HETATM    9  C   UNK N   1      37.828  11.779  10.655  0.00  0.00     0.008 C 
HETATM   10  C   UNK N   1      38.079  11.064  13.700  0.00  0.00     0.010 C 
HETATM   11  C   UNK N   1      37.670  12.722   9.449  0.00  0.00     0.033 C 
HETATM   12  C   UNK N   1      36.590  10.961  15.809  0.00  0.00    -0.072 C 
HETATM   13  C   UNK N   1      37.733  10.369  15.021  0.00  0.00     0.035 C 
HETATM   14  C   UNK N   1      35.618  13.141  16.547  0.00  0.00     0.017 C 
HETATM   15  C   UNK N   1      35.075  12.843  10.925  0.00  0.00     0.018 C 
HETATM   16  C   UNK N   1      34.412  11.696  14.901  0.00  0.00     0.020 C 
HETATM   17  C   UNK N   1      35.210  12.440  17.868  0.00  0.00     0.037 C 
HETATM   18  C   UNK N   1      36.230  10.362  16.952  0.00  0.00     0.008 C 
HETATM   19  C   UNK N   1      35.073  10.918  17.730  0.00  0.00     0.141 C 
ENDROOT
BRANCH   8  20
HETATM   20  O   UNK N   1      38.050  14.945  10.216  0.00  0.00    -0.395 OA
HETATM   21  H   UNK N   1      38.559  15.709  10.530  0.00  0.00     0.210 HD
ENDBRANCH   8  20
BRANCH  19  22
HETATM   22  O   UNK N   1      34.988  10.313  18.982  0.00  0.00    -0.392 OA
HETATM   23  H   UNK N   1      34.364  10.649  19.644  0.00  0.00     0.210 HD
ENDBRANCH  19  22
TORSDOF 2
ENDMDL
MODEL 4
REMARK VINA RESULT:      -7.1     23.182     26.199
REMARK  2 active torsions:
REMARK  status: ('A' for Active; 'I' for Inactive)
REMARK    1  A    between atoms: C_10  and  O_1 
REMARK    2  A    between atoms: C_21  and  O_2 
ROOT
HETATM    1  C   UNK N   1      26.666  25.816  -4.145  0.00  0.00     0.001 C 
HETATM    2  C   UNK N   1      27.861  24.890  -3.865  0.00  0.00    -0.004 C 
HETATM    3  C   UNK N   1      26.848  26.592  -5.444  0.00  0.00    -0.014 C 
HETATM    4  C   UNK N   1      28.063  23.916  -5.057  0.00  0.00     0.002 C 
HETATM    5  C   UNK N   1      29.385  23.127  -4.862  0.00  0.00    -0.017 C 
HETATM    6  C   UNK N   1      26.878  25.604  -6.611  0.00  0.00     0.012 C 
HETATM    7  C   UNK N   1      28.061  24.639  -6.431  0.00  0.00     0.007 C 
HETATM    8  C   UNK N   1      25.668  27.555  -5.402  0.00  0.00     0.126 C 
HETATM    9  C   UNK N   1      26.393  26.911  -3.128  0.00  0.00     0.008 C 
HETATM   10  C   UNK N   1      27.583  24.053  -2.613  0.00  0.00     0.010 C 
HETATM   11  C   UNK N   1      25.635  27.986  -3.926  0.00  0.00     0.033 C 
HETATM   12  C   UNK N   1      29.529  22.572  -3.444  0.00  0.00    -0.072 C 
HETATM   13  C   UNK N   1      28.654  23.006  -2.293  0.00  0.00     0.035 C 
HETATM   14  C   UNK N   1      29.451  21.949  -5.861  0.00  0.00     0.017 C 
HETATM   15  C   UNK N   1      28.135  27.435  -5.468  0.00  0.00     0.018 C 
HETATM   16  C   UNK N   1      30.584  24.052  -5.120  0.00  0.00     0.020 C 
HETATM   17  C   UNK N   1      30.575  20.922  -5.568  0.00  0.00     0.037 C 
HETATM   18  C   UNK N   1      30.504  21.685  -3.200  0.00  0.00     0.008 C 
HETATM   19  C   UNK N   1      31.406  21.269  -4.325  0.00  0.00     0.141 C 
ENDROOT
BRANCH   8  20
HETATM   20  O   UNK N   1      24.471  26.890  -5.691  0.00  0.00    -0.395 OA
HETATM   21  H   UNK N   1      23.808  26.282  -6.054  0.00  0.00     0.210 HD
ENDBRANCH   8  20
BRANCH  19  22
HETATM   22  O   UNK N   1      32.201  20.191  -3.944  0.00  0.00    -0.392 OA
HETATM   23  H   UNK N   1      33.101  20.342  -3.616  0.00  0.00     0.210 HD
ENDBRANCH  19  22
TORSDOF 2
ENDMDL
MODEL 5
REMARK VINA RESULT:      -7.0     25.938     27.941
REMARK  2 active torsions:
REMARK  status: ('A' for Active; 'I' for Inactive)
REMARK    1  A    between atoms: C_10  and  O_1 
REMARK    2  A    between atoms: C_21  and  O_2 
ROOT
HETATM    1  C   UNK N   1      27.292  26.529  -4.334  0.00  0.00     0.001 C 
HETATM    2  C   UNK N   1      27.845  25.377  -5.188  0.00  0.00    -0.004 C 
HETATM    3  C   UNK N   1      26.404  27.460  -5.151  0.00  0.00    -0.014 C 
HETATM    4  C   UNK N   1      26.673  24.587  -5.829  0.00  0.00     0.002 C 
HETATM    5  C   UNK N   1      27.237  23.560  -6.846  0.00  0.00    -0.017 C 
HETATM    6  C   UNK N   1      25.177  26.682  -5.626  0.00  0.00     0.012 C 
HETATM    7  C   UNK N   1      25.629  25.510  -6.513  0.00  0.00     0.007 C 
HETATM    8  C   UNK N   1      26.147  28.593  -4.165  0.00  0.00     0.126 C 
HETATM    9  C   UNK N   1      28.308  27.478  -3.719  0.00  0.00     0.008 C 
HETATM   10  C   UNK N   1      28.638  24.412  -4.302  0.00  0.00     0.010 C 
HETATM   11  C   UNK N   1      27.522  28.782  -3.500  0.00  0.00     0.033 C 
HETATM   12  C   UNK N   1      28.419  22.768  -6.283  0.00  0.00    -0.072 C 
HETATM   13  C   UNK N   1      29.146  23.157  -5.019  0.00  0.00     0.035 C 
HETATM   14  C   UNK N   1      26.130  22.563  -7.262  0.00  0.00     0.017 C 
HETATM   15  C   UNK N   1      27.122  28.060  -6.372  0.00  0.00     0.018 C 
HETATM   16  C   UNK N   1      27.730  24.292  -8.103  0.00  0.00     0.020 C 
HETATM   17  C   UNK N   1      26.642  21.323  -8.040  0.00  0.00     0.037 C 
HETATM   18  C   UNK N   1      28.854  21.698  -6.962  0.00  0.00     0.008 C 
HETATM   19  C   UNK N   1      28.164  21.318  -8.239  0.00  0.00     0.141 C 
ENDROOT
BRANCH   8  20
HETATM   20  O   UNK N   1      25.233  28.201  -3.180  0.00  0.00    -0.395 OA
HETATM   21  H   UNK N   1      24.485  27.800  -2.712  0.00  0.00     0.210 HD
ENDBRANCH   8  20
BRANCH  19  22
HETATM   22  O   UNK N   1      28.601  20.072  -8.681  0.00  0.00    -0.392 OA
HETATM   23  H   UNK N   1      28.990  19.442  -8.054  0.00  0.00     0.210 HD
ENDBRANCH  19  22
TORSDOF 2
ENDMDL
MODEL 6
REMARK VINA RESULT:      -6.9      7.286     10.837
REMARK  2 active torsions:
REMARK  status: ('A' for Active; 'I' for Inactive)
REMARK    1  A    between atoms: C_10  and  O_1 
REMARK    2  A    between atoms: C_21  and  O_2 
ROOT
HETATM    1  C   UNK N   1      32.591  16.738   5.417  0.00  0.00     0.001 C 
HETATM    2  C   UNK N   1      33.565  16.658   6.603  0.00  0.00    -0.004 C 
HETATM    3  C   UNK N   1      32.390  15.377   4.761  0.00  0.00    -0.014 C 
HETATM    4  C   UNK N   1      33.049  15.626   7.641  0.00  0.00     0.002 C 
HETATM    5  C   UNK N   1      34.132  15.401   8.729  0.00  0.00    -0.017 C 
HETATM    6  C   UNK N   1      31.729  14.435   5.768  0.00  0.00     0.012 C 
HETATM    7  C   UNK N   1      32.644  14.274   6.993  0.00  0.00     0.007 C 
HETATM    8  C   UNK N   1      31.567  15.740   3.531  0.00  0.00     0.126 C 
HETATM    9  C   UNK N   1      32.998  17.623   4.251  0.00  0.00     0.008 C 
HETATM   10  C   UNK N   1      33.648  18.022   7.295  0.00  0.00     0.010 C 
HETATM   11  C   UNK N   1      32.233  17.041   3.050  0.00  0.00     0.033 C 
HETATM   12  C   UNK N   1      34.718  16.715   9.249  0.00  0.00    -0.072 C 
HETATM   13  C   UNK N   1      34.503  18.043   8.566  0.00  0.00     0.035 C 
HETATM   14  C   UNK N   1      33.530  14.624   9.923  0.00  0.00     0.017 C 
HETATM   15  C   UNK N   1      33.705  14.744   4.271  0.00  0.00     0.018 C 
HETATM   16  C   UNK N   1      35.290  14.578   8.147  0.00  0.00     0.020 C 
HETATM   17  C   UNK N   1      34.425  14.597  11.188  0.00  0.00     0.037 C 
HETATM   18  C   UNK N   1      35.491  16.682  10.343  0.00  0.00     0.008 C 
HETATM   19  C   UNK N   1      35.744  15.364  11.015  0.00  0.00     0.141 C 
ENDROOT
BRANCH   8  20
HETATM   20  O   UNK N   1      30.244  16.028   3.883  0.00  0.00    -0.395 OA
HETATM   21  H   UNK N   1      29.282  15.986   4.002  0.00  0.00     0.210 HD
ENDBRANCH   8  20
BRANCH  19  22
HETATM   22  O   UNK N   1      36.372  15.552  12.244  0.00  0.00    -0.392 OA
HETATM   23  H   UNK N   1      35.844  15.704  13.043  0.00  0.00     0.210 HD
ENDBRANCH  19  22
TORSDOF 2
ENDMDL
MODEL 7
REMARK VINA RESULT:      -6.5      1.153      1.446
REMARK  2 active torsions:
REMARK  status: ('A' for Active; 'I' for Inactive)
REMARK    1  A    between atoms: C_10  and  O_1 
REMARK    2  A    between atoms: C_21  and  O_2 
ROOT
HETATM    1  C   UNK N   1      35.225  12.026  13.729  0.00  0.00     0.001 C 
HETATM    2  C   UNK N   1      35.571  11.790  15.208  0.00  0.00    -0.004 C 
HETATM    3  C   UNK N   1      35.683  10.867  12.852  0.00  0.00    -0.014 C 
HETATM    4  C   UNK N   1      34.938  10.459  15.691  0.00  0.00     0.002 C 
HETATM    5  C   UNK N   1      35.458  10.126  17.115  0.00  0.00    -0.017 C 
HETATM    6  C   UNK N   1      34.914   9.608  13.253  0.00  0.00     0.012 C 
HETATM    7  C   UNK N   1      35.213   9.276  14.724  0.00  0.00     0.007 C 
HETATM    8  C   UNK N   1      35.414  11.408  11.452  0.00  0.00     0.126 C 
HETATM    9  C   UNK N   1      35.858  13.234  13.059  0.00  0.00     0.008 C 
HETATM   10  C   UNK N   1      34.995  12.925  16.060  0.00  0.00     0.010 C 
HETATM   11  C   UNK N   1      35.866  12.874  11.563  0.00  0.00     0.033 C 
HETATM   12  C   UNK N   1      35.404  11.333  18.053  0.00  0.00    -0.072 C 
HETATM   13  C   UNK N   1      35.176  12.745  17.570  0.00  0.00     0.035 C 
HETATM   14  C   UNK N   1      34.617   8.984  17.733  0.00  0.00     0.017 C 
HETATM   15  C   UNK N   1      37.192  10.589  12.960  0.00  0.00     0.018 C 
HETATM   16  C   UNK N   1      36.921   9.666  17.039  0.00  0.00     0.020 C 
HETATM   17  C   UNK N   1      34.848   8.767  19.251  0.00  0.00     0.037 C 
HETATM   18  C   UNK N   1      35.605  11.135  19.363  0.00  0.00     0.008 C 
HETATM   19  C   UNK N   1      35.867   9.742  19.855  0.00  0.00     0.141 C 
ENDROOT
BRANCH   8  20
HETATM   20  O   UNK N   1      34.044  11.392  11.166  0.00  0.00    -0.395 OA
HETATM   21  H   UNK N   1      33.098  11.181  11.156  0.00  0.00     0.210 HD
ENDBRANCH   8  20
BRANCH  19  22
HETATM   22  O   UNK N   1      35.828   9.698  21.247  0.00  0.00    -0.392 OA
HETATM   23  H   UNK N   1      35.655  10.506  21.755  0.00  0.00     0.210 HD
ENDBRANCH  19  22
TORSDOF 2
ENDMDL
MODEL 8
REMARK VINA RESULT:      -6.5      7.253     11.752
REMARK  2 active torsions:
REMARK  status: ('A' for Active; 'I' for Inactive)
REMARK    1  A    between atoms: C_10  and  O_1 
REMARK    2  A    between atoms: C_21  and  O_2 
ROOT
HETATM    1  C   UNK N   1      35.321  15.786   9.495  0.00  0.00     0.001 C 
HETATM    2  C   UNK N   1      34.181  16.040   8.496  0.00  0.00    -0.004 C 
HETATM    3  C   UNK N   1      35.826  14.350   9.419  0.00  0.00    -0.014 C 
HETATM    4  C   UNK N   1      34.658  15.706   7.057  0.00  0.00     0.002 C 
HETATM    5  C   UNK N   1      33.450  15.769   6.085  0.00  0.00    -0.017 C 
HETATM    6  C   UNK N   1      36.436  14.112   8.038  0.00  0.00     0.012 C 
HETATM    7  C   UNK N   1      35.359  14.325   6.962  0.00  0.00     0.007 C 
HETATM    8  C   UNK N   1      36.784  14.292  10.603  0.00  0.00     0.126 C 
HETATM    9  C   UNK N   1      34.993  15.956  10.969  0.00  0.00     0.008 C 
HETATM   10  C   UNK N   1      33.785  17.519   8.531  0.00  0.00     0.010 C 
HETATM   11  C   UNK N   1      36.029  15.075  11.690  0.00  0.00     0.033 C 
HETATM   12  C   UNK N   1      32.599  17.023   6.290  0.00  0.00    -0.072 C 
HETATM   13  C   UNK N   1      32.732  17.923   7.494  0.00  0.00     0.035 C 
HETATM   14  C   UNK N   1      33.947  15.745   4.620  0.00  0.00     0.017 C 
HETATM   15  C   UNK N   1      34.720  13.308   9.665  0.00  0.00     0.018 C 
HETATM   16  C   UNK N   1      32.540  14.552   6.309  0.00  0.00     0.020 C 
HETATM   17  C   UNK N   1      32.862  16.097   3.569  0.00  0.00     0.037 C 
HETATM   18  C   UNK N   1      31.665  17.319   5.377  0.00  0.00     0.008 C 
HETATM   19  C   UNK N   1      31.496  16.415   4.190  0.00  0.00     0.141 C 
ENDROOT
BRANCH   8  20
HETATM   20  O   UNK N   1      37.973  14.973  10.316  0.00  0.00    -0.395 OA
HETATM   21  H   UNK N   1      38.822  15.435  10.392  0.00  0.00     0.210 HD
ENDBRANCH   8  20
BRANCH  19  22
HETATM   22  O   UNK N   1      30.647  16.993   3.250  0.00  0.00    -0.392 OA
HETATM   23  H   UNK N   1      29.708  17.125   3.457  0.00  0.00     0.210 HD
ENDBRANCH  19  22
TORSDOF 2
ENDMDL
MODEL 9
REMARK VINA RESULT:      -6.4     11.039     13.877
REMARK  2 active torsions:
REMARK  status: ('A' for Active; 'I' for Inactive)
REMARK    1  A    between atoms: C_10  and  O_1 
REMARK    2  A    between atoms: C_21  and  O_2 
ROOT
HETATM    1  C   UNK N   1      29.305  16.211   3.643  0.00  0.00     0.001 C 
HETATM    2  C   UNK N   1      30.585  16.338   4.484  0.00  0.00    -0.004 C 
HETATM    3  C   UNK N   1      28.205  15.478   4.401  0.00  0.00    -0.014 C 
HETATM    4  C   UNK N   1      30.269  17.062   5.820  0.00  0.00     0.002 C 
HETATM    5  C   UNK N   1      31.513  17.005   6.746  0.00  0.00    -0.017 C 
HETATM    6  C   UNK N   1      27.808  16.307   5.622  0.00  0.00     0.012 C 
HETATM    7  C   UNK N   1      29.028  16.474   6.543  0.00  0.00     0.007 C 
HETATM    8  C   UNK N   1      27.141  15.309   3.322  0.00  0.00     0.126 C 
HETATM    9  C   UNK N   1      29.410  15.426   2.346  0.00  0.00     0.008 C 
HETATM   10  C   UNK N   1      31.620  17.175   3.726  0.00  0.00     0.010 C 
HETATM   11  C   UNK N   1      27.973  14.944   2.080  0.00  0.00     0.033 C 
HETATM   12  C   UNK N   1      32.803  17.375   6.013  0.00  0.00    -0.072 C 
HETATM   13  C   UNK N   1      32.902  17.470   4.510  0.00  0.00     0.035 C 
HETATM   14  C   UNK N   1      31.329  17.973   7.939  0.00  0.00     0.017 C 
HETATM   15  C   UNK N   1      28.625  14.072   4.863  0.00  0.00     0.018 C 
HETATM   16  C   UNK N   1      31.685  15.582   7.296  0.00  0.00     0.020 C 
HETATM   17  C   UNK N   1      32.617  18.222   8.766  0.00  0.00     0.037 C 
HETATM   18  C   UNK N   1      33.911  17.588   6.736  0.00  0.00     0.008 C 
HETATM   19  C   UNK N   1      33.839  17.463   8.231  0.00  0.00     0.141 C 
ENDROOT
BRANCH   8  20
HETATM   20  O   UNK N   1      26.487  16.520   3.072  0.00  0.00    -0.395 OA
HETATM   21  H   UNK N   1      26.275  17.421   2.784  0.00  0.00     0.210 HD
ENDBRANCH   8  20
BRANCH  19  22
HETATM   22  O   UNK N   1      35.010  17.933   8.819  0.00  0.00    -0.392 OA
HETATM   23  H   UNK N   1      35.616  18.498   8.315  0.00  0.00     0.210 HD
ENDBRANCH  19  22
TORSDOF 2
ENDMDL
