REMARK  3 active torsions:
REMARK  status: ('A' for Active; 'I' for Inactive)
REMARK    1  A    between atoms: N_2  and  C_3 
REMARK    2  A    between atoms: C_3  and  C_4 
REMARK    3  A    between atoms: C_4  and  C_7 
ROOT
HETATM    1 Cl   UNK N   1       0.498   0.246   0.232  0.00  0.00    -0.084 Cl
HETATM    2  C   UNK N   1       3.117  -0.614   0.471  0.00  0.00    -0.034 A 
HETATM    3  C   UNK N   1       1.792  -0.936   0.117  0.00  0.00     0.040 A 
HETATM    4  C   UNK N   1       4.113  -1.595   0.377  0.00  0.00     0.009 A 
HETATM    5  C   UNK N   1       1.488  -2.225  -0.337  0.00  0.00     0.024 A 
HETATM    6  C   UNK N   1       3.803  -2.879  -0.077  0.00  0.00     0.001 A 
HETATM    7  C   UNK N   1       2.491  -3.194  -0.434  0.00  0.00     0.002 A 
ENDROOT
BRANCH   2   8
HETATM    8  C   UNK N   1       3.478   0.749   1.000  0.00  0.00     0.070 C 
BRANCH   8   9
HETATM    9  C   UNK N   1       4.248   1.662   0.035  0.00  0.00     0.019 C 
HETATM   10  C   UNK N   1       3.327   2.147  -1.068  0.00  0.00     0.037 C 
HETATM   11  C   UNK N   1       5.448   0.970  -0.589  0.00  0.00     0.037 C 
BRANCH   9  12
HETATM   12  N   UNK N   1       4.724   2.813   0.779  0.00  0.00    -0.422 N 
HETATM   13  H   UNK N   1       5.591   2.928   1.303  0.00  0.00     0.150 HD
HETATM   14  H   UNK N   1       4.102   3.622   0.779  0.00  0.00     0.150 HD
ENDBRANCH   9  12
ENDBRANCH   8   9
ENDBRANCH   2   8
TORSDOF 3
