MODEL 1
REMARK VINA RESULT:      -5.3      0.000      0.000
REMARK  3 active torsions:
REMARK  status: ('A' for Active; 'I' for Inactive)
REMARK    1  A    between atoms: N_2  and  C_3 
REMARK    2  A    between atoms: C_3  and  C_4 
REMARK    3  A    between atoms: C_4  and  C_7 
ROOT
HETATM    1 Cl   UNK N   1      35.350  10.129  15.778  0.00  0.00    -0.084 Cl
HETATM    2  C   UNK N   1      35.235  12.703  16.786  0.00  0.00    -0.034 A 
HETATM    3  C   UNK N   1      35.302  11.324  17.064  0.00  0.00     0.040 A 
HETATM    4  C   UNK N   1      35.183  13.618  17.846  0.00  0.00     0.009 A 
HETATM    5  C   UNK N   1      35.331  10.884  18.393  0.00  0.00     0.024 A 
HETATM    6  C   UNK N   1      35.213  13.172  19.170  0.00  0.00     0.001 A 
HETATM    7  C   UNK N   1      35.286  11.806  19.443  0.00  0.00     0.002 A 
ENDROOT
BRANCH   2   8
HETATM    8  C   UNK N   1      35.164  13.215  15.372  0.00  0.00     0.070 C 
BRANCH   8   9
HETATM    9  C   UNK N   1      36.478  13.746  14.782  0.00  0.00     0.019 C 
HETATM   10  C   UNK N   1      37.098  14.761  15.724  0.00  0.00     0.037 C 
HETATM   11  C   UNK N   1      36.288  14.387  13.418  0.00  0.00     0.037 C 
BRANCH   9  12
HETATM   12  N   UNK N   1      37.395  12.631  14.636  0.00  0.00    -0.422 N 
HETATM   13  H   UNK N   1      37.939  12.146  15.350  0.00  0.00     0.150 HD
HETATM   14  H   UNK N   1      37.514  12.284  13.684  0.00  0.00     0.150 HD
ENDBRANCH   9  12
ENDBRANCH   8   9
ENDBRANCH   2   8
TORSDOF 3
ENDMDL
MODEL 2
REMARK VINA RESULT:      -5.1      1.787      2.472
REMARK  3 active torsions:
REMARK  status: ('A' for Active; 'I' for Inactive)
REMARK    1  A    between atoms: N_2  and  C_3 
REMARK    2  A    between atoms: C_3  and  C_4 
REMARK    3  A    between atoms: C_4  and  C_7 
ROOT
HETATM    1 Cl   UNK N   1      35.304  14.894  18.188  0.00  0.00    -0.084 Cl
HETATM    2  C   UNK N   1      35.153  12.456  16.889  0.00  0.00    -0.034 A 
HETATM    3  C   UNK N   1      35.267  13.140  18.115  0.00  0.00     0.040 A 
HETATM    4  C   UNK N   1      35.143  11.055  16.880  0.00  0.00     0.009 A 
HETATM    5  C   UNK N   1      35.354  12.415  19.310  0.00  0.00     0.024 A 
HETATM    6  C   UNK N   1      35.230  10.337  18.075  0.00  0.00     0.001 A 
HETATM    7  C   UNK N   1      35.335  11.017  19.290  0.00  0.00     0.002 A 
ENDROOT
BRANCH   2   8
HETATM    8  C   UNK N   1      35.096  13.198  15.580  0.00  0.00     0.070 C 
BRANCH   8   9
HETATM    9  C   UNK N   1      36.420  13.307  14.811  0.00  0.00     0.019 C 
HETATM   10  C   UNK N   1      36.155  13.716  13.375  0.00  0.00     0.037 C 
HETATM   11  C   UNK N   1      37.207  12.007  14.819  0.00  0.00     0.037 C 
BRANCH   9  12
HETATM   12  N   UNK N   1      37.230  14.332  15.441  0.00  0.00    -0.422 N 
HETATM   13  H   UNK N   1      38.054  14.229  16.033  0.00  0.00     0.150 HD
HETATM   14  H   UNK N   1      36.932  15.293  15.269  0.00  0.00     0.150 HD
ENDBRANCH   9  12
ENDBRANCH   8   9
ENDBRANCH   2   8
TORSDOF 3
ENDMDL
MODEL 3
REMARK VINA RESULT:      -5.0     23.513     26.103
REMARK  3 active torsions:
REMARK  status: ('A' for Active; 'I' for Inactive)
REMARK    1  A    between atoms: N_2  and  C_3 
REMARK    2  A    between atoms: C_3  and  C_4 
REMARK    3  A    between atoms: C_4  and  C_7 
ROOT
HETATM    1 Cl   UNK N   1      25.793  23.808  -6.195  0.00  0.00    -0.084 Cl
HETATM    2  C   UNK N   1      26.409  25.352  -3.983  0.00  0.00    -0.034 A 
HETATM    3  C   UNK N   1      25.788  25.286  -5.246  0.00  0.00     0.040 A 
HETATM    4  C   UNK N   1      26.392  26.557  -3.269  0.00  0.00     0.009 A 
HETATM    5  C   UNK N   1      25.151  26.418  -5.767  0.00  0.00     0.024 A 
HETATM    6  C   UNK N   1      25.754  27.684  -3.795  0.00  0.00     0.001 A 
HETATM    7  C   UNK N   1      25.134  27.614  -5.043  0.00  0.00     0.002 A 
ENDROOT
BRANCH   2   8
HETATM    8  C   UNK N   1      27.138  24.168  -3.405  0.00  0.00     0.070 C 
BRANCH   8   9
HETATM    9  C   UNK N   1      28.632  24.068  -3.743  0.00  0.00     0.019 C 
HETATM   10  C   UNK N   1      29.380  23.401  -2.604  0.00  0.00     0.037 C 
HETATM   11  C   UNK N   1      29.258  25.424  -4.020  0.00  0.00     0.037 C 
BRANCH   9  12
HETATM   12  N   UNK N   1      28.777  23.250  -4.932  0.00  0.00    -0.422 N 
HETATM   13  H   UNK N   1      29.357  23.406  -5.755  0.00  0.00     0.150 HD
HETATM   14  H   UNK N   1      28.216  22.397  -4.947  0.00  0.00     0.150 HD
ENDBRANCH   9  12
ENDBRANCH   8   9
ENDBRANCH   2   8
TORSDOF 3
ENDMDL
MODEL 4
REMARK VINA RESULT:      -4.9     26.068     27.140
REMARK  3 active torsions:
REMARK  status: ('A' for Active; 'I' for Inactive)
REMARK    1  A    between atoms: N_2  and  C_3 
REMARK    2  A    between atoms: C_3  and  C_4 
REMARK    3  A    between atoms: C_4  and  C_7 
ROOT
HETATM    1 Cl   UNK N   1      27.263  24.143  -3.107  0.00  0.00    -0.084 Cl
HETATM    2  C   UNK N   1      25.810  25.301  -5.157  0.00  0.00    -0.034 A 
HETATM    3  C   UNK N   1      26.414  25.463  -3.894  0.00  0.00     0.040 A 
HETATM    4  C   UNK N   1      25.130  26.380  -5.738  0.00  0.00     0.009 A 
HETATM    5  C   UNK N   1      26.340  26.700  -3.242  0.00  0.00     0.024 A 
HETATM    6  C   UNK N   1      25.060  27.611  -5.083  0.00  0.00     0.001 A 
HETATM    7  C   UNK N   1      25.665  27.771  -3.835  0.00  0.00     0.002 A 
ENDROOT
BRANCH   2   8
HETATM    8  C   UNK N   1      25.833  23.977  -5.873  0.00  0.00     0.070 C 
BRANCH   8   9
HETATM    9  C   UNK N   1      26.860  23.844  -7.007  0.00  0.00     0.019 C 
HETATM   10  C   UNK N   1      27.416  22.434  -7.042  0.00  0.00     0.037 C 
HETATM   11  C   UNK N   1      28.010  24.828  -6.869  0.00  0.00     0.037 C 
BRANCH   9  12
HETATM   12  N   UNK N   1      26.186  24.107  -8.265  0.00  0.00    -0.422 N 
HETATM   13  H   UNK N   1      25.431  24.761  -8.467  0.00  0.00     0.150 HD
HETATM   14  H   UNK N   1      26.514  23.557  -9.060  0.00  0.00     0.150 HD
ENDBRANCH   9  12
ENDBRANCH   8   9
ENDBRANCH   2   8
TORSDOF 3
ENDMDL
MODEL 5
REMARK VINA RESULT:      -4.9      9.225     10.908
REMARK  3 active torsions:
REMARK  status: ('A' for Active; 'I' for Inactive)
REMARK    1  A    between atoms: N_2  and  C_3 
REMARK    2  A    between atoms: C_3  and  C_4 
REMARK    3  A    between atoms: C_4  and  C_7 
ROOT
HETATM    1 Cl   UNK N   1      31.473  16.510   5.678  0.00  0.00    -0.084 Cl
HETATM    2  C   UNK N   1      31.280  17.819   8.108  0.00  0.00    -0.034 A 
HETATM    3  C   UNK N   1      30.602  17.216   7.031  0.00  0.00     0.040 A 
HETATM    4  C   UNK N   1      30.542  18.382   9.158  0.00  0.00     0.009 A 
HETATM    5  C   UNK N   1      29.203  17.173   7.026  0.00  0.00     0.024 A 
HETATM    6  C   UNK N   1      29.146  18.336   9.147  0.00  0.00     0.001 A 
HETATM    7  C   UNK N   1      28.477  17.731   8.082  0.00  0.00     0.002 A 
ENDROOT
BRANCH   2   8
HETATM    8  C   UNK N   1      32.782  17.920   8.132  0.00  0.00     0.070 C 
BRANCH   8   9
HETATM    9  C   UNK N   1      33.529  16.698   8.687  0.00  0.00     0.019 C 
HETATM   10  C   UNK N   1      34.509  16.175   7.655  0.00  0.00     0.037 C 
HETATM   11  C   UNK N   1      32.589  15.576   9.093  0.00  0.00     0.037 C 
BRANCH   9  12
HETATM   12  N   UNK N   1      34.273  17.114   9.862  0.00  0.00    -0.422 N 
HETATM   13  H   UNK N   1      35.281  17.161  10.002  0.00  0.00     0.150 HD
HETATM   14  H   UNK N   1      33.706  17.398  10.661  0.00  0.00     0.150 HD
ENDBRANCH   9  12
ENDBRANCH   8   9
ENDBRANCH   2   8
TORSDOF 3
ENDMDL
MODEL 6
REMARK VINA RESULT:      -4.8     27.282     28.378
REMARK  3 active torsions:
REMARK  status: ('A' for Active; 'I' for Inactive)
REMARK    1  A    between atoms: N_2  and  C_3 
REMARK    2  A    between atoms: C_3  and  C_4 
REMARK    3  A    between atoms: C_4  and  C_7 
ROOT
HETATM    1 Cl   UNK N   1      28.096  28.090  -7.809  0.00  0.00    -0.084 Cl
HETATM    2  C   UNK N   1      26.125  27.541  -5.946  0.00  0.00    -0.034 A 
HETATM    3  C   UNK N   1      27.236  28.332  -6.297  0.00  0.00     0.040 A 
HETATM    4  C   UNK N   1      25.481  27.762  -4.722  0.00  0.00     0.009 A 
HETATM    5  C   UNK N   1      27.675  29.338  -5.427  0.00  0.00     0.024 A 
HETATM    6  C   UNK N   1      25.923  28.767  -3.859  0.00  0.00     0.001 A 
HETATM    7  C   UNK N   1      27.020  29.555  -4.211  0.00  0.00     0.002 A 
ENDROOT
BRANCH   2   8
HETATM    8  C   UNK N   1      25.646  26.424  -6.836  0.00  0.00     0.070 C 
BRANCH   8   9
HETATM    9  C   UNK N   1      26.084  25.009  -6.433  0.00  0.00     0.019 C 
HETATM   10  C   UNK N   1      27.477  25.047  -5.834  0.00  0.00     0.037 C 
HETATM   11  C   UNK N   1      26.074  24.041  -7.604  0.00  0.00     0.037 C 
BRANCH   9  12
HETATM   12  N   UNK N   1      25.162  24.515  -5.428  0.00  0.00    -0.422 N 
HETATM   13  H   UNK N   1      25.002  24.852  -4.479  0.00  0.00     0.150 HD
HETATM   14  H   UNK N   1      24.594  23.716  -5.710  0.00  0.00     0.150 HD
ENDBRANCH   9  12
ENDBRANCH   8   9
ENDBRANCH   2   8
TORSDOF 3
ENDMDL
MODEL 7
REMARK VINA RESULT:      -4.8      1.333      1.821
REMARK  3 active torsions:
REMARK  status: ('A' for Active; 'I' for Inactive)
REMARK    1  A    between atoms: N_2  and  C_3 
REMARK    2  A    between atoms: C_3  and  C_4 
REMARK    3  A    between atoms: C_4  and  C_7 
ROOT
HETATM    1 Cl   UNK N   1      34.439  10.112  14.306  0.00  0.00    -0.084 Cl
HETATM    2  C   UNK N   1      35.040  12.157  16.070  0.00  0.00    -0.034 A 
HETATM    3  C   UNK N   1      34.757  10.788  15.896  0.00  0.00     0.040 A 
HETATM    4  C   UNK N   1      35.272  12.654  17.359  0.00  0.00     0.009 A 
HETATM    5  C   UNK N   1      34.723   9.939  17.008  0.00  0.00     0.024 A 
HETATM    6  C   UNK N   1      35.238  11.801  18.465  0.00  0.00     0.001 A 
HETATM    7  C   UNK N   1      34.964  10.444  18.289  0.00  0.00     0.002 A 
ENDROOT
BRANCH   2   8
HETATM    8  C   UNK N   1      35.048  13.111  14.905  0.00  0.00     0.070 C 
BRANCH   8   9
HETATM    9  C   UNK N   1      36.415  13.366  14.254  0.00  0.00     0.019 C 
HETATM   10  C   UNK N   1      36.290  13.314  12.744  0.00  0.00     0.037 C 
HETATM   11  C   UNK N   1      37.468  12.366  14.700  0.00  0.00     0.037 C 
BRANCH   9  12
HETATM   12  N   UNK N   1      36.860  14.694  14.635  0.00  0.00    -0.422 N 
HETATM   13  H   UNK N   1      37.150  15.471  14.042  0.00  0.00     0.150 HD
HETATM   14  H   UNK N   1      36.888  14.875  15.639  0.00  0.00     0.150 HD
ENDBRANCH   9  12
ENDBRANCH   8   9
ENDBRANCH   2   8
TORSDOF 3
ENDMDL
MODEL 8
REMARK VINA RESULT:      -4.7     26.711     28.249
REMARK  3 active torsions:
REMARK  status: ('A' for Active; 'I' for Inactive)
REMARK    1  A    between atoms: N_2  and  C_3 
REMARK    2  A    between atoms: C_3  and  C_4 
REMARK    3  A    between atoms: C_4  and  C_7 
ROOT
HETATM    1 Cl   UNK N   1      28.586  28.896  -7.244  0.00  0.00    -0.084 Cl
HETATM    2  C   UNK N   1      26.612  28.404  -5.369  0.00  0.00    -0.034 A 
HETATM    3  C   UNK N   1      27.207  28.028  -6.589  0.00  0.00     0.040 A 
HETATM    4  C   UNK N   1      25.504  27.690  -4.894  0.00  0.00     0.009 A 
HETATM    5  C   UNK N   1      26.696  26.939  -7.305  0.00  0.00     0.024 A 
HETATM    6  C   UNK N   1      24.999  26.604  -5.613  0.00  0.00     0.001 A 
HETATM    7  C   UNK N   1      25.594  26.228  -6.818  0.00  0.00     0.002 A 
ENDROOT
BRANCH   2   8
HETATM    8  C   UNK N   1      27.108  29.592  -4.588  0.00  0.00     0.070 C 
BRANCH   8   9
HETATM    9  C   UNK N   1      28.115  29.289  -3.470  0.00  0.00     0.019 C 
HETATM   10  C   UNK N   1      29.114  30.423  -3.348  0.00  0.00     0.037 C 
HETATM   11  C   UNK N   1      28.866  27.988  -3.699  0.00  0.00     0.037 C 
BRANCH   9  12
HETATM   12  N   UNK N   1      27.387  29.178  -2.219  0.00  0.00    -0.422 N 
HETATM   13  H   UNK N   1      27.469  28.474  -1.486  0.00  0.00     0.150 HD
HETATM   14  H   UNK N   1      26.694  29.908  -2.050  0.00  0.00     0.150 HD
ENDBRANCH   9  12
ENDBRANCH   8   9
ENDBRANCH   2   8
TORSDOF 3
ENDMDL
MODEL 9
REMARK VINA RESULT:      -4.7     10.194     12.203
REMARK  3 active torsions:
REMARK  status: ('A' for Active; 'I' for Inactive)
REMARK    1  A    between atoms: N_2  and  C_3 
REMARK    2  A    between atoms: C_3  and  C_4 
REMARK    3  A    between atoms: C_4  and  C_7 
ROOT
HETATM    1 Cl   UNK N   1      35.254  15.062   6.334  0.00  0.00    -0.084 Cl
HETATM    2  C   UNK N   1      33.425  17.018   5.639  0.00  0.00    -0.034 A 
HETATM    3  C   UNK N   1      34.145  15.874   5.241  0.00  0.00     0.040 A 
HETATM    4  C   UNK N   1      32.563  17.640   4.726  0.00  0.00     0.009 A 
HETATM    5  C   UNK N   1      33.982  15.365   3.947  0.00  0.00     0.024 A 
HETATM    6  C   UNK N   1      32.404  17.127   3.437  0.00  0.00     0.001 A 
HETATM    7  C   UNK N   1      33.113  15.990   3.048  0.00  0.00     0.002 A 
ENDROOT
BRANCH   2   8
HETATM    8  C   UNK N   1      33.601  17.619   7.008  0.00  0.00     0.070 C 
BRANCH   8   9
HETATM    9  C   UNK N   1      32.650  17.101   8.097  0.00  0.00     0.019 C 
HETATM   10  C   UNK N   1      31.993  15.812   7.643  0.00  0.00     0.037 C 
HETATM   11  C   UNK N   1      31.571  18.109   8.455  0.00  0.00     0.037 C 
BRANCH   9  12
HETATM   12  N   UNK N   1      33.429  16.827   9.290  0.00  0.00    -0.422 N 
HETATM   13  H   UNK N   1      33.254  17.112  10.253  0.00  0.00     0.150 HD
HETATM   14  H   UNK N   1      34.272  16.272   9.144  0.00  0.00     0.150 HD
ENDBRANCH   9  12
ENDBRANCH   8   9
ENDBRANCH   2   8
TORSDOF 3
ENDMDL
