MODEL 1
REMARK VINA RESULT:      -4.9      0.000      0.000
REMARK  5 active torsions:
REMARK  status: ('A' for Active; 'I' for Inactive)
REMARK    1  A    between atoms: O_1  and  C_7 
REMARK    2  A    between atoms: O_2  and  C_11 
REMARK    3  A    between atoms: N_3  and  C_5 
REMARK    4  A    between atoms: C_4  and  C_5 
REMARK    5  A    between atoms: C_4  and  C_6 
ROOT
HETATM    1  C   UNK N   1      30.121  17.110   6.698  0.00  0.00    -0.020 A 
HETATM    2  C   UNK N   1      31.540  17.244   6.734  0.00  0.00     0.075 A 
HETATM    3  C   UNK N   1      29.489  16.955   5.459  0.00  0.00     0.047 A 
HETATM    4  C   UNK N   1      31.606  17.068   4.297  0.00  0.00    -0.026 A 
HETATM    5  C   UNK N   1      30.194  16.929   4.257  0.00  0.00     0.074 A 
HETATM    6  C   UNK N   1      32.248  17.218   5.527  0.00  0.00     0.046 A 
HETATM    7  C   UNK N   1      32.460  17.065   3.075  0.00  0.00     0.051 C 
ENDROOT
BRANCH   1   8
HETATM    8  C   UNK N   1      29.273  17.186   7.950  0.00  0.00     0.065 C 
BRANCH   8   9
HETATM    9  C   UNK N   1      29.025  18.580   8.540  0.00  0.00     0.074 C 
HETATM   10  C   UNK N   1      29.765  18.791   9.850  0.00  0.00     0.032 C 
BRANCH   9  11
HETATM   11  N   UNK N   1      27.604  18.734   8.791  0.00  0.00    -0.426 N 
HETATM   12  H   UNK N   1      27.104  19.541   8.420  0.00  0.00     0.150 HD
HETATM   13  H   UNK N   1      27.105  18.033   9.339  0.00  0.00     0.150 HD
ENDBRANCH   9  11
ENDBRANCH   8   9
ENDBRANCH   1   8
BRANCH   2  14
HETATM   14  O   UNK N   1      32.272  17.402   7.870  0.00  0.00    -0.355 OA
HETATM   15  C   UNK N   1      33.408  18.162   8.016  0.00  0.00     0.210 C 
ENDBRANCH   2  14
BRANCH   5  16
HETATM   16  O   UNK N   1      29.465  16.779   3.118  0.00  0.00    -0.355 OA
HETATM   17  C   UNK N   1      28.777  15.655   2.730  0.00  0.00     0.210 C 
ENDBRANCH   5  16
TORSDOF 5
ENDMDL
MODEL 2
REMARK VINA RESULT:      -4.8      1.167      3.440
REMARK  5 active torsions:
REMARK  status: ('A' for Active; 'I' for Inactive)
REMARK    1  A    between atoms: O_1  and  C_7 
REMARK    2  A    between atoms: O_2  and  C_11 
REMARK    3  A    between atoms: N_3  and  C_5 
REMARK    4  A    between atoms: C_4  and  C_5 
REMARK    5  A    between atoms: C_4  and  C_6 
ROOT
HETATM    1  C   UNK N   1      30.124  17.252   6.646  0.00  0.00    -0.020 A 
HETATM    2  C   UNK N   1      29.628  17.216   5.309  0.00  0.00     0.075 A 
HETATM    3  C   UNK N   1      31.509  17.246   6.852  0.00  0.00     0.047 A 
HETATM    4  C   UNK N   1      31.923  17.161   4.472  0.00  0.00    -0.026 A 
HETATM    5  C   UNK N   1      32.422  17.202   5.800  0.00  0.00     0.074 A 
HETATM    6  C   UNK N   1      30.546  17.172   4.253  0.00  0.00     0.046 A 
HETATM    7  C   UNK N   1      32.806  17.103   3.271  0.00  0.00     0.051 C 
ENDROOT
BRANCH   1   8
HETATM    8  C   UNK N   1      29.203  17.241   7.847  0.00  0.00     0.065 C 
BRANCH   8   9
HETATM    9  C   UNK N   1      28.942  18.586   8.536  0.00  0.00     0.074 C 
HETATM   10  C   UNK N   1      29.775  18.762   9.794  0.00  0.00     0.032 C 
BRANCH   9  11
HETATM   11  N   UNK N   1      27.540  18.654   8.907  0.00  0.00    -0.426 N 
HETATM   12  H   UNK N   1      26.963  17.814   8.879  0.00  0.00     0.150 HD
HETATM   13  H   UNK N   1      27.132  19.544   9.197  0.00  0.00     0.150 HD
ENDBRANCH   9  11
ENDBRANCH   8   9
ENDBRANCH   1   8
BRANCH   2  14
HETATM   14  O   UNK N   1      28.310  17.216   4.976  0.00  0.00    -0.355 OA
HETATM   15  C   UNK N   1      27.610  18.246   4.392  0.00  0.00     0.210 C 
ENDBRANCH   2  14
BRANCH   5  16
HETATM   16  O   UNK N   1      33.742  17.194   6.130  0.00  0.00    -0.355 OA
HETATM   17  C   UNK N   1      34.276  17.437   7.373  0.00  0.00     0.210 C 
ENDBRANCH   5  16
TORSDOF 5
ENDMDL
MODEL 3
REMARK VINA RESULT:      -4.8      2.936      4.727
REMARK  5 active torsions:
REMARK  status: ('A' for Active; 'I' for Inactive)
REMARK    1  A    between atoms: O_1  and  C_7 
REMARK    2  A    between atoms: O_2  and  C_11 
REMARK    3  A    between atoms: N_3  and  C_5 
REMARK    4  A    between atoms: C_4  and  C_5 
REMARK    5  A    between atoms: C_4  and  C_6 
ROOT
HETATM    1  C   UNK N   1      33.034  17.533   7.784  0.00  0.00    -0.020 A 
HETATM    2  C   UNK N   1      32.993  17.039   6.446  0.00  0.00     0.075 A 
HETATM    3  C   UNK N   1      31.827  17.790   8.444  0.00  0.00     0.047 A 
HETATM    4  C   UNK N   1      30.551  17.098   6.511  0.00  0.00    -0.026 A 
HETATM    5  C   UNK N   1      30.586  17.584   7.844  0.00  0.00     0.074 A 
HETATM    6  C   UNK N   1      31.747  16.833   5.844  0.00  0.00     0.046 A 
HETATM    7  C   UNK N   1      29.283  16.851   5.766  0.00  0.00     0.051 C 
ENDROOT
BRANCH   1   8
HETATM    8  C   UNK N   1      34.337  17.840   8.490  0.00  0.00     0.065 C 
BRANCH   8   9
HETATM    9  C   UNK N   1      34.952  16.717   9.335  0.00  0.00     0.074 C 
HETATM   10  C   UNK N   1      34.102  15.457   9.326  0.00  0.00     0.032 C 
BRANCH   9  11
HETATM   11  N   UNK N   1      35.068  17.176  10.707  0.00  0.00    -0.426 N 
HETATM   12  H   UNK N   1      35.290  18.152  10.902  0.00  0.00     0.150 HD
HETATM   13  H   UNK N   1      34.927  16.522  11.477  0.00  0.00     0.150 HD
ENDBRANCH   9  11
ENDBRANCH   8   9
ENDBRANCH   1   8
BRANCH   2  14
HETATM   14  O   UNK N   1      34.091  16.753   5.697  0.00  0.00    -0.355 OA
HETATM   15  C   UNK N   1      34.674  15.518   5.531  0.00  0.00     0.210 C 
ENDBRANCH   2  14
BRANCH   5  16
HETATM   16  O   UNK N   1      29.485  17.877   8.588  0.00  0.00    -0.355 OA
HETATM   17  C   UNK N   1      29.467  18.519   9.804  0.00  0.00     0.210 C 
ENDBRANCH   5  16
TORSDOF 5
ENDMDL
MODEL 4
REMARK VINA RESULT:      -4.7      2.504      3.897
REMARK  5 active torsions:
REMARK  status: ('A' for Active; 'I' for Inactive)
REMARK    1  A    between atoms: O_1  and  C_7 
REMARK    2  A    between atoms: O_2  and  C_11 
REMARK    3  A    between atoms: N_3  and  C_5 
REMARK    4  A    between atoms: C_4  and  C_5 
REMARK    5  A    between atoms: C_4  and  C_6 
ROOT
HETATM    1  C   UNK N   1      32.660  17.622   7.341  0.00  0.00    -0.020 A 
HETATM    2  C   UNK N   1      31.272  17.446   7.616  0.00  0.00     0.075 A 
HETATM    3  C   UNK N   1      33.112  17.468   6.026  0.00  0.00     0.047 A 
HETATM    4  C   UNK N   1      30.878  16.964   5.252  0.00  0.00    -0.026 A 
HETATM    5  C   UNK N   1      32.258  17.145   4.973  0.00  0.00     0.074 A 
HETATM    6  C   UNK N   1      30.414  17.120   6.559  0.00  0.00     0.046 A 
HETATM    7  C   UNK N   1      29.875  16.607   4.208  0.00  0.00     0.051 C 
ENDROOT
BRANCH   1   8
HETATM    8  C   UNK N   1      33.666  17.917   8.433  0.00  0.00     0.065 C 
BRANCH   8   9
HETATM    9  C   UNK N   1      34.432  16.721   9.015  0.00  0.00     0.074 C 
HETATM   10  C   UNK N   1      33.572  15.472   9.099  0.00  0.00     0.032 C 
BRANCH   9  11
HETATM   11  N   UNK N   1      34.873  17.059  10.356  0.00  0.00    -0.426 N 
HETATM   12  H   UNK N   1      34.469  17.861  10.840  0.00  0.00     0.150 HD
HETATM   13  H   UNK N   1      35.588  16.494  10.815  0.00  0.00     0.150 HD
ENDBRANCH   9  11
ENDBRANCH   8   9
ENDBRANCH   1   8
BRANCH   2  14
HETATM   14  O   UNK N   1      30.708  17.566   8.848  0.00  0.00    -0.355 OA
HETATM   15  C   UNK N   1      30.038  18.661   9.342  0.00  0.00     0.210 C 
ENDBRANCH   2  14
BRANCH   5  16
HETATM   16  O   UNK N   1      32.820  17.016   3.741  0.00  0.00    -0.355 OA
HETATM   17  C   UNK N   1      33.393  15.882   3.218  0.00  0.00     0.210 C 
ENDBRANCH   5  16
TORSDOF 5
ENDMDL
MODEL 5
REMARK VINA RESULT:      -4.7     13.643     15.282
REMARK  5 active torsions:
REMARK  status: ('A' for Active; 'I' for Inactive)
REMARK    1  A    between atoms: O_1  and  C_7 
REMARK    2  A    between atoms: O_2  and  C_11 
REMARK    3  A    between atoms: N_3  and  C_5 
REMARK    4  A    between atoms: C_4  and  C_5 
REMARK    5  A    between atoms: C_4  and  C_6 
ROOT
HETATM    1  C   UNK N   1      26.497  26.038  -5.530  0.00  0.00    -0.020 A 
HETATM    2  C   UNK N   1      26.260  24.791  -4.880  0.00  0.00     0.075 A 
HETATM    3  C   UNK N   1      26.333  26.119  -6.917  0.00  0.00     0.047 A 
HETATM    4  C   UNK N   1      25.719  23.784  -7.041  0.00  0.00    -0.026 A 
HETATM    5  C   UNK N   1      25.949  25.025  -7.691  0.00  0.00     0.074 A 
HETATM    6  C   UNK N   1      25.874  23.692  -5.657  0.00  0.00     0.046 A 
HETATM    7  C   UNK N   1      25.314  22.546  -7.767  0.00  0.00     0.051 C 
ENDROOT
BRANCH   1   8
HETATM    8  C   UNK N   1      26.974  27.261  -4.775  0.00  0.00     0.065 C 
BRANCH   8   9
HETATM    9  C   UNK N   1      25.919  28.046  -3.985  0.00  0.00     0.074 C 
HETATM   10  C   UNK N   1      26.240  29.529  -3.911  0.00  0.00     0.032 C 
BRANCH   9  11
HETATM   11  N   UNK N   1      25.869  27.525  -2.631  0.00  0.00    -0.426 N 
HETATM   12  H   UNK N   1      26.230  26.593  -2.429  0.00  0.00     0.150 HD
HETATM   13  H   UNK N   1      25.472  28.092  -1.881  0.00  0.00     0.150 HD
ENDBRANCH   9  11
ENDBRANCH   8   9
ENDBRANCH   1   8
BRANCH   2  14
HETATM   14  O   UNK N   1      26.386  24.581  -3.543  0.00  0.00    -0.355 OA
HETATM   15  C   UNK N   1      27.458  24.009  -2.898  0.00  0.00     0.210 C 
ENDBRANCH   2  14
BRANCH   5  16
HETATM   16  O   UNK N   1      25.829  25.228  -9.030  0.00  0.00    -0.355 OA
HETATM   17  C   UNK N   1      26.819  25.654  -9.884  0.00  0.00     0.210 C 
ENDBRANCH   5  16
TORSDOF 5
ENDMDL
MODEL 6
REMARK VINA RESULT:      -4.7      2.234      3.739
REMARK  5 active torsions:
REMARK  status: ('A' for Active; 'I' for Inactive)
REMARK    1  A    between atoms: O_1  and  C_7 
REMARK    2  A    between atoms: O_2  and  C_11 
REMARK    3  A    between atoms: N_3  and  C_5 
REMARK    4  A    between atoms: C_4  and  C_5 
REMARK    5  A    between atoms: C_4  and  C_6 
ROOT
HETATM    1  C   UNK N   1      30.451  16.692   6.706  0.00  0.00    -0.020 A 
HETATM    2  C   UNK N   1      30.556  17.399   7.940  0.00  0.00     0.075 A 
HETATM    3  C   UNK N   1      31.606  16.499   5.939  0.00  0.00     0.047 A 
HETATM    4  C   UNK N   1      32.954  17.683   7.560  0.00  0.00    -0.026 A 
HETATM    5  C   UNK N   1      32.855  16.975   6.333  0.00  0.00     0.074 A 
HETATM    6  C   UNK N   1      31.811  17.877   8.336  0.00  0.00     0.046 A 
HETATM    7  C   UNK N   1      34.235  18.245   8.076  0.00  0.00     0.051 C 
ENDROOT
BRANCH   1   8
HETATM    8  C   UNK N   1      29.125  16.193   6.174  0.00  0.00     0.065 C 
BRANCH   8   9
HETATM    9  C   UNK N   1      28.170  17.242   5.591  0.00  0.00     0.074 C 
HETATM   10  C   UNK N   1      28.909  18.376   4.902  0.00  0.00     0.032 C 
BRANCH   9  11
HETATM   11  N   UNK N   1      27.381  17.805   6.671  0.00  0.00    -0.426 N 
HETATM   12  H   UNK N   1      27.755  18.570   7.232  0.00  0.00     0.150 HD
HETATM   13  H   UNK N   1      26.451  17.434   6.870  0.00  0.00     0.150 HD
ENDBRANCH   9  11
ENDBRANCH   8   9
ENDBRANCH   1   8
BRANCH   2  14
HETATM   14  O   UNK N   1      29.513  17.653   8.774  0.00  0.00    -0.355 OA
HETATM   15  C   UNK N   1      29.497  18.544   9.822  0.00  0.00     0.210 C 
ENDBRANCH   2  14
BRANCH   5  16
HETATM   16  O   UNK N   1      33.900  16.730   5.498  0.00  0.00    -0.355 OA
HETATM   17  C   UNK N   1      34.606  15.555   5.393  0.00  0.00     0.210 C 
ENDBRANCH   5  16
TORSDOF 5
ENDMDL
MODEL 7
REMARK VINA RESULT:      -4.6      2.572      4.583
REMARK  5 active torsions:
REMARK  status: ('A' for Active; 'I' for Inactive)
REMARK    1  A    between atoms: O_1  and  C_7 
REMARK    2  A    between atoms: O_2  and  C_11 
REMARK    3  A    between atoms: N_3  and  C_5 
REMARK    4  A    between atoms: C_4  and  C_5 
REMARK    5  A    between atoms: C_4  and  C_6 
ROOT
HETATM    1  C   UNK N   1      31.713  17.113   6.217  0.00  0.00    -0.020 A 
HETATM    2  C   UNK N   1      32.393  17.456   7.423  0.00  0.00     0.075 A 
HETATM    3  C   UNK N   1      30.316  17.196   6.183  0.00  0.00     0.047 A 
HETATM    4  C   UNK N   1      30.244  17.935   8.484  0.00  0.00    -0.026 A 
HETATM    5  C   UNK N   1      29.563  17.599   7.285  0.00  0.00     0.074 A 
HETATM    6  C   UNK N   1      31.636  17.861   8.529  0.00  0.00     0.046 A 
HETATM    7  C   UNK N   1      29.541  18.369   9.726  0.00  0.00     0.051 C 
ENDROOT
BRANCH   1   8
HETATM    8  C   UNK N   1      32.447  16.610   4.993  0.00  0.00     0.065 C 
BRANCH   8   9
HETATM    9  C   UNK N   1      31.596  16.260   3.765  0.00  0.00     0.074 C 
HETATM   10  C   UNK N   1      31.915  14.879   3.218  0.00  0.00     0.032 C 
BRANCH   9  11
HETATM   11  N   UNK N   1      31.862  17.234   2.722  0.00  0.00    -0.426 N 
HETATM   12  H   UNK N   1      32.681  17.131   2.123  0.00  0.00     0.150 HD
HETATM   13  H   UNK N   1      31.229  18.023   2.588  0.00  0.00     0.150 HD
ENDBRANCH   9  11
ENDBRANCH   8   9
ENDBRANCH   1   8
BRANCH   2  14
HETATM   14  O   UNK N   1      33.742  17.416   7.585  0.00  0.00    -0.355 OA
HETATM   15  C   UNK N   1      34.530  18.385   8.161  0.00  0.00     0.210 C 
ENDBRANCH   2  14
BRANCH   5  16
HETATM   16  O   UNK N   1      28.212  17.633   7.128  0.00  0.00    -0.355 OA
HETATM   17  C   UNK N   1      27.527  18.092   6.029  0.00  0.00     0.210 C 
ENDBRANCH   5  16
TORSDOF 5
ENDMDL
MODEL 8
REMARK VINA RESULT:      -4.6     10.938     13.294
REMARK  5 active torsions:
REMARK  status: ('A' for Active; 'I' for Inactive)
REMARK    1  A    between atoms: O_1  and  C_7 
REMARK    2  A    between atoms: O_2  and  C_11 
REMARK    3  A    between atoms: N_3  and  C_5 
REMARK    4  A    between atoms: C_4  and  C_5 
REMARK    5  A    between atoms: C_4  and  C_6 
ROOT
HETATM    1  C   UNK N   1      34.924  10.911  15.447  0.00  0.00    -0.020 A 
HETATM    2  C   UNK N   1      34.781  12.288  15.106  0.00  0.00     0.075 A 
HETATM    3  C   UNK N   1      35.154  10.568  16.785  0.00  0.00     0.047 A 
HETATM    4  C   UNK N   1      35.115  12.891  17.451  0.00  0.00    -0.026 A 
HETATM    5  C   UNK N   1      35.252  11.521  17.796  0.00  0.00     0.074 A 
HETATM    6  C   UNK N   1      34.880  13.246  16.122  0.00  0.00     0.046 A 
HETATM    7  C   UNK N   1      35.211  13.997  18.447  0.00  0.00     0.051 C 
ENDROOT
BRANCH   1   8
HETATM    8  C   UNK N   1      34.890   9.815  14.404  0.00  0.00     0.065 C 
BRANCH   8   9
HETATM    9  C   UNK N   1      36.147   9.634  13.543  0.00  0.00     0.074 C 
HETATM   10  C   UNK N   1      37.383  10.233  14.193  0.00  0.00     0.032 C 
BRANCH   9  11
HETATM   11  N   UNK N   1      35.938  10.299  12.269  0.00  0.00    -0.426 N 
HETATM   12  H   UNK N   1      36.603  10.999  11.943  0.00  0.00     0.150 HD
HETATM   13  H   UNK N   1      35.124  10.065  11.700  0.00  0.00     0.150 HD
ENDBRANCH   9  11
ENDBRANCH   8   9
ENDBRANCH   1   8
BRANCH   2  14
HETATM   14  O   UNK N   1      34.557  12.751  13.847  0.00  0.00    -0.355 OA
HETATM   15  C   UNK N   1      35.344  13.634  13.144  0.00  0.00     0.210 C 
ENDBRANCH   2  14
BRANCH   5  16
HETATM   16  O   UNK N   1      35.484  11.062  19.055  0.00  0.00    -0.355 OA
HETATM   17  C   UNK N   1      34.718  10.157  19.750  0.00  0.00     0.210 C 
ENDBRANCH   5  16
TORSDOF 5
ENDMDL
MODEL 9
REMARK VINA RESULT:      -4.5     12.333     14.365
REMARK  5 active torsions:
REMARK  status: ('A' for Active; 'I' for Inactive)
REMARK    1  A    between atoms: O_1  and  C_7 
REMARK    2  A    between atoms: O_2  and  C_11 
REMARK    3  A    between atoms: N_3  and  C_5 
REMARK    4  A    between atoms: C_4  and  C_5 
REMARK    5  A    between atoms: C_4  and  C_6 
ROOT
HETATM    1  C   UNK N   1      27.487  24.447  -4.454  0.00  0.00    -0.020 A 
HETATM    2  C   UNK N   1      26.728  24.262  -5.648  0.00  0.00     0.075 A 
HETATM    3  C   UNK N   1      27.220  25.562  -3.651  0.00  0.00     0.047 A 
HETATM    4  C   UNK N   1      25.494  26.316  -5.166  0.00  0.00    -0.026 A 
HETATM    5  C   UNK N   1      26.243  26.501  -3.975  0.00  0.00     0.074 A 
HETATM    6  C   UNK N   1      25.747  25.206  -5.972  0.00  0.00     0.046 A 
HETATM    7  C   UNK N   1      24.432  27.261  -5.617  0.00  0.00     0.051 C 
ENDROOT
BRANCH   1   8
HETATM    8  C   UNK N   1      28.606  23.508  -4.058  0.00  0.00     0.065 C 
BRANCH   8   9
HETATM    9  C   UNK N   1      29.612  24.023  -3.020  0.00  0.00     0.074 C 
HETATM   10  C   UNK N   1      30.970  24.320  -3.632  0.00  0.00     0.032 C 
BRANCH   9  11
HETATM   11  N   UNK N   1      29.787  23.007  -1.998  0.00  0.00    -0.426 N 
HETATM   12  H   UNK N   1      30.696  22.561  -1.872  0.00  0.00     0.150 HD
HETATM   13  H   UNK N   1      29.002  22.740  -1.405  0.00  0.00     0.150 HD
ENDBRANCH   9  11
ENDBRANCH   8   9
ENDBRANCH   1   8
BRANCH   2  14
HETATM   14  O   UNK N   1      26.890  23.224  -6.511  0.00  0.00    -0.355 OA
HETATM   15  C   UNK N   1      25.898  22.567  -7.202  0.00  0.00     0.210 C 
ENDBRANCH   2  14
BRANCH   5  16
HETATM   16  O   UNK N   1      26.083  27.545  -3.117  0.00  0.00    -0.355 OA
HETATM   17  C   UNK N   1      26.821  28.704  -3.093  0.00  0.00     0.210 C 
ENDBRANCH   5  16
TORSDOF 5
ENDMDL
