MODEL 1
REMARK VINA RESULT:      -5.2      0.000      0.000
REMARK  6 active torsions:
REMARK  status: ('A' for Active; 'I' for Inactive)
REMARK    1  A    between atoms: N_3  and  C_4 
REMARK    2  A    between atoms: N_3  and  C_5 
REMARK    3  A    between atoms: N_3  and  C_6 
REMARK    4  A    between atoms: C_4  and  C_7 
REMARK    5  A    between atoms: C_9  and  C_12 
REMARK    6  A    between atoms: C_9  and  C_13 
ROOT
HETATM    1  C   UNK N   1      30.369  17.346   7.277  0.00  0.00     0.022 C 
HETATM    2  C   UNK N   1      31.569  17.085   6.719  0.00  0.00    -0.004 C 
ENDROOT
BRANCH   2   3
HETATM    3  C   UNK N   1      31.741  16.730   5.264  0.00  0.00     0.016 A 
HETATM    4  S   UNK N   1      31.528  15.236   4.575  0.00  0.00    -0.101 SA
HETATM    5  C   UNK N   1      31.861  15.579   2.989  0.00  0.00     0.050 A 
HETATM    6  C   UNK N   1      32.167  16.943   2.952  0.00  0.00     0.008 A 
HETATM    7  C   UNK N   1      32.104  17.588   4.221  0.00  0.00     0.020 A 
ENDBRANCH   2   3
BRANCH   2   8
HETATM    8  C   UNK N   1      32.751  17.181   7.625  0.00  0.00     0.016 A 
HETATM    9  S   UNK N   1      33.143  16.090   8.816  0.00  0.00    -0.101 SA
HETATM   10  C   UNK N   1      34.506  16.802   9.434  0.00  0.00     0.050 A 
HETATM   11  C   UNK N   1      34.699  17.971   8.688  0.00  0.00     0.008 A 
HETATM   12  C   UNK N   1      33.717  18.185   7.678  0.00  0.00     0.020 A 
ENDBRANCH   2   8
BRANCH   1  13
HETATM   13  C   UNK N   1      28.990  17.352   6.654  0.00  0.00     0.242 C 
HETATM   14  C   UNK N   1      27.950  17.086   7.738  0.00  0.00     0.047 C 
BRANCH  13  15
HETATM   15  N   UNK N   1      28.691  18.658   6.042  0.00  0.00     0.095 N 
BRANCH  15  16
HETATM   16  C   UNK N   1      27.843  18.522   4.857  0.00  0.00     0.268 C 
HETATM   17  C   UNK N   1      28.364  17.387   3.995  0.00  0.00     0.037 C 
ENDBRANCH  15  16
BRANCH  15  18
HETATM   18  C   UNK N   1      27.942  19.456   7.009  0.00  0.00     0.268 C 
HETATM   19  C   UNK N   1      27.313  20.659   6.329  0.00  0.00     0.037 C 
ENDBRANCH  15  18
ENDBRANCH  13  15
ENDBRANCH   1  13
TORSDOF 6
ENDMDL
MODEL 2
REMARK VINA RESULT:      -5.2      2.294      5.515
REMARK  6 active torsions:
REMARK  status: ('A' for Active; 'I' for Inactive)
REMARK    1  A    between atoms: N_3  and  C_4 
REMARK    2  A    between atoms: N_3  and  C_5 
REMARK    3  A    between atoms: N_3  and  C_6 
REMARK    4  A    between atoms: C_4  and  C_7 
REMARK    5  A    between atoms: C_9  and  C_12 
REMARK    6  A    between atoms: C_9  and  C_13 
ROOT
HETATM    1  C   UNK N   1      32.633  17.391   7.894  0.00  0.00     0.022 C 
HETATM    2  C   UNK N   1      31.631  17.177   7.016  0.00  0.00    -0.004 C 
ENDROOT
BRANCH   2   3
HETATM    3  C   UNK N   1      31.864  16.800   5.576  0.00  0.00     0.016 A 
HETATM    4  S   UNK N   1      31.671  15.297   4.898  0.00  0.00    -0.101 SA
HETATM    5  C   UNK N   1      32.077  15.616   3.324  0.00  0.00     0.050 A 
HETATM    6  C   UNK N   1      32.396  16.977   3.282  0.00  0.00     0.008 A 
HETATM    7  C   UNK N   1      32.280  17.640   4.538  0.00  0.00     0.020 A 
ENDBRANCH   2   3
BRANCH   2   8
HETATM    8  C   UNK N   1      30.245  17.319   7.552  0.00  0.00     0.016 A 
HETATM    9  S   UNK N   1      29.855  17.705   9.121  0.00  0.00    -0.101 SA
HETATM   10  C   UNK N   1      28.200  17.664   9.033  0.00  0.00     0.050 A 
HETATM   11  C   UNK N   1      27.895  17.330   7.709  0.00  0.00     0.008 A 
HETATM   12  C   UNK N   1      29.038  17.134   6.880  0.00  0.00     0.020 A 
ENDBRANCH   2   8
BRANCH   1  13
HETATM   13  C   UNK N   1      34.130  17.318   7.692  0.00  0.00     0.242 C 
HETATM   14  C   UNK N   1      34.774  18.575   8.269  0.00  0.00     0.047 C 
BRANCH  13  15
HETATM   15  N   UNK N   1      34.703  16.150   8.384  0.00  0.00     0.095 N 
BRANCH  15  16
HETATM   16  C   UNK N   1      33.958  15.818   9.599  0.00  0.00     0.268 C 
HETATM   17  C   UNK N   1      34.921  15.729  10.769  0.00  0.00     0.037 C 
ENDBRANCH  15  16
BRANCH  15  18
HETATM   18  C   UNK N   1      34.600  14.996   7.496  0.00  0.00     0.268 C 
HETATM   19  C   UNK N   1      35.263  15.294   6.162  0.00  0.00     0.037 C 
ENDBRANCH  15  18
ENDBRANCH  13  15
ENDBRANCH   1  13
TORSDOF 6
ENDMDL
MODEL 3
REMARK VINA RESULT:      -5.0      2.365      5.615
REMARK  6 active torsions:
REMARK  status: ('A' for Active; 'I' for Inactive)
REMARK    1  A    between atoms: N_3  and  C_4 
REMARK    2  A    between atoms: N_3  and  C_5 
REMARK    3  A    between atoms: N_3  and  C_6 
REMARK    4  A    between atoms: C_4  and  C_7 
REMARK    5  A    between atoms: C_9  and  C_12 
REMARK    6  A    between atoms: C_9  and  C_13 
ROOT
HETATM    1  C   UNK N   1      32.476  17.079   7.820  0.00  0.00     0.022 C 
HETATM    2  C   UNK N   1      31.647  16.910   6.769  0.00  0.00    -0.004 C 
ENDROOT
BRANCH   2   3
HETATM    3  C   UNK N   1      32.133  16.565   5.385  0.00  0.00     0.016 A 
HETATM    4  S   UNK N   1      32.258  15.047   4.725  0.00  0.00    -0.101 SA
HETATM    5  C   UNK N   1      32.830  15.415   3.215  0.00  0.00     0.050 A 
HETATM    6  C   UNK N   1      32.950  16.809   3.183  0.00  0.00     0.008 A 
HETATM    7  C   UNK N   1      32.564  17.453   4.394  0.00  0.00     0.020 A 
ENDBRANCH   2   3
BRANCH   2   8
HETATM    8  C   UNK N   1      30.189  17.068   7.048  0.00  0.00     0.016 A 
HETATM    9  S   UNK N   1      28.963  16.764   5.968  0.00  0.00    -0.101 SA
HETATM   10  C   UNK N   1      27.648  17.165   6.893  0.00  0.00     0.050 A 
HETATM   11  C   UNK N   1      28.159  17.570   8.132  0.00  0.00     0.008 A 
HETATM   12  C   UNK N   1      29.581  17.518   8.219  0.00  0.00     0.020 A 
ENDBRANCH   2   8
BRANCH   1  13
HETATM   13  C   UNK N   1      33.984  16.980   7.892  0.00  0.00     0.242 C 
HETATM   14  C   UNK N   1      34.565  18.366   8.150  0.00  0.00     0.047 C 
BRANCH  13  15
HETATM   15  N   UNK N   1      34.405  16.093   8.991  0.00  0.00     0.095 N 
BRANCH  15  16
HETATM   16  C   UNK N   1      35.370  15.090   8.542  0.00  0.00     0.268 C 
HETATM   17  C   UNK N   1      35.294  14.963   7.031  0.00  0.00     0.037 C 
ENDBRANCH  15  16
BRANCH  15  18
HETATM   18  C   UNK N   1      35.078  16.905  10.001  0.00  0.00     0.268 C 
HETATM   19  C   UNK N   1      35.521  16.040  11.167  0.00  0.00     0.037 C 
ENDBRANCH  15  18
ENDBRANCH  13  15
ENDBRANCH   1  13
TORSDOF 6
ENDMDL
MODEL 4
REMARK VINA RESULT:      -4.9      1.261      4.178
REMARK  6 active torsions:
REMARK  status: ('A' for Active; 'I' for Inactive)
REMARK    1  A    between atoms: N_3  and  C_4 
REMARK    2  A    between atoms: N_3  and  C_5 
REMARK    3  A    between atoms: N_3  and  C_6 
REMARK    4  A    between atoms: C_4  and  C_7 
REMARK    5  A    between atoms: C_9  and  C_12 
REMARK    6  A    between atoms: C_9  and  C_13 
ROOT
HETATM    1  C   UNK N   1      30.495  17.210   6.987  0.00  0.00     0.022 C 
HETATM    2  C   UNK N   1      31.783  16.868   6.772  0.00  0.00    -0.004 C 
ENDROOT
BRANCH   2   3
HETATM    3  C   UNK N   1      32.764  16.614   7.888  0.00  0.00     0.016 A 
HETATM    4  S   UNK N   1      32.855  15.260   8.842  0.00  0.00    -0.101 SA
HETATM    5  C   UNK N   1      34.138  15.654   9.813  0.00  0.00     0.050 A 
HETATM    6  C   UNK N   1      34.551  16.924   9.400  0.00  0.00     0.008 A 
HETATM    7  C   UNK N   1      33.784  17.464   8.327  0.00  0.00     0.020 A 
ENDBRANCH   2   3
BRANCH   2   8
HETATM    8  C   UNK N   1      32.199  16.734   5.345  0.00  0.00     0.016 A 
HETATM    9  S   UNK N   1      33.289  15.624   4.760  0.00  0.00    -0.101 SA
HETATM   10  C   UNK N   1      33.306  16.042   3.156  0.00  0.00     0.050 A 
HETATM   11  C   UNK N   1      32.416  17.115   3.031  0.00  0.00     0.008 A 
HETATM   12  C   UNK N   1      31.798  17.504   4.255  0.00  0.00     0.020 A 
ENDBRANCH   2   8
BRANCH   1  13
HETATM   13  C   UNK N   1      29.750  17.415   8.287  0.00  0.00     0.242 C 
HETATM   14  C   UNK N   1      30.348  18.610   9.023  0.00  0.00     0.047 C 
BRANCH  13  15
HETATM   15  N   UNK N   1      28.324  17.693   8.043  0.00  0.00     0.095 N 
BRANCH  15  16
HETATM   16  C   UNK N   1      28.044  19.129   8.027  0.00  0.00     0.268 C 
HETATM   17  C   UNK N   1      27.701  19.559   6.612  0.00  0.00     0.037 C 
ENDBRANCH  15  16
BRANCH  15  18
HETATM   18  C   UNK N   1      27.978  17.180   6.720  0.00  0.00     0.268 C 
HETATM   19  C   UNK N   1      26.952  16.067   6.836  0.00  0.00     0.037 C 
ENDBRANCH  15  18
ENDBRANCH  13  15
ENDBRANCH   1  13
TORSDOF 6
ENDMDL
MODEL 5
REMARK VINA RESULT:      -4.8     12.120     14.788
REMARK  6 active torsions:
REMARK  status: ('A' for Active; 'I' for Inactive)
REMARK    1  A    between atoms: N_3  and  C_4 
REMARK    2  A    between atoms: N_3  and  C_5 
REMARK    3  A    between atoms: N_3  and  C_6 
REMARK    4  A    between atoms: C_4  and  C_7 
REMARK    5  A    between atoms: C_9  and  C_12 
REMARK    6  A    between atoms: C_9  and  C_13 
ROOT
HETATM    1  C   UNK N   1      28.277  23.852  -5.448  0.00  0.00     0.022 C 
HETATM    2  C   UNK N   1      27.063  24.097  -5.984  0.00  0.00    -0.004 C 
ENDROOT
BRANCH   2   3
HETATM    3  C   UNK N   1      26.398  23.173  -6.972  0.00  0.00     0.016 A 
HETATM    4  S   UNK N   1      26.772  23.001  -8.579  0.00  0.00    -0.101 SA
HETATM    5  C   UNK N   1      25.680  21.838  -9.026  0.00  0.00     0.050 A 
HETATM    6  C   UNK N   1      24.950  21.538  -7.871  0.00  0.00     0.008 A 
HETATM    7  C   UNK N   1      25.347  22.284  -6.723  0.00  0.00     0.020 A 
ENDBRANCH   2   3
BRANCH   2   8
HETATM    8  C   UNK N   1      26.385  25.347  -5.533  0.00  0.00     0.016 A 
HETATM    9  S   UNK N   1      26.651  26.118  -4.084  0.00  0.00    -0.101 SA
HETATM   10  C   UNK N   1      25.580  27.376  -4.218  0.00  0.00     0.050 A 
HETATM   11  C   UNK N   1      24.955  27.218  -5.460  0.00  0.00     0.008 A 
HETATM   12  C   UNK N   1      25.403  26.082  -6.196  0.00  0.00     0.020 A 
ENDBRANCH   2   8
BRANCH   1  13
HETATM   13  C   UNK N   1      29.219  22.689  -5.671  0.00  0.00     0.242 C 
HETATM   14  C   UNK N   1      30.302  23.105  -6.661  0.00  0.00     0.047 C 
BRANCH  13  15
HETATM   15  N   UNK N   1      29.876  22.290  -4.414  0.00  0.00     0.095 N 
BRANCH  15  16
HETATM   16  C   UNK N   1      31.259  21.867  -4.633  0.00  0.00     0.268 C 
HETATM   17  C   UNK N   1      31.374  20.375  -4.379  0.00  0.00     0.037 C 
ENDBRANCH  15  16
BRANCH  15  18
HETATM   18  C   UNK N   1      29.923  23.453  -3.533  0.00  0.00     0.268 C 
HETATM   19  C   UNK N   1      29.827  23.022  -2.080  0.00  0.00     0.037 C 
ENDBRANCH  15  18
ENDBRANCH  13  15
ENDBRANCH   1  13
TORSDOF 6
ENDMDL
MODEL 6
REMARK VINA RESULT:      -4.8      2.167      5.293
REMARK  6 active torsions:
REMARK  status: ('A' for Active; 'I' for Inactive)
REMARK    1  A    between atoms: N_3  and  C_4 
REMARK    2  A    between atoms: N_3  and  C_5 
REMARK    3  A    between atoms: N_3  and  C_6 
REMARK    4  A    between atoms: C_4  and  C_7 
REMARK    5  A    between atoms: C_9  and  C_12 
REMARK    6  A    between atoms: C_9  and  C_13 
ROOT
HETATM    1  C   UNK N   1      31.138  15.616   6.368  0.00  0.00     0.022 C 
HETATM    2  C   UNK N   1      31.285  16.561   7.320  0.00  0.00    -0.004 C 
ENDROOT
BRANCH   2   3
HETATM    3  C   UNK N   1      32.613  16.897   7.948  0.00  0.00     0.016 A 
HETATM    4  S   UNK N   1      33.454  15.980   9.045  0.00  0.00    -0.101 SA
HETATM    5  C   UNK N   1      34.792  16.928   9.277  0.00  0.00     0.050 A 
HETATM    6  C   UNK N   1      34.608  18.051   8.464  0.00  0.00     0.008 A 
HETATM    7  C   UNK N   1      33.391  18.037   7.722  0.00  0.00     0.020 A 
ENDBRANCH   2   3
BRANCH   2   8
HETATM    8  C   UNK N   1      30.045  17.287   7.724  0.00  0.00     0.016 A 
HETATM    9  S   UNK N   1      29.573  17.590   9.289  0.00  0.00    -0.101 SA
HETATM   10  C   UNK N   1      28.140  18.378   9.018  0.00  0.00     0.050 A 
HETATM   11  C   UNK N   1      27.986  18.427   7.627  0.00  0.00     0.008 A 
HETATM   12  C   UNK N   1      29.050  17.815   6.903  0.00  0.00     0.020 A 
ENDBRANCH   2   8
BRANCH   1  13
HETATM   13  C   UNK N   1      32.170  14.715   5.728  0.00  0.00     0.242 C 
HETATM   14  C   UNK N   1      31.538  13.358   5.435  0.00  0.00     0.047 C 
BRANCH  13  15
HETATM   15  N   UNK N   1      32.651  15.281   4.455  0.00  0.00     0.095 N 
BRANCH  15  16
HETATM   16  C   UNK N   1      31.721  16.274   3.915  0.00  0.00     0.268 C 
HETATM   17  C   UNK N   1      32.441  17.602   3.758  0.00  0.00     0.037 C 
ENDBRANCH  15  16
BRANCH  15  18
HETATM   18  C   UNK N   1      33.910  15.975   4.709  0.00  0.00     0.268 C 
HETATM   19  C   UNK N   1      34.845  15.094   5.519  0.00  0.00     0.037 C 
ENDBRANCH  15  18
ENDBRANCH  13  15
ENDBRANCH   1  13
TORSDOF 6
ENDMDL
MODEL 7
REMARK VINA RESULT:      -4.7      1.230      1.983
REMARK  6 active torsions:
REMARK  status: ('A' for Active; 'I' for Inactive)
REMARK    1  A    between atoms: N_3  and  C_4 
REMARK    2  A    between atoms: N_3  and  C_5 
REMARK    3  A    between atoms: N_3  and  C_6 
REMARK    4  A    between atoms: C_4  and  C_7 
REMARK    5  A    between atoms: C_9  and  C_12 
REMARK    6  A    between atoms: C_9  and  C_13 
ROOT
HETATM    1  C   UNK N   1      30.620  17.095   6.981  0.00  0.00     0.022 C 
HETATM    2  C   UNK N   1      31.884  16.777   6.629  0.00  0.00    -0.004 C 
ENDROOT
BRANCH   2   3
HETATM    3  C   UNK N   1      32.298  16.510   5.205  0.00  0.00     0.016 A 
HETATM    4  S   UNK N   1      32.611  15.031   4.521  0.00  0.00    -0.101 SA
HETATM    5  C   UNK N   1      32.984  15.481   2.971  0.00  0.00     0.050 A 
HETATM    6  C   UNK N   1      32.873  16.875   2.944  0.00  0.00     0.008 A 
HETATM    7  C   UNK N   1      32.493  17.453   4.190  0.00  0.00     0.020 A 
ENDBRANCH   2   3
BRANCH   2   8
HETATM    8  C   UNK N   1      32.880  16.713   7.738  0.00  0.00     0.016 A 
HETATM    9  S   UNK N   1      34.035  17.863   8.062  0.00  0.00    -0.101 SA
HETATM   10  C   UNK N   1      34.791  17.165   9.362  0.00  0.00     0.050 A 
HETATM   11  C   UNK N   1      34.127  15.953   9.587  0.00  0.00     0.008 A 
HETATM   12  C   UNK N   1      33.059  15.698   8.678  0.00  0.00     0.020 A 
ENDBRANCH   2   8
BRANCH   1  13
HETATM   13  C   UNK N   1      29.386  17.258   6.122  0.00  0.00     0.242 C 
HETATM   14  C   UNK N   1      28.824  15.879   5.789  0.00  0.00     0.047 C 
BRANCH  13  15
HETATM   15  N   UNK N   1      28.342  18.019   6.832  0.00  0.00     0.095 N 
BRANCH  15  16
HETATM   16  C   UNK N   1      28.835  18.571   8.094  0.00  0.00     0.268 C 
HETATM   17  C   UNK N   1      28.081  17.934   9.248  0.00  0.00     0.037 C 
ENDBRANCH  15  16
BRANCH  15  18
HETATM   18  C   UNK N   1      27.956  19.152   5.997  0.00  0.00     0.268 C 
HETATM   19  C   UNK N   1      26.651  18.859   5.277  0.00  0.00     0.037 C 
ENDBRANCH  15  18
ENDBRANCH  13  15
ENDBRANCH   1  13
TORSDOF 6
ENDMDL
MODEL 8
REMARK VINA RESULT:      -4.7      2.432      5.677
REMARK  6 active torsions:
REMARK  status: ('A' for Active; 'I' for Inactive)
REMARK    1  A    between atoms: N_3  and  C_4 
REMARK    2  A    between atoms: N_3  and  C_5 
REMARK    3  A    between atoms: N_3  and  C_6 
REMARK    4  A    between atoms: C_4  and  C_7 
REMARK    5  A    between atoms: C_9  and  C_12 
REMARK    6  A    between atoms: C_9  and  C_13 
ROOT
HETATM    1  C   UNK N   1      31.347  15.677   6.424  0.00  0.00     0.022 C 
HETATM    2  C   UNK N   1      31.473  16.372   7.574  0.00  0.00    -0.004 C 
ENDROOT
BRANCH   2   3
HETATM    3  C   UNK N   1      32.707  16.318   8.437  0.00  0.00     0.016 A 
HETATM    4  S   UNK N   1      33.889  17.477   8.554  0.00  0.00    -0.101 SA
HETATM    5  C   UNK N   1      34.898  16.776   9.665  0.00  0.00     0.050 A 
HETATM    6  C   UNK N   1      34.310  15.549   9.991  0.00  0.00     0.008 A 
HETATM    7  C   UNK N   1      33.088  15.290   9.305  0.00  0.00     0.020 A 
ENDBRANCH   2   3
BRANCH   2   8
HETATM    8  C   UNK N   1      30.312  17.228   7.956  0.00  0.00     0.016 A 
HETATM    9  S   UNK N   1      29.086  17.699   6.936  0.00  0.00    -0.101 SA
HETATM   10  C   UNK N   1      28.183  18.629   7.969  0.00  0.00     0.050 A 
HETATM   11  C   UNK N   1      28.851  18.595   9.199  0.00  0.00     0.008 A 
HETATM   12  C   UNK N   1      30.042  17.813   9.192  0.00  0.00     0.020 A 
ENDBRANCH   2   8
BRANCH   1  13
HETATM   13  C   UNK N   1      32.321  14.739   5.746  0.00  0.00     0.242 C 
HETATM   14  C   UNK N   1      31.544  13.747   4.887  0.00  0.00     0.047 C 
BRANCH  13  15
HETATM   15  N   UNK N   1      33.247  15.479   4.870  0.00  0.00     0.095 N 
BRANCH  15  16
HETATM   16  C   UNK N   1      34.541  14.805   4.753  0.00  0.00     0.268 C 
HETATM   17  C   UNK N   1      35.341  15.033   6.023  0.00  0.00     0.037 C 
ENDBRANCH  15  16
BRANCH  15  18
HETATM   18  C   UNK N   1      32.671  15.523   3.529  0.00  0.00     0.268 C 
HETATM   19  C   UNK N   1      32.461  16.962   3.091  0.00  0.00     0.037 C 
ENDBRANCH  15  18
ENDBRANCH  13  15
ENDBRANCH   1  13
TORSDOF 6
ENDMDL
MODEL 9
REMARK VINA RESULT:      -4.7      2.428      4.655
REMARK  6 active torsions:
REMARK  status: ('A' for Active; 'I' for Inactive)
REMARK    1  A    between atoms: N_3  and  C_4 
REMARK    2  A    between atoms: N_3  and  C_5 
REMARK    3  A    between atoms: N_3  and  C_6 
REMARK    4  A    between atoms: C_4  and  C_7 
REMARK    5  A    between atoms: C_9  and  C_12 
REMARK    6  A    between atoms: C_9  and  C_13 
ROOT
HETATM    1  C   UNK N   1      28.602  16.734   3.850  0.00  0.00     0.022 C 
HETATM    2  C   UNK N   1      29.172  17.653   4.657  0.00  0.00    -0.004 C 
ENDROOT
BRANCH   2   3
HETATM    3  C   UNK N   1      28.415  18.816   5.244  0.00  0.00     0.016 A 
HETATM    4  S   UNK N   1      27.924  18.989   6.819  0.00  0.00    -0.101 SA
HETATM    5  C   UNK N   1      27.185  20.470   6.750  0.00  0.00     0.050 A 
HETATM    6  C   UNK N   1      27.303  20.892   5.422  0.00  0.00     0.008 A 
HETATM    7  C   UNK N   1      27.986  19.969   4.578  0.00  0.00     0.020 A 
ENDBRANCH   2   3
BRANCH   2   8
HETATM    8  C   UNK N   1      30.619  17.453   4.962  0.00  0.00     0.016 A 
HETATM    9  S   UNK N   1      31.230  16.873   6.395  0.00  0.00    -0.101 SA
HETATM   10  C   UNK N   1      32.854  16.936   6.071  0.00  0.00     0.050 A 
HETATM   11  C   UNK N   1      32.967  17.439   4.770  0.00  0.00     0.008 A 
HETATM   12  C   UNK N   1      31.717  17.731   4.149  0.00  0.00     0.020 A 
ENDBRANCH   2   8
BRANCH   1  13
HETATM   13  C   UNK N   1      27.176  16.628   3.357  0.00  0.00     0.242 C 
HETATM   14  C   UNK N   1      26.999  15.305   2.618  0.00  0.00     0.047 C 
BRANCH  13  15
HETATM   15  N   UNK N   1      26.222  16.657   4.480  0.00  0.00     0.095 N 
BRANCH  15  16
HETATM   16  C   UNK N   1      24.886  17.069   4.049  0.00  0.00     0.268 C 
HETATM   17  C   UNK N   1      24.564  18.428   4.645  0.00  0.00     0.037 C 
ENDBRANCH  15  16
BRANCH  15  18
HETATM   18  C   UNK N   1      26.098  15.303   5.009  0.00  0.00     0.268 C 
HETATM   19  C   UNK N   1      26.301  15.301   6.514  0.00  0.00     0.037 C 
ENDBRANCH  15  18
ENDBRANCH  13  15
ENDBRANCH   1  13
TORSDOF 6
ENDMDL
