REMARK  6 active torsions:
REMARK  status: ('A' for Active; 'I' for Inactive)
REMARK    1  A    between atoms: N_3  and  C_4 
REMARK    2  A    between atoms: N_3  and  C_5 
REMARK    3  A    between atoms: N_3  and  C_6 
REMARK    4  A    between atoms: C_4  and  C_7 
REMARK    5  A    between atoms: C_9  and  C_12 
REMARK    6  A    between atoms: C_9  and  C_13 
ROOT
HETATM    1  C   UNK N   1       3.675   0.116  -0.101  0.00  0.00     0.022 C 
HETATM    2  C   UNK N   1       4.779  -0.658  -0.042  0.00  0.00    -0.004 C 
ENDROOT
BRANCH   2   3
HETATM    3  C   UNK N   1       6.171  -0.097   0.093  0.00  0.00     0.016 A 
HETATM    4  S   UNK N   1       7.594  -0.949   0.050  0.00  0.00    -0.101 SA
HETATM    5  C   UNK N   1       8.692   0.277   0.240  0.00  0.00     0.050 A 
HETATM    6  C   UNK N   1       7.937   1.449   0.353  0.00  0.00     0.008 A 
HETATM    7  C   UNK N   1       6.529   1.243   0.274  0.00  0.00     0.020 A 
ENDBRANCH   2   3
BRANCH   2   8
HETATM    8  C   UNK N   1       4.553  -2.132  -0.103  0.00  0.00     0.016 A 
HETATM    9  S   UNK N   1       3.070  -2.875  -0.212  0.00  0.00    -0.101 SA
HETATM   10  C   UNK N   1       3.535  -4.466  -0.205  0.00  0.00     0.050 A 
HETATM   11  C   UNK N   1       4.932  -4.457  -0.111  0.00  0.00     0.008 A 
HETATM   12  C   UNK N   1       5.502  -3.152  -0.052  0.00  0.00     0.020 A 
ENDBRANCH   2   8
BRANCH   1  13
HETATM   13  C   UNK N   1       3.543   1.622  -0.053  0.00  0.00     0.242 C 
HETATM   14  C   UNK N   1       4.221   2.223  -1.280  0.00  0.00     0.047 C 
BRANCH  13  15
HETATM   15  N   UNK N   1       2.127   2.031  -0.065  0.00  0.00     0.095 N 
BRANCH  15  16
HETATM   16  C   UNK N   1       1.334   1.274   0.904  0.00  0.00     0.268 C 
HETATM   17  C   UNK N   1       0.063   0.781   0.236  0.00  0.00     0.037 C 
ENDBRANCH  15  16
BRANCH  15  18
HETATM   18  C   UNK N   1       2.053   3.434   0.331  0.00  0.00     0.268 C 
HETATM   19  C   UNK N   1       0.813   4.085  -0.256  0.00  0.00     0.037 C 
ENDBRANCH  15  18
ENDBRANCH  13  15
ENDBRANCH   1  13
TORSDOF 6
