MODEL 1
REMARK VINA RESULT:      -4.5      0.000      0.000
REMARK  7 active torsions:
REMARK  status: ('A' for Active; 'I' for Inactive)
REMARK    1  A    between atoms: O_4  and  C_9 
REMARK    2  A    between atoms: O_4  and  C_13 
REMARK    3  A    between atoms: O_5  and  C_7 
REMARK    4  A    between atoms: O_6  and  C_13 
REMARK    5  A    between atoms: C_7  and  C_8 
REMARK    6  A    between atoms: C_8  and  C_9 
REMARK    7  A    between atoms: C_13  and  C_14 
ROOT
HETATM    1  O   UNK N   1      36.559  13.665  12.576  0.00  0.00    -0.352 OA
ENDROOT
BRANCH   1   2
HETATM    2  C   UNK N   1      35.812  13.307  11.448  0.00  0.00     0.123 C 
HETATM    3  C   UNK N   1      36.502  12.146  10.747  0.00  0.00     0.040 C 
BRANCH   2   4
HETATM    4  C   UNK N   1      35.699  14.520  10.516  0.00  0.00     0.068 C 
BRANCH   4   5
HETATM    5  C   UNK N   1      34.277  14.908  10.083  0.00  0.00     0.053 C 
HETATM    6  C   UNK N   1      33.715  13.882   9.118  0.00  0.00     0.045 C 
HETATM    7  C   UNK N   1      34.235  16.281   9.437  0.00  0.00     0.045 C 
BRANCH   5   8
HETATM    8  O   UNK N   1      33.467  14.940  11.217  0.00  0.00    -0.391 OA
HETATM    9  H   UNK N   1      32.954  14.312  11.751  0.00  0.00     0.210 HD
ENDBRANCH   5   8
ENDBRANCH   4   5
ENDBRANCH   2   4
ENDBRANCH   1   2
BRANCH   1  10
HETATM   10  C   UNK N   1      35.628  13.853  13.613  0.00  0.00     0.311 C 
BRANCH  10  11
HETATM   11  O   UNK N   1      34.482  13.102  13.345  0.00  0.00    -0.367 OA
HETATM   12  H   UNK N   1      33.584  13.466  13.398  0.00  0.00     0.212 HD
ENDBRANCH  10  11
BRANCH  10  13
HETATM   13  C   UNK N   1      36.224  13.455  14.966  0.00  0.00     0.237 C 
HETATM   14 Cl   UNK N   1      37.202  14.803  15.607  0.00  0.00    -0.078 Cl
HETATM   15 Cl   UNK N   1      34.939  13.071  16.143  0.00  0.00    -0.078 Cl
HETATM   16 Cl   UNK N   1      37.285  12.037  14.781  0.00  0.00    -0.078 Cl
ENDBRANCH  10  13
ENDBRANCH   1  10
TORSDOF 7
ENDMDL
MODEL 2
REMARK VINA RESULT:      -4.5     19.742     21.839
REMARK  7 active torsions:
REMARK  status: ('A' for Active; 'I' for Inactive)
REMARK    1  A    between atoms: O_4  and  C_9 
REMARK    2  A    between atoms: O_4  and  C_13 
REMARK    3  A    between atoms: O_5  and  C_7 
REMARK    4  A    between atoms: O_6  and  C_13 
REMARK    5  A    between atoms: C_7  and  C_8 
REMARK    6  A    between atoms: C_8  and  C_9 
REMARK    7  A    between atoms: C_13  and  C_14 
ROOT
HETATM    1  O   UNK N   1      27.262  24.285  -4.853  0.00  0.00    -0.352 OA
ENDROOT
BRANCH   1   2
HETATM    2  C   UNK N   1      27.115  25.570  -5.388  0.00  0.00     0.123 C 
HETATM    3  C   UNK N   1      28.265  25.842  -6.347  0.00  0.00     0.040 C 
BRANCH   2   4
HETATM    4  C   UNK N   1      27.105  26.591  -4.242  0.00  0.00     0.068 C 
BRANCH   4   5
HETATM    5  C   UNK N   1      26.032  27.687  -4.325  0.00  0.00     0.053 C 
HETATM    6  C   UNK N   1      24.962  27.311  -5.333  0.00  0.00     0.045 C 
HETATM    7  C   UNK N   1      26.625  29.033  -4.701  0.00  0.00     0.045 C 
BRANCH   5   8
HETATM    8  O   UNK N   1      25.435  27.813  -3.072  0.00  0.00    -0.391 OA
HETATM    9  H   UNK N   1      25.039  27.231  -2.403  0.00  0.00     0.210 HD
ENDBRANCH   5   8
ENDBRANCH   4   5
ENDBRANCH   2   4
ENDBRANCH   1   2
BRANCH   1  10
HETATM   10  C   UNK N   1      27.756  24.462  -3.549  0.00  0.00     0.311 C 
BRANCH  10  11
HETATM   11  O   UNK N   1      26.869  23.889  -2.637  0.00  0.00    -0.367 OA
HETATM   12  H   UNK N   1      26.409  24.398  -1.951  0.00  0.00     0.212 HD
ENDBRANCH  10  11
BRANCH  10  13
HETATM   13  C   UNK N   1      29.150  23.845  -3.400  0.00  0.00     0.237 C 
HETATM   14 Cl   UNK N   1      30.382  25.135  -3.440  0.00  0.00    -0.078 Cl
HETATM   15 Cl   UNK N   1      29.297  22.962  -1.857  0.00  0.00    -0.078 Cl
HETATM   16 Cl   UNK N   1      29.475  22.723  -4.745  0.00  0.00    -0.078 Cl
ENDBRANCH  10  13
ENDBRANCH   1  10
TORSDOF 7
ENDMDL
MODEL 3
REMARK VINA RESULT:      -4.4     19.764     21.750
REMARK  7 active torsions:
REMARK  status: ('A' for Active; 'I' for Inactive)
REMARK    1  A    between atoms: O_4  and  C_9 
REMARK    2  A    between atoms: O_4  and  C_13 
REMARK    3  A    between atoms: O_5  and  C_7 
REMARK    4  A    between atoms: O_6  and  C_13 
REMARK    5  A    between atoms: C_7  and  C_8 
REMARK    6  A    between atoms: C_8  and  C_9 
REMARK    7  A    between atoms: C_13  and  C_14 
ROOT
HETATM    1  O   UNK N   1      28.182  25.828  -4.059  0.00  0.00    -0.352 OA
ENDROOT
BRANCH   1   2
HETATM    2  C   UNK N   1      28.536  24.517  -4.397  0.00  0.00     0.123 C 
HETATM    3  C   UNK N   1      27.433  23.913  -5.255  0.00  0.00     0.040 C 
BRANCH   2   4
HETATM    4  C   UNK N   1      28.737  23.705  -3.112  0.00  0.00     0.068 C 
BRANCH   4   5
HETATM    5  C   UNK N   1      30.141  23.120  -2.896  0.00  0.00     0.053 C 
HETATM    6  C   UNK N   1      31.191  23.999  -3.549  0.00  0.00     0.045 C 
HETATM    7  C   UNK N   1      30.258  21.709  -3.442  0.00  0.00     0.045 C 
BRANCH   5   8
HETATM    8  O   UNK N   1      30.392  23.075  -1.525  0.00  0.00    -0.391 OA
HETATM    9  H   UNK N   1      30.108  23.550  -0.727  0.00  0.00     0.210 HD
ENDBRANCH   5   8
ENDBRANCH   4   5
ENDBRANCH   2   4
ENDBRANCH   1   2
BRANCH   1  10
HETATM   10  C   UNK N   1      26.776  25.865  -4.068  0.00  0.00     0.311 C 
BRANCH  10  11
HETATM   11  O   UNK N   1      26.304  25.843  -2.755  0.00  0.00    -0.367 OA
HETATM   12  H   UNK N   1      25.561  25.291  -2.466  0.00  0.00     0.212 HD
ENDBRANCH  10  11
BRANCH  10  13
HETATM   13  C   UNK N   1      26.263  27.107  -4.801  0.00  0.00     0.237 C 
HETATM   14 Cl   UNK N   1      25.858  28.376  -3.613  0.00  0.00    -0.078 Cl
HETATM   15 Cl   UNK N   1      27.496  27.745  -5.921  0.00  0.00    -0.078 Cl
HETATM   16 Cl   UNK N   1      24.789  26.716  -5.721  0.00  0.00    -0.078 Cl
ENDBRANCH  10  13
ENDBRANCH   1  10
TORSDOF 7
ENDMDL
MODEL 4
REMARK VINA RESULT:      -4.4      2.121      3.177
REMARK  7 active torsions:
REMARK  status: ('A' for Active; 'I' for Inactive)
REMARK    1  A    between atoms: O_4  and  C_9 
REMARK    2  A    between atoms: O_4  and  C_13 
REMARK    3  A    between atoms: O_5  and  C_7 
REMARK    4  A    between atoms: O_6  and  C_13 
REMARK    5  A    between atoms: C_7  and  C_8 
REMARK    6  A    between atoms: C_8  and  C_9 
REMARK    7  A    between atoms: C_13  and  C_14 
ROOT
HETATM    1  O   UNK N   1      34.603  13.218  13.572  0.00  0.00    -0.352 OA
ENDROOT
BRANCH   1   2
HETATM    2  C   UNK N   1      35.753  13.791  13.014  0.00  0.00     0.123 C 
HETATM    3  C   UNK N   1      36.515  14.531  14.104  0.00  0.00     0.040 C 
BRANCH   2   4
HETATM    4  C   UNK N   1      35.341  14.747  11.888  0.00  0.00     0.068 C 
BRANCH   4   5
HETATM    5  C   UNK N   1      36.325  14.869  10.714  0.00  0.00     0.053 C 
HETATM    6  C   UNK N   1      35.575  15.004   9.402  0.00  0.00     0.045 C 
HETATM    7  C   UNK N   1      37.264  13.680  10.635  0.00  0.00     0.045 C 
BRANCH   5   8
HETATM    8  O   UNK N   1      37.094  16.016  10.904  0.00  0.00    -0.391 OA
HETATM    9  H   UNK N   1      36.955  16.937  11.178  0.00  0.00     0.210 HD
ENDBRANCH   5   8
ENDBRANCH   4   5
ENDBRANCH   2   4
ENDBRANCH   1   2
BRANCH   1  10
HETATM   10  C   UNK N   1      34.993  12.705  14.821  0.00  0.00     0.311 C 
BRANCH  10  11
HETATM   11  O   UNK N   1      34.098  13.140  15.799  0.00  0.00    -0.367 OA
HETATM   12  H   UNK N   1      34.165  12.884  16.733  0.00  0.00     0.212 HD
ENDBRANCH  10  11
BRANCH  10  13
HETATM   13  C   UNK N   1      35.054  11.175  14.793  0.00  0.00     0.237 C 
HETATM   14 Cl   UNK N   1      33.776  10.547  13.718  0.00  0.00    -0.078 Cl
HETATM   15 Cl   UNK N   1      36.636  10.608  14.192  0.00  0.00    -0.078 Cl
HETATM   16 Cl   UNK N   1      34.782  10.516  16.425  0.00  0.00    -0.078 Cl
ENDBRANCH  10  13
ENDBRANCH   1  10
TORSDOF 7
ENDMDL
MODEL 5
REMARK VINA RESULT:      -4.4      4.241      5.862
REMARK  7 active torsions:
REMARK  status: ('A' for Active; 'I' for Inactive)
REMARK    1  A    between atoms: O_4  and  C_9 
REMARK    2  A    between atoms: O_4  and  C_13 
REMARK    3  A    between atoms: O_5  and  C_7 
REMARK    4  A    between atoms: O_6  and  C_13 
REMARK    5  A    between atoms: C_7  and  C_8 
REMARK    6  A    between atoms: C_8  and  C_9 
REMARK    7  A    between atoms: C_13  and  C_14 
ROOT
HETATM    1  O   UNK N   1      32.727  16.284   9.120  0.00  0.00    -0.352 OA
ENDROOT
BRANCH   1   2
HETATM    2  C   UNK N   1      32.530  17.311   8.189  0.00  0.00     0.123 C 
HETATM    3  C   UNK N   1      31.281  18.091   8.571  0.00  0.00     0.040 C 
BRANCH   2   4
HETATM    4  C   UNK N   1      32.388  16.699   6.790  0.00  0.00     0.068 C 
BRANCH   4   5
HETATM    5  C   UNK N   1      33.506  17.035   5.790  0.00  0.00     0.053 C 
HETATM    6  C   UNK N   1      32.921  17.553   4.491  0.00  0.00     0.045 C 
HETATM    7  C   UNK N   1      34.387  15.834   5.500  0.00  0.00     0.045 C 
BRANCH   5   8
HETATM    8  O   UNK N   1      34.305  18.033   6.346  0.00  0.00    -0.391 OA
HETATM    9  H   UNK N   1      34.215  18.745   6.999  0.00  0.00     0.210 HD
ENDBRANCH   5   8
ENDBRANCH   4   5
ENDBRANCH   2   4
ENDBRANCH   1   2
BRANCH   1  10
HETATM   10  C   UNK N   1      34.118  16.184   9.298  0.00  0.00     0.311 C 
BRANCH  10  11
HETATM   11  O   UNK N   1      34.515  17.041  10.326  0.00  0.00    -0.367 OA
HETATM   12  H   UNK N   1      35.103  16.770  11.048  0.00  0.00     0.212 HD
ENDBRANCH  10  11
BRANCH  10  13
HETATM   13  C   UNK N   1      34.531  14.744   9.613  0.00  0.00     0.237 C 
HETATM   14 Cl   UNK N   1      34.604  14.517  11.382  0.00  0.00    -0.078 Cl
HETATM   15 Cl   UNK N   1      33.362  13.580   8.935  0.00  0.00    -0.078 Cl
HETATM   16 Cl   UNK N   1      36.145  14.404   8.941  0.00  0.00    -0.078 Cl
ENDBRANCH  10  13
ENDBRANCH   1  10
TORSDOF 7
ENDMDL
MODEL 6
REMARK VINA RESULT:      -4.4      1.484      2.224
REMARK  7 active torsions:
REMARK  status: ('A' for Active; 'I' for Inactive)
REMARK    1  A    between atoms: O_4  and  C_9 
REMARK    2  A    between atoms: O_4  and  C_13 
REMARK    3  A    between atoms: O_5  and  C_7 
REMARK    4  A    between atoms: O_6  and  C_13 
REMARK    5  A    between atoms: C_7  and  C_8 
REMARK    6  A    between atoms: C_8  and  C_9 
REMARK    7  A    between atoms: C_13  and  C_14 
ROOT
HETATM    1  O   UNK N   1      34.726  13.380  13.424  0.00  0.00    -0.352 OA
ENDROOT
BRANCH   1   2
HETATM    2  C   UNK N   1      35.134  13.024  12.133  0.00  0.00     0.123 C 
HETATM    3  C   UNK N   1      36.160  11.904  12.230  0.00  0.00     0.040 C 
BRANCH   2   4
HETATM    4  C   UNK N   1      35.730  14.255  11.438  0.00  0.00     0.068 C 
BRANCH   4   5
HETATM    5  C   UNK N   1      34.743  15.129  10.651  0.00  0.00     0.053 C 
HETATM    6  C   UNK N   1      34.653  14.668   9.209  0.00  0.00     0.045 C 
HETATM    7  C   UNK N   1      35.132  16.596  10.685  0.00  0.00     0.045 C 
BRANCH   5   8
HETATM    8  O   UNK N   1      33.483  15.003  11.235  0.00  0.00    -0.391 OA
HETATM    9  H   UNK N   1      32.740  15.582  11.470  0.00  0.00     0.210 HD
ENDBRANCH   5   8
ENDBRANCH   4   5
ENDBRANCH   2   4
ENDBRANCH   1   2
BRANCH   1  10
HETATM   10  C   UNK N   1      35.722  12.899  14.291  0.00  0.00     0.311 C 
BRANCH  10  11
HETATM   11  O   UNK N   1      36.482  13.971  14.762  0.00  0.00    -0.367 OA
HETATM   12  H   UNK N   1      36.567  14.812  14.287  0.00  0.00     0.212 HD
ENDBRANCH  10  11
BRANCH  10  13
HETATM   13  C   UNK N   1      35.107  12.125  15.460  0.00  0.00     0.237 C 
HETATM   14 Cl   UNK N   1      33.722  11.163  14.876  0.00  0.00    -0.078 Cl
HETATM   15 Cl   UNK N   1      36.300  11.021  16.196  0.00  0.00    -0.078 Cl
HETATM   16 Cl   UNK N   1      34.515  13.253  16.705  0.00  0.00    -0.078 Cl
ENDBRANCH  10  13
ENDBRANCH   1  10
TORSDOF 7
ENDMDL
MODEL 7
REMARK VINA RESULT:      -4.3      5.071      6.410
REMARK  7 active torsions:
REMARK  status: ('A' for Active; 'I' for Inactive)
REMARK    1  A    between atoms: O_4  and  C_9 
REMARK    2  A    between atoms: O_4  and  C_13 
REMARK    3  A    between atoms: O_5  and  C_7 
REMARK    4  A    between atoms: O_6  and  C_13 
REMARK    5  A    between atoms: C_7  and  C_8 
REMARK    6  A    between atoms: C_8  and  C_9 
REMARK    7  A    between atoms: C_13  and  C_14 
ROOT
HETATM    1  O   UNK N   1      34.541  14.781   7.625  0.00  0.00    -0.352 OA
ENDROOT
BRANCH   1   2
HETATM    2  C   UNK N   1      35.519  14.561   8.603  0.00  0.00     0.123 C 
HETATM    3  C   UNK N   1      36.609  13.672   8.022  0.00  0.00     0.040 C 
BRANCH   2   4
HETATM    4  C   UNK N   1      34.866  13.899   9.823  0.00  0.00     0.068 C 
BRANCH   4   5
HETATM    5  C   UNK N   1      34.657  14.803  11.048  0.00  0.00     0.053 C 
HETATM    6  C   UNK N   1      35.271  16.170  10.815  0.00  0.00     0.045 C 
HETATM    7  C   UNK N   1      35.248  14.196  12.308  0.00  0.00     0.045 C 
BRANCH   5   8
HETATM    8  O   UNK N   1      33.286  14.961  11.248  0.00  0.00    -0.391 OA
HETATM    9  H   UNK N   1      32.696  15.303  11.938  0.00  0.00     0.210 HD
ENDBRANCH   5   8
ENDBRANCH   4   5
ENDBRANCH   2   4
ENDBRANCH   1   2
BRANCH   1  10
HETATM   10  C   UNK N   1      34.856  16.018   7.035  0.00  0.00     0.311 C 
BRANCH  10  11
HETATM   11  O   UNK N   1      35.100  15.832   5.674  0.00  0.00    -0.367 OA
HETATM   12  H   UNK N   1      35.024  16.543   5.018  0.00  0.00     0.212 HD
ENDBRANCH  10  11
BRANCH  10  13
HETATM   13  C   UNK N   1      33.726  17.030   7.244  0.00  0.00     0.237 C 
HETATM   14 Cl   UNK N   1      32.403  16.267   8.166  0.00  0.00    -0.078 Cl
HETATM   15 Cl   UNK N   1      34.304  18.457   8.146  0.00  0.00    -0.078 Cl
HETATM   16 Cl   UNK N   1      33.076  17.561   5.673  0.00  0.00    -0.078 Cl
ENDBRANCH  10  13
ENDBRANCH   1  10
TORSDOF 7
ENDMDL
MODEL 8
REMARK VINA RESULT:      -4.3     22.706     23.880
REMARK  7 active torsions:
REMARK  status: ('A' for Active; 'I' for Inactive)
REMARK    1  A    between atoms: O_4  and  C_9 
REMARK    2  A    between atoms: O_4  and  C_13 
REMARK    3  A    between atoms: O_5  and  C_7 
REMARK    4  A    between atoms: O_6  and  C_13 
REMARK    5  A    between atoms: C_7  and  C_8 
REMARK    6  A    between atoms: C_8  and  C_9 
REMARK    7  A    between atoms: C_13  and  C_14 
ROOT
HETATM    1  O   UNK N   1      25.171  25.198  -6.427  0.00  0.00    -0.352 OA
ENDROOT
BRANCH   1   2
HETATM    2  C   UNK N   1      26.009  24.982  -7.528  0.00  0.00     0.123 C 
HETATM    3  C   UNK N   1      25.965  26.206  -8.431  0.00  0.00     0.040 C 
BRANCH   2   4
HETATM    4  C   UNK N   1      25.537  23.730  -8.278  0.00  0.00     0.068 C 
BRANCH   4   5
HETATM    5  C   UNK N   1      25.808  22.386  -7.585  0.00  0.00     0.053 C 
HETATM    6  C   UNK N   1      27.255  22.299  -7.139  0.00  0.00     0.045 C 
HETATM    7  C   UNK N   1      25.489  21.208  -8.488  0.00  0.00     0.045 C 
BRANCH   5   8
HETATM    8  O   UNK N   1      24.991  22.300  -6.459  0.00  0.00    -0.391 OA
HETATM    9  H   UNK N   1      24.800  22.831  -5.668  0.00  0.00     0.210 HD
ENDBRANCH   5   8
ENDBRANCH   4   5
ENDBRANCH   2   4
ENDBRANCH   1   2
BRANCH   1  10
HETATM   10  C   UNK N   1      25.580  26.420  -5.864  0.00  0.00     0.311 C 
BRANCH  10  11
HETATM   11  O   UNK N   1      24.457  27.199  -5.584  0.00  0.00    -0.367 OA
HETATM   12  H   UNK N   1      23.906  27.604  -6.271  0.00  0.00     0.212 HD
ENDBRANCH  10  11
BRANCH  10  13
HETATM   13  C   UNK N   1      26.404  26.192  -4.594  0.00  0.00     0.237 C 
HETATM   14 Cl   UNK N   1      28.132  26.466  -4.945  0.00  0.00    -0.078 Cl
HETATM   15 Cl   UNK N   1      25.900  27.307  -3.295  0.00  0.00    -0.078 Cl
HETATM   16 Cl   UNK N   1      26.212  24.514  -4.026  0.00  0.00    -0.078 Cl
ENDBRANCH  10  13
ENDBRANCH   1  10
TORSDOF 7
ENDMDL
MODEL 9
REMARK VINA RESULT:      -4.3      3.050      5.240
REMARK  7 active torsions:
REMARK  status: ('A' for Active; 'I' for Inactive)
REMARK    1  A    between atoms: O_4  and  C_9 
REMARK    2  A    between atoms: O_4  and  C_13 
REMARK    3  A    between atoms: O_5  and  C_7 
REMARK    4  A    between atoms: O_6  and  C_13 
REMARK    5  A    between atoms: C_7  and  C_8 
REMARK    6  A    between atoms: C_8  and  C_9 
REMARK    7  A    between atoms: C_13  and  C_14 
ROOT
HETATM    1  O   UNK N   1      34.693  13.719  12.846  0.00  0.00    -0.352 OA
ENDROOT
BRANCH   1   2
HETATM    2  C   UNK N   1      35.295  12.588  13.412  0.00  0.00     0.123 C 
HETATM    3  C   UNK N   1      35.040  11.389  12.511  0.00  0.00     0.040 C 
BRANCH   2   4
HETATM    4  C   UNK N   1      34.710  12.357  14.811  0.00  0.00     0.068 C 
BRANCH   4   5
HETATM    5  C   UNK N   1      35.691  12.503  15.984  0.00  0.00     0.053 C 
HETATM    6  C   UNK N   1      36.116  11.141  16.498  0.00  0.00     0.045 C 
HETATM    7  C   UNK N   1      35.094  13.306  17.125  0.00  0.00     0.045 C 
BRANCH   5   8
HETATM    8  O   UNK N   1      36.823  13.177  15.528  0.00  0.00    -0.391 OA
HETATM    9  H   UNK N   1      37.626  12.972  15.022  0.00  0.00     0.210 HD
ENDBRANCH   5   8
ENDBRANCH   4   5
ENDBRANCH   2   4
ENDBRANCH   1   2
BRANCH   1  10
HETATM   10  C   UNK N   1      35.745  14.581  12.491  0.00  0.00     0.311 C 
BRANCH  10  11
HETATM   11  O   UNK N   1      36.964  13.967  12.784  0.00  0.00    -0.367 OA
HETATM   12  H   UNK N   1      37.230  13.110  12.416  0.00  0.00     0.212 HD
ENDBRANCH  10  11
BRANCH  10  13
HETATM   13  C   UNK N   1      35.675  14.952  11.007  0.00  0.00     0.237 C 
HETATM   14 Cl   UNK N   1      37.172  14.427  10.189  0.00  0.00    -0.078 Cl
HETATM   15 Cl   UNK N   1      34.284  14.165  10.215  0.00  0.00    -0.078 Cl
HETATM   16 Cl   UNK N   1      35.529  16.717  10.819  0.00  0.00    -0.078 Cl
ENDBRANCH  10  13
ENDBRANCH   1  10
TORSDOF 7
ENDMDL
