MODEL 1
REMARK VINA RESULT:      -7.7      0.000      0.000
REMARK  0 active torsions:
REMARK  status: ('A' for Active; 'I' for Inactive)
ROOT
HETATM    1  O   UNK N   1      36.071  12.290  11.543  0.00  0.00    -0.297 OA
HETATM    2  O   UNK N   1      34.950   9.210  21.767  0.00  0.00    -0.293 OA
HETATM    3  C   UNK N   1      35.793  12.377  16.364  0.00  0.00    -0.004 C 
HETATM    4  C   UNK N   1      34.931  11.092  16.527  0.00  0.00     0.002 C 
HETATM    5  C   UNK N   1      35.622  12.909  14.935  0.00  0.00     0.006 C 
HETATM    6  C   UNK N   1      36.040  11.872  13.891  0.00  0.00     0.021 C 
HETATM    7  C   UNK N   1      35.217  10.446  17.908  0.00  0.00    -0.016 C 
HETATM    8  C   UNK N   1      35.158  10.075  15.377  0.00  0.00     0.007 C 
HETATM    9  C   UNK N   1      35.045  10.715  13.979  0.00  0.00     0.018 C 
HETATM   10  C   UNK N   1      35.289  13.416  17.366  0.00  0.00     0.010 C 
HETATM   11  C   UNK N   1      36.353  14.179  14.517  0.00  0.00     0.013 C 
HETATM   12  C   UNK N   1      35.108  11.463  19.042  0.00  0.00    -0.068 C 
HETATM   13  C   UNK N   1      36.013  12.730  12.681  0.00  0.00     0.135 C 
HETATM   14  C   UNK N   1      35.298  12.945  18.822  0.00  0.00     0.035 C 
HETATM   15  C   UNK N   1      36.156  14.186  12.992  0.00  0.00     0.079 C 
HETATM   16  C   UNK N   1      34.230   9.297  18.176  0.00  0.00     0.022 C 
HETATM   17  C   UNK N   1      37.473  11.352  14.051  0.00  0.00     0.024 C 
HETATM   18  C   UNK N   1      36.642   9.877  17.927  0.00  0.00     0.020 C 
HETATM   19  C   UNK N   1      34.496   8.611  19.528  0.00  0.00     0.084 C 
HETATM   20  C   UNK N   1      35.007  11.034  20.311  0.00  0.00     0.053 C 
HETATM   21  C   UNK N   1      34.829   9.599  20.617  0.00  0.00     0.149 C 
ENDROOT
TORSDOF 0
ENDMDL
MODEL 2
REMARK VINA RESULT:      -7.4     22.654     25.976
REMARK  0 active torsions:
REMARK  status: ('A' for Active; 'I' for Inactive)
ROOT
HETATM    1  O   UNK N   1      32.816  21.248  -2.367  0.00  0.00    -0.297 OA
HETATM    2  O   UNK N   1      24.726  27.203  -6.158  0.00  0.00    -0.293 OA
HETATM    3  C   UNK N   1      29.336  22.981  -5.235  0.00  0.00    -0.004 C 
HETATM    4  C   UNK N   1      28.472  23.627  -4.114  0.00  0.00     0.002 C 
HETATM    5  C   UNK N   1      30.240  21.911  -4.607  0.00  0.00     0.006 C 
HETATM    6  C   UNK N   1      31.151  22.501  -3.529  0.00  0.00     0.021 C 
HETATM    7  C   UNK N   1      27.673  24.822  -4.696  0.00  0.00    -0.016 C 
HETATM    8  C   UNK N   1      29.320  24.066  -2.889  0.00  0.00     0.007 C 
HETATM    9  C   UNK N   1      30.254  22.953  -2.377  0.00  0.00     0.018 C 
HETATM   10  C   UNK N   1      28.392  22.331  -6.246  0.00  0.00     0.010 C 
HETATM   11  C   UNK N   1      31.181  21.110  -5.498  0.00  0.00     0.013 C 
HETATM   12  C   UNK N   1      26.923  24.434  -5.969  0.00  0.00    -0.068 C 
HETATM   13  C   UNK N   1      32.042  21.335  -3.308  0.00  0.00     0.135 C 
HETATM   14  C   UNK N   1      27.359  23.287  -6.848  0.00  0.00     0.035 C 
HETATM   15  C   UNK N   1      32.079  20.398  -4.473  0.00  0.00     0.079 C 
HETATM   16  C   UNK N   1      26.661  25.345  -3.664  0.00  0.00     0.022 C 
HETATM   17  C   UNK N   1      32.029  23.663  -4.005  0.00  0.00     0.024 C 
HETATM   18  C   UNK N   1      28.636  25.963  -5.052  0.00  0.00     0.020 C 
HETATM   19  C   UNK N   1      25.863  26.549  -4.194  0.00  0.00     0.084 C 
HETATM   20  C   UNK N   1      25.942  25.228  -6.428  0.00  0.00     0.053 C 
HETATM   21  C   UNK N   1      25.461  26.380  -5.637  0.00  0.00     0.149 C 
ENDROOT
TORSDOF 0
ENDMDL
MODEL 3
REMARK VINA RESULT:      -7.2      1.898      3.925
REMARK  0 active torsions:
REMARK  status: ('A' for Active; 'I' for Inactive)
ROOT
HETATM    1  O   UNK N   1      36.753  14.403   9.195  0.00  0.00    -0.297 OA
HETATM    2  O   UNK N   1      34.980  10.961  19.209  0.00  0.00    -0.293 OA
HETATM    3  C   UNK N   1      36.790  11.703  13.200  0.00  0.00    -0.004 C 
HETATM    4  C   UNK N   1      36.528  12.858  14.209  0.00  0.00     0.002 C 
HETATM    5  C   UNK N   1      37.345  12.299  11.900  0.00  0.00     0.006 C 
HETATM    6  C   UNK N   1      36.379  13.313  11.284  0.00  0.00     0.021 C 
HETATM    7  C   UNK N   1      35.814  12.299  15.466  0.00  0.00    -0.016 C 
HETATM    8  C   UNK N   1      35.720  14.025  13.580  0.00  0.00     0.007 C 
HETATM    9  C   UNK N   1      36.306  14.505  12.237  0.00  0.00     0.018 C 
HETATM   10  C   UNK N   1      37.821  10.759  13.818  0.00  0.00     0.010 C 
HETATM   11  C   UNK N   1      37.703  11.372  10.745  0.00  0.00     0.013 C 
HETATM   12  C   UNK N   1      36.536  11.078  16.032  0.00  0.00    -0.068 C 
HETATM   13  C   UNK N   1      37.043  13.505   9.970  0.00  0.00     0.135 C 
HETATM   14  C   UNK N   1      37.423  10.198  15.185  0.00  0.00     0.035 C 
HETATM   15  C   UNK N   1      37.922  12.357   9.586  0.00  0.00     0.079 C 
HETATM   16  C   UNK N   1      35.731  13.377  16.560  0.00  0.00     0.022 C 
HETATM   17  C   UNK N   1      34.974  12.766  11.009  0.00  0.00     0.024 C 
HETATM   18  C   UNK N   1      34.387  11.868  15.101  0.00  0.00     0.020 C 
HETATM   19  C   UNK N   1      35.005  12.870  17.818  0.00  0.00     0.084 C 
HETATM   20  C   UNK N   1      36.256  10.660  17.277  0.00  0.00     0.053 C 
HETATM   21  C   UNK N   1      35.388  11.455  18.171  0.00  0.00     0.149 C 
ENDROOT
TORSDOF 0
ENDMDL
MODEL 4
REMARK VINA RESULT:      -7.1      7.200     10.681
REMARK  0 active torsions:
REMARK  status: ('A' for Active; 'I' for Inactive)
ROOT
HETATM    1  O   UNK N   1      31.086  14.865   2.881  0.00  0.00    -0.297 OA
HETATM    2  O   UNK N   1      36.118  15.597  12.337  0.00  0.00    -0.293 OA
HETATM    3  C   UNK N   1      33.622  16.582   6.615  0.00  0.00    -0.004 C 
HETATM    4  C   UNK N   1      33.045  15.621   7.694  0.00  0.00     0.002 C 
HETATM    5  C   UNK N   1      32.648  16.639   5.431  0.00  0.00     0.006 C 
HETATM    6  C   UNK N   1      32.420  15.255   4.819  0.00  0.00     0.021 C 
HETATM    7  C   UNK N   1      34.088  15.420   8.823  0.00  0.00    -0.016 C 
HETATM    8  C   UNK N   1      32.599  14.259   7.097  0.00  0.00     0.007 C 
HETATM    9  C   UNK N   1      31.687  14.414   5.864  0.00  0.00     0.018 C 
HETATM   10  C   UNK N   1      33.756  17.971   7.241  0.00  0.00     0.010 C 
HETATM   11  C   UNK N   1      32.971  17.529   4.238  0.00  0.00     0.013 C 
HETATM   12  C   UNK N   1      34.623  16.753   9.344  0.00  0.00    -0.068 C 
HETATM   13  C   UNK N   1      31.679  15.656   3.597  0.00  0.00     0.135 C 
HETATM   14  C   UNK N   1      34.612  18.011   8.509  0.00  0.00     0.035 C 
HETATM   15  C   UNK N   1      31.935  17.074   3.197  0.00  0.00     0.079 C 
HETATM   16  C   UNK N   1      33.467  14.643   9.996  0.00  0.00     0.022 C 
HETATM   17  C   UNK N   1      33.698  14.543   4.366  0.00  0.00     0.024 C 
HETATM   18  C   UNK N   1      35.282  14.617   8.288  0.00  0.00     0.020 C 
HETATM   19  C   UNK N   1      34.478  14.400  11.130  0.00  0.00     0.084 C 
HETATM   20  C   UNK N   1      35.280  16.792  10.515  0.00  0.00     0.053 C 
HETATM   21  C   UNK N   1      35.349  15.603  11.390  0.00  0.00     0.149 C 
ENDROOT
TORSDOF 0
ENDMDL
MODEL 5
REMARK VINA RESULT:      -7.1      1.109      6.345
REMARK  0 active torsions:
REMARK  status: ('A' for Active; 'I' for Inactive)
ROOT
HETATM    1  O   UNK N   1      34.723   7.369  21.696  0.00  0.00    -0.297 OA
HETATM    2  O   UNK N   1      36.322  13.415  12.968  0.00  0.00    -0.293 OA
HETATM    3  C   UNK N   1      34.947  11.158  18.708  0.00  0.00    -0.004 C 
HETATM    4  C   UNK N   1      36.030  10.581  17.752  0.00  0.00     0.002 C 
HETATM    5  C   UNK N   1      35.027  10.417  20.050  0.00  0.00     0.006 C 
HETATM    6  C   UNK N   1      34.814   8.912  19.878  0.00  0.00     0.021 C 
HETATM    7  C   UNK N   1      35.859  11.198  16.339  0.00  0.00    -0.016 C 
HETATM    8  C   UNK N   1      36.001   9.030  17.690  0.00  0.00     0.007 C 
HETATM    9  C   UNK N   1      36.004   8.374  19.085  0.00  0.00     0.018 C 
HETATM   10  C   UNK N   1      35.245  12.643  18.920  0.00  0.00     0.010 C 
HETATM   11  C   UNK N   1      34.079  10.806  21.177  0.00  0.00     0.013 C 
HETATM   12  C   UNK N   1      35.770  12.723  16.395  0.00  0.00    -0.068 C 
HETATM   13  C   UNK N   1      34.691   8.526  21.306  0.00  0.00     0.135 C 
HETATM   14  C   UNK N   1      35.313  13.462  17.629  0.00  0.00     0.035 C 
HETATM   15  C   UNK N   1      34.281   9.664  22.186  0.00  0.00     0.079 C 
HETATM   16  C   UNK N   1      37.037  10.803  15.435  0.00  0.00     0.022 C 
HETATM   17  C   UNK N   1      33.500   8.531  19.188  0.00  0.00     0.024 C 
HETATM   18  C   UNK N   1      34.562  10.680  15.702  0.00  0.00     0.020 C 
HETATM   19  C   UNK N   1      36.893  11.375  14.014  0.00  0.00     0.084 C 
HETATM   20  C   UNK N   1      35.940  13.438  15.271  0.00  0.00     0.053 C 
HETATM   21  C   UNK N   1      36.377  12.792  14.016  0.00  0.00     0.149 C 
ENDROOT
TORSDOF 0
ENDMDL
MODEL 6
REMARK VINA RESULT:      -7.0     11.353     14.245
REMARK  0 active torsions:
REMARK  status: ('A' for Active; 'I' for Inactive)
ROOT
HETATM    1  O   UNK N   1      34.569  17.771   6.416  0.00  0.00    -0.297 OA
HETATM    2  O   UNK N   1      24.621  14.834   3.645  0.00  0.00    -0.293 OA
HETATM    3  C   UNK N   1      29.866  16.694   6.639  0.00  0.00    -0.004 C 
HETATM    4  C   UNK N   1      29.536  16.975   5.145  0.00  0.00     0.002 C 
HETATM    5  C   UNK N   1      31.159  17.433   7.008  0.00  0.00     0.006 C 
HETATM    6  C   UNK N   1      32.332  16.993   6.130  0.00  0.00     0.021 C 
HETATM    7  C   UNK N   1      28.328  16.108   4.706  0.00  0.00    -0.016 C 
HETATM    8  C   UNK N   1      30.757  16.743   4.214  0.00  0.00     0.007 C 
HETATM    9  C   UNK N   1      32.031  17.459   4.706  0.00  0.00     0.018 C 
HETATM   10  C   UNK N   1      28.709  17.223   7.487  0.00  0.00     0.010 C 
HETATM   11  C   UNK N   1      31.697  17.336   8.430  0.00  0.00     0.013 C 
HETATM   12  C   UNK N   1      27.156  16.238   5.677  0.00  0.00    -0.068 C 
HETATM   13  C   UNK N   1      33.439  17.655   6.865  0.00  0.00     0.135 C 
HETATM   14  C   UNK N   1      27.341  16.642   7.120  0.00  0.00     0.035 C 
HETATM   15  C   UNK N   1      33.103  17.943   8.293  0.00  0.00     0.079 C 
HETATM   16  C   UNK N   1      27.855  16.518   3.302  0.00  0.00     0.022 C 
HETATM   17  C   UNK N   1      32.609  15.486   6.147  0.00  0.00     0.024 C 
HETATM   18  C   UNK N   1      28.739  14.630   4.668  0.00  0.00     0.020 C 
HETATM   19  C   UNK N   1      26.671  15.662   2.817  0.00  0.00     0.084 C 
HETATM   20  C   UNK N   1      25.935  15.823   5.302  0.00  0.00     0.053 C 
HETATM   21  C   UNK N   1      25.668  15.400   3.911  0.00  0.00     0.149 C 
ENDROOT
TORSDOF 0
ENDMDL
MODEL 7
REMARK VINA RESULT:      -6.9      1.760      6.728
REMARK  0 active torsions:
REMARK  status: ('A' for Active; 'I' for Inactive)
ROOT
HETATM    1  O   UNK N   1      35.830   9.819  18.756  0.00  0.00    -0.297 OA
HETATM    2  O   UNK N   1      37.096  13.254   8.663  0.00  0.00    -0.293 OA
HETATM    3  C   UNK N   1      35.879  12.637  14.833  0.00  0.00    -0.004 C 
HETATM    4  C   UNK N   1      36.968  11.850  14.049  0.00  0.00     0.002 C 
HETATM    5  C   UNK N   1      36.003  12.299  16.325  0.00  0.00     0.006 C 
HETATM    6  C   UNK N   1      35.841  10.800  16.582  0.00  0.00     0.021 C 
HETATM    7  C   UNK N   1      36.757  12.046  12.526  0.00  0.00    -0.016 C 
HETATM    8  C   UNK N   1      36.995  10.342  14.420  0.00  0.00     0.007 C 
HETATM    9  C   UNK N   1      37.040  10.100  15.941  0.00  0.00     0.018 C 
HETATM   10  C   UNK N   1      36.126  14.130  14.619  0.00  0.00     0.010 C 
HETATM   11  C   UNK N   1      35.056  12.956  17.322  0.00  0.00     0.013 C 
HETATM   12  C   UNK N   1      36.615  13.523  12.159  0.00  0.00    -0.068 C 
HETATM   13  C   UNK N   1      35.751  10.821  18.063  0.00  0.00     0.135 C 
HETATM   14  C   UNK N   1      36.148  14.561  13.150  0.00  0.00     0.035 C 
HETATM   15  C   UNK N   1      35.312  12.145  18.603  0.00  0.00     0.079 C 
HETATM   16  C   UNK N   1      37.937  11.452  11.739  0.00  0.00     0.022 C 
HETATM   17  C   UNK N   1      34.533  10.202  16.053  0.00  0.00     0.024 C 
HETATM   18  C   UNK N   1      35.472  11.332  12.086  0.00  0.00     0.020 C 
HETATM   19  C   UNK N   1      37.754  11.603  10.219  0.00  0.00     0.084 C 
HETATM   20  C   UNK N   1      36.744  13.903  10.878  0.00  0.00     0.053 C 
HETATM   21  C   UNK N   1      37.187  12.948   9.841  0.00  0.00     0.149 C 
ENDROOT
TORSDOF 0
ENDMDL
MODEL 8
REMARK VINA RESULT:      -6.8      1.893      3.719
REMARK  0 active torsions:
REMARK  status: ('A' for Active; 'I' for Inactive)
ROOT
HETATM    1  O   UNK N   1      37.034  12.395   9.648  0.00  0.00    -0.297 OA
HETATM    2  O   UNK N   1      34.639  13.086  20.091  0.00  0.00    -0.293 OA
HETATM    3  C   UNK N   1      36.253  11.230  14.271  0.00  0.00    -0.004 C 
HETATM    4  C   UNK N   1      36.514  12.643  14.868  0.00  0.00     0.002 C 
HETATM    5  C   UNK N   1      36.920  11.146  12.892  0.00  0.00     0.006 C 
HETATM    6  C   UNK N   1      36.387  12.216  11.937  0.00  0.00     0.021 C 
HETATM    7  C   UNK N   1      35.711  12.808  16.184  0.00  0.00    -0.016 C 
HETATM    8  C   UNK N   1      36.184  13.782  13.866  0.00  0.00     0.007 C 
HETATM    9  C   UNK N   1      36.833  13.572  12.484  0.00  0.00     0.018 C 
HETATM   10  C   UNK N   1      36.873  10.196  15.210  0.00  0.00     0.010 C 
HETATM   11  C   UNK N   1      36.828   9.851  12.094  0.00  0.00     0.013 C 
HETATM   12  C   UNK N   1      35.938  11.635  17.137  0.00  0.00    -0.068 C 
HETATM   13  C   UNK N   1      36.999  11.733  10.674  0.00  0.00     0.135 C 
HETATM   14  C   UNK N   1      36.368  10.271  16.652  0.00  0.00     0.035 C 
HETATM   15  C   UNK N   1      37.344  10.279  10.710  0.00  0.00     0.079 C 
HETATM   16  C   UNK N   1      36.112  14.110  16.898  0.00  0.00     0.022 C 
HETATM   17  C   UNK N   1      34.867  12.195  11.746  0.00  0.00     0.024 C 
HETATM   18  C   UNK N   1      34.210  12.869  15.870  0.00  0.00     0.020 C 
HETATM   19  C   UNK N   1      35.319  14.325  18.198  0.00  0.00     0.084 C 
HETATM   20  C   UNK N   1      35.589  11.752  18.428  0.00  0.00     0.053 C 
HETATM   21  C   UNK N   1      35.147  13.049  18.983  0.00  0.00     0.149 C 
ENDROOT
TORSDOF 0
ENDMDL
MODEL 9
REMARK VINA RESULT:      -6.8      1.153      1.436
REMARK  0 active torsions:
REMARK  status: ('A' for Active; 'I' for Inactive)
ROOT
HETATM    1  O   UNK N   1      35.686  12.275  10.088  0.00  0.00    -0.297 OA
HETATM    2  O   UNK N   1      35.386   9.641  20.492  0.00  0.00    -0.293 OA
HETATM    3  C   UNK N   1      35.762  12.576  14.908  0.00  0.00    -0.004 C 
HETATM    4  C   UNK N   1      34.942  11.284  15.191  0.00  0.00     0.002 C 
HETATM    5  C   UNK N   1      35.475  13.039  13.474  0.00  0.00     0.006 C 
HETATM    6  C   UNK N   1      35.838  11.963  12.448  0.00  0.00     0.021 C 
HETATM    7  C   UNK N   1      35.342  10.706  16.573  0.00  0.00    -0.016 C 
HETATM    8  C   UNK N   1      35.106  10.220  14.073  0.00  0.00     0.007 C 
HETATM    9  C   UNK N   1      34.877  10.794  12.660  0.00  0.00     0.018 C 
HETATM   10  C   UNK N   1      35.311  13.650  15.898  0.00  0.00     0.010 C 
HETATM   11  C   UNK N   1      36.145  14.302  12.947  0.00  0.00     0.013 C 
HETATM   12  C   UNK N   1      35.295  11.772  17.667  0.00  0.00    -0.068 C 
HETATM   13  C   UNK N   1      35.703  12.765  11.206  0.00  0.00     0.135 C 
HETATM   14  C   UNK N   1      35.437  13.245  17.369  0.00  0.00     0.035 C 
HETATM   15  C   UNK N   1      35.837  14.236  11.442  0.00  0.00     0.079 C 
HETATM   16  C   UNK N   1      34.403   9.553  16.965  0.00  0.00     0.022 C 
HETATM   17  C   UNK N   1      37.289  11.478  12.523  0.00  0.00     0.024 C 
HETATM   18  C   UNK N   1      36.777  10.164  16.512  0.00  0.00     0.020 C 
HETATM   19  C   UNK N   1      34.782   8.933  18.321  0.00  0.00     0.084 C 
HETATM   20  C   UNK N   1      35.297  11.398  18.957  0.00  0.00     0.053 C 
HETATM   21  C   UNK N   1      35.173   9.975  19.338  0.00  0.00     0.149 C 
ENDROOT
TORSDOF 0
ENDMDL
