MODEL 1
REMARK VINA RESULT:      -4.4      0.000      0.000
REMARK  5 active torsions:
REMARK  status: ('A' for Active; 'I' for Inactive)
REMARK    1  A    between atoms: O_2  and  C_7 
REMARK    2  A    between atoms: O_3  and  C_10 
REMARK    3  A    between atoms: N_4  and  C_8 
REMARK    4  A    between atoms: C_5  and  C_6 
REMARK    5  A    between atoms: C_6  and  C_8 
ROOT
HETATM    1 Br   UNK N   1      27.145  22.073  -8.195  0.00  0.00    -0.048 Br
HETATM    2  C   UNK N   1      25.467  25.916  -6.009  0.00  0.00    -0.021 A 
HETATM    3  C   UNK N   1      25.938  24.799  -5.254  0.00  0.00     0.076 A 
HETATM    4  C   UNK N   1      25.513  25.849  -7.412  0.00  0.00     0.048 A 
HETATM    5  C   UNK N   1      26.005  24.723  -8.079  0.00  0.00     0.086 A 
HETATM    6  C   UNK N   1      26.428  23.680  -5.938  0.00  0.00     0.059 A 
HETATM    7  C   UNK N   1      26.463  23.635  -7.332  0.00  0.00     0.047 A 
ENDROOT
BRANCH   2   8
HETATM    8  C   UNK N   1      24.919  27.170  -5.364  0.00  0.00     0.060 C 
BRANCH   8   9
HETATM    9  C   UNK N   1      25.963  27.951  -4.566  0.00  0.00     0.115 C 
BRANCH   9  10
HETATM   10  N   UNK N   1      25.735  27.792  -3.143  0.00  0.00    -0.430 N 
HETATM   11  H   UNK N   1      25.618  28.614  -2.549  0.00  0.00     0.149 HD
HETATM   12  H   UNK N   1      25.691  26.858  -2.735  0.00  0.00     0.149 HD
ENDBRANCH   9  10
ENDBRANCH   8   9
ENDBRANCH   2   8
BRANCH   3  13
HETATM   13  O   UNK N   1      25.949  24.736  -3.893  0.00  0.00    -0.355 OA
HETATM   14  C   UNK N   1      26.980  24.294  -3.102  0.00  0.00     0.210 C 
ENDBRANCH   3  13
BRANCH   5  15
HETATM   15  O   UNK N   1      26.045  24.673  -9.434  0.00  0.00    -0.355 OA
HETATM   16  C   UNK N   1      25.068  25.217 -10.238  0.00  0.00     0.210 C 
ENDBRANCH   5  15
TORSDOF 5
ENDMDL
MODEL 2
REMARK VINA RESULT:      -4.4     13.631     15.852
REMARK  5 active torsions:
REMARK  status: ('A' for Active; 'I' for Inactive)
REMARK    1  A    between atoms: O_2  and  C_7 
REMARK    2  A    between atoms: O_3  and  C_10 
REMARK    3  A    between atoms: N_4  and  C_8 
REMARK    4  A    between atoms: C_5  and  C_6 
REMARK    5  A    between atoms: C_6  and  C_8 
ROOT
HETATM    1 Br   UNK N   1      32.420  16.939   3.101  0.00  0.00    -0.048 Br
HETATM    2  C   UNK N   1      30.635  17.341   7.462  0.00  0.00    -0.021 A 
HETATM    3  C   UNK N   1      32.048  17.350   7.252  0.00  0.00     0.076 A 
HETATM    4  C   UNK N   1      29.789  17.211   6.348  0.00  0.00     0.048 A 
HETATM    5  C   UNK N   1      30.294  17.091   5.050  0.00  0.00     0.086 A 
HETATM    6  C   UNK N   1      32.537  17.229   5.946  0.00  0.00     0.059 A 
HETATM    7  C   UNK N   1      31.678  17.100   4.854  0.00  0.00     0.047 A 
ENDROOT
BRANCH   2   8
HETATM    8  C   UNK N   1      30.009  17.465   8.833  0.00  0.00     0.060 C 
BRANCH   8   9
HETATM    9  C   UNK N   1      29.120  18.699   8.988  0.00  0.00     0.115 C 
BRANCH   9  10
HETATM   10  N   UNK N   1      27.739  18.305   9.191  0.00  0.00    -0.430 N 
HETATM   11  H   UNK N   1      27.408  18.061  10.125  0.00  0.00     0.149 HD
HETATM   12  H   UNK N   1      27.097  18.271   8.398  0.00  0.00     0.149 HD
ENDBRANCH   9  10
ENDBRANCH   8   9
ENDBRANCH   2   8
BRANCH   3  13
HETATM   13  O   UNK N   1      32.976  17.470   8.243  0.00  0.00    -0.355 OA
HETATM   14  C   UNK N   1      34.157  18.166   8.179  0.00  0.00     0.210 C 
ENDBRANCH   3  13
BRANCH   5  15
HETATM   15  O   UNK N   1      29.466  16.968   3.983  0.00  0.00    -0.355 OA
HETATM   16  C   UNK N   1      28.184  17.471   3.963  0.00  0.00     0.210 C 
ENDBRANCH   5  15
TORSDOF 5
ENDMDL
MODEL 3
REMARK VINA RESULT:      -4.4     16.263     17.521
REMARK  5 active torsions:
REMARK  status: ('A' for Active; 'I' for Inactive)
REMARK    1  A    between atoms: O_2  and  C_7 
REMARK    2  A    between atoms: O_3  and  C_10 
REMARK    3  A    between atoms: N_4  and  C_8 
REMARK    4  A    between atoms: C_5  and  C_6 
REMARK    5  A    between atoms: C_6  and  C_8 
ROOT
HETATM    1 Br   UNK N   1      28.685  16.706   5.495  0.00  0.00    -0.048 Br
HETATM    2  C   UNK N   1      32.768  17.611   7.702  0.00  0.00    -0.021 A 
HETATM    3  C   UNK N   1      32.760  17.146   6.351  0.00  0.00     0.076 A 
HETATM    4  C   UNK N   1      31.540  17.794   8.358  0.00  0.00     0.048 A 
HETATM    5  C   UNK N   1      30.321  17.533   7.726  0.00  0.00     0.086 A 
HETATM    6  C   UNK N   1      31.531  16.890   5.733  0.00  0.00     0.059 A 
HETATM    7  C   UNK N   1      30.323  17.078   6.404  0.00  0.00     0.047 A 
ENDROOT
BRANCH   2   8
HETATM    8  C   UNK N   1      34.043  17.915   8.457  0.00  0.00     0.060 C 
BRANCH   8   9
HETATM    9  C   UNK N   1      34.587  16.720   9.240  0.00  0.00     0.115 C 
BRANCH   9  10
HETATM   10  N   UNK N   1      35.011  17.134  10.564  0.00  0.00    -0.430 N 
HETATM   11  H   UNK N   1      35.999  17.301  10.755  0.00  0.00     0.149 HD
HETATM   12  H   UNK N   1      34.320  17.257  11.305  0.00  0.00     0.149 HD
ENDBRANCH   9  10
ENDBRANCH   8   9
ENDBRANCH   2   8
BRANCH   3  13
HETATM   13  O   UNK N   1      33.878  16.928   5.602  0.00  0.00    -0.355 OA
HETATM   14  C   UNK N   1      34.539  15.735   5.446  0.00  0.00     0.210 C 
ENDBRANCH   3  13
BRANCH   5  15
HETATM   15  O   UNK N   1      29.142  17.716   8.371  0.00  0.00    -0.355 OA
HETATM   16  C   UNK N   1      28.973  17.471   9.716  0.00  0.00     0.210 C 
ENDBRANCH   5  15
TORSDOF 5
ENDMDL
MODEL 4
REMARK VINA RESULT:      -4.3      2.960      5.369
REMARK  5 active torsions:
REMARK  status: ('A' for Active; 'I' for Inactive)
REMARK    1  A    between atoms: O_2  and  C_7 
REMARK    2  A    between atoms: O_3  and  C_10 
REMARK    3  A    between atoms: N_4  and  C_8 
REMARK    4  A    between atoms: C_5  and  C_6 
REMARK    5  A    between atoms: C_6  and  C_8 
ROOT
HETATM    1 Br   UNK N   1      25.695  27.649  -4.277  0.00  0.00    -0.048 Br
HETATM    2  C   UNK N   1      25.930  23.975  -7.245  0.00  0.00    -0.021 A 
HETATM    3  C   UNK N   1      25.724  25.298  -7.743  0.00  0.00     0.076 A 
HETATM    4  C   UNK N   1      26.062  23.789  -5.859  0.00  0.00     0.048 A 
HETATM    5  C   UNK N   1      25.996  24.861  -4.963  0.00  0.00     0.086 A 
HETATM    6  C   UNK N   1      25.660  26.359  -6.832  0.00  0.00     0.059 A 
HETATM    7  C   UNK N   1      25.793  26.151  -5.459  0.00  0.00     0.047 A 
ENDROOT
BRANCH   2   8
HETATM    8  C   UNK N   1      26.012  22.763  -8.147  0.00  0.00     0.060 C 
BRANCH   8   9
HETATM    9  C   UNK N   1      25.221  21.562  -7.628  0.00  0.00     0.115 C 
BRANCH   9  10
HETATM   10  N   UNK N   1      23.797  21.835  -7.677  0.00  0.00    -0.430 N 
HETATM   11  H   UNK N   1      23.464  22.785  -7.839  0.00  0.00     0.149 HD
HETATM   12  H   UNK N   1      23.128  21.074  -7.550  0.00  0.00     0.149 HD
ENDBRANCH   9  10
ENDBRANCH   8   9
ENDBRANCH   2   8
BRANCH   3  13
HETATM   13  O   UNK N   1      25.581  25.615  -9.060  0.00  0.00    -0.355 OA
HETATM   14  C   UNK N   1      26.562  26.071  -9.904  0.00  0.00     0.210 C 
ENDBRANCH   3  13
BRANCH   5  15
HETATM   15  O   UNK N   1      26.127  24.667  -3.627  0.00  0.00    -0.355 OA
HETATM   16  C   UNK N   1      27.258  24.131  -3.051  0.00  0.00     0.210 C 
ENDBRANCH   5  15
TORSDOF 5
ENDMDL
MODEL 5
REMARK VINA RESULT:      -4.3     17.775     19.323
REMARK  5 active torsions:
REMARK  status: ('A' for Active; 'I' for Inactive)
REMARK    1  A    between atoms: O_2  and  C_7 
REMARK    2  A    between atoms: O_3  and  C_10 
REMARK    3  A    between atoms: N_4  and  C_8 
REMARK    4  A    between atoms: C_5  and  C_6 
REMARK    5  A    between atoms: C_6  and  C_8 
ROOT
HETATM    1 Br   UNK N   1      21.505  17.525   6.201  0.00  0.00    -0.048 Br
HETATM    2  C   UNK N   1      21.179  13.900   9.220  0.00  0.00    -0.021 A 
HETATM    3  C   UNK N   1      22.129  13.873   8.153  0.00  0.00     0.076 A 
HETATM    4  C   UNK N   1      20.346  15.024   9.353  0.00  0.00     0.048 A 
HETATM    5  C   UNK N   1      20.425  16.107   8.472  0.00  0.00     0.086 A 
HETATM    6  C   UNK N   1      22.195  14.965   7.281  0.00  0.00     0.059 A 
HETATM    7  C   UNK N   1      21.357  16.071   7.431  0.00  0.00     0.047 A 
ENDROOT
BRANCH   2   8
HETATM    8  C   UNK N   1      21.029  12.769  10.213  0.00  0.00     0.060 C 
BRANCH   8   9
HETATM    9  C   UNK N   1      22.289  12.516  11.043  0.00  0.00     0.115 C 
BRANCH   9  10
HETATM   10  N   UNK N   1      22.858  11.223  10.716  0.00  0.00    -0.430 N 
HETATM   11  H   UNK N   1      22.255  10.403  10.640  0.00  0.00     0.149 HD
HETATM   12  H   UNK N   1      23.863  11.133  10.562  0.00  0.00     0.149 HD
ENDBRANCH   9  10
ENDBRANCH   8   9
ENDBRANCH   2   8
BRANCH   3  13
HETATM   13  O   UNK N   1      22.992  12.847   7.913  0.00  0.00    -0.355 OA
HETATM   14  C   UNK N   1      24.363  12.922   7.871  0.00  0.00     0.210 C 
ENDBRANCH   3  13
BRANCH   5  15
HETATM   15  O   UNK N   1      19.617  17.186   8.614  0.00  0.00    -0.355 OA
HETATM   16  C   UNK N   1      18.286  17.091   8.957  0.00  0.00     0.210 C 
ENDBRANCH   5  15
TORSDOF 5
ENDMDL
MODEL 6
REMARK VINA RESULT:      -4.2     14.926     16.369
REMARK  5 active torsions:
REMARK  status: ('A' for Active; 'I' for Inactive)
REMARK    1  A    between atoms: O_2  and  C_7 
REMARK    2  A    between atoms: O_3  and  C_10 
REMARK    3  A    between atoms: N_4  and  C_8 
REMARK    4  A    between atoms: C_5  and  C_6 
REMARK    5  A    between atoms: C_6  and  C_8 
ROOT
HETATM    1 Br   UNK N   1      32.698  16.866   3.298  0.00  0.00    -0.048 Br
HETATM    2  C   UNK N   1      30.883  17.243   7.648  0.00  0.00    -0.021 A 
HETATM    3  C   UNK N   1      30.026  17.190   6.506  0.00  0.00     0.076 A 
HETATM    4  C   UNK N   1      32.272  17.180   7.452  0.00  0.00     0.048 A 
HETATM    5  C   UNK N   1      32.831  17.068   6.175  0.00  0.00     0.086 A 
HETATM    6  C   UNK N   1      30.602  17.078   5.236  0.00  0.00     0.059 A 
HETATM    7  C   UNK N   1      31.986  17.018   5.064  0.00  0.00     0.047 A 
ENDROOT
BRANCH   2   8
HETATM    8  C   UNK N   1      30.358  17.364   9.062  0.00  0.00     0.060 C 
BRANCH   8   9
HETATM    9  C   UNK N   1      29.700  18.713   9.354  0.00  0.00     0.115 C 
BRANCH   9  10
HETATM   10  N   UNK N   1      28.256  18.596   9.290  0.00  0.00    -0.430 N 
HETATM   11  H   UNK N   1      27.747  18.970   8.489  0.00  0.00     0.149 HD
HETATM   12  H   UNK N   1      27.748  18.139  10.048  0.00  0.00     0.149 HD
ENDBRANCH   9  10
ENDBRANCH   8   9
ENDBRANCH   2   8
BRANCH   3  13
HETATM   13  O   UNK N   1      28.666  17.241   6.558  0.00  0.00    -0.355 OA
HETATM   14  C   UNK N   1      27.797  17.001   5.522  0.00  0.00     0.210 C 
ENDBRANCH   3  13
BRANCH   5  15
HETATM   15  O   UNK N   1      34.175  17.007   6.001  0.00  0.00    -0.355 OA
HETATM   16  C   UNK N   1      34.918  15.878   6.266  0.00  0.00     0.210 C 
ENDBRANCH   5  15
TORSDOF 5
ENDMDL
MODEL 7
REMARK VINA RESULT:      -4.2     14.682     16.435
REMARK  5 active torsions:
REMARK  status: ('A' for Active; 'I' for Inactive)
REMARK    1  A    between atoms: O_2  and  C_7 
REMARK    2  A    between atoms: O_3  and  C_10 
REMARK    3  A    between atoms: N_4  and  C_8 
REMARK    4  A    between atoms: C_5  and  C_6 
REMARK    5  A    between atoms: C_6  and  C_8 
ROOT
HETATM    1 Br   UNK N   1      28.861  17.736   9.304  0.00  0.00    -0.048 Br
HETATM    2  C   UNK N   1      32.218  17.194   6.018  0.00  0.00    -0.021 A 
HETATM    3  C   UNK N   1      32.567  17.341   7.395  0.00  0.00     0.076 A 
HETATM    4  C   UNK N   1      30.859  17.213   5.661  0.00  0.00     0.048 A 
HETATM    5  C   UNK N   1      29.850  17.372   6.616  0.00  0.00     0.086 A 
HETATM    6  C   UNK N   1      31.545  17.499   8.337  0.00  0.00     0.059 A 
HETATM    7  C   UNK N   1      30.201  17.516   7.961  0.00  0.00     0.047 A 
ENDROOT
BRANCH   2   8
HETATM    8  C   UNK N   1      33.249  17.019   4.925  0.00  0.00     0.060 C 
BRANCH   8   9
HETATM    9  C   UNK N   1      32.676  17.177   3.516  0.00  0.00     0.115 C 
BRANCH   9  10
HETATM   10  N   UNK N   1      33.148  16.109   2.656  0.00  0.00    -0.430 N 
HETATM   11  H   UNK N   1      32.484  15.448   2.250  0.00  0.00     0.149 HD
HETATM   12  H   UNK N   1      34.144  16.018   2.455  0.00  0.00     0.149 HD
ENDBRANCH   9  10
ENDBRANCH   8   9
ENDBRANCH   2   8
BRANCH   3  13
HETATM   13  O   UNK N   1      33.843  17.339   7.873  0.00  0.00    -0.355 OA
HETATM   14  C   UNK N   1      34.599  18.440   8.192  0.00  0.00     0.210 C 
ENDBRANCH   3  13
BRANCH   5  15
HETATM   15  O   UNK N   1      28.542  17.387   6.258  0.00  0.00    -0.355 OA
HETATM   16  C   UNK N   1      27.957  18.436   5.584  0.00  0.00     0.210 C 
ENDBRANCH   5  15
TORSDOF 5
ENDMDL
MODEL 8
REMARK VINA RESULT:      -4.0      3.789      5.742
REMARK  5 active torsions:
REMARK  status: ('A' for Active; 'I' for Inactive)
REMARK    1  A    between atoms: O_2  and  C_7 
REMARK    2  A    between atoms: O_3  and  C_10 
REMARK    3  A    between atoms: N_4  and  C_8 
REMARK    4  A    between atoms: C_5  and  C_6 
REMARK    5  A    between atoms: C_6  and  C_8 
ROOT
HETATM    1 Br   UNK N   1      29.184  30.999  -5.973  0.00  0.00    -0.048 Br
HETATM    2  C   UNK N   1      26.032  27.482  -5.732  0.00  0.00    -0.021 A 
HETATM    3  C   UNK N   1      26.941  27.568  -6.830  0.00  0.00     0.076 A 
HETATM    4  C   UNK N   1      26.095  28.462  -4.727  0.00  0.00     0.048 A 
HETATM    5  C   UNK N   1      27.018  29.510  -4.777  0.00  0.00     0.086 A 
HETATM    6  C   UNK N   1      27.859  28.624  -6.865  0.00  0.00     0.059 A 
HETATM    7  C   UNK N   1      27.903  29.587  -5.856  0.00  0.00     0.047 A 
ENDROOT
BRANCH   2   8
HETATM    8  C   UNK N   1      25.003  26.381  -5.604  0.00  0.00     0.060 C 
BRANCH   8   9
HETATM    9  C   UNK N   1      25.610  25.013  -5.291  0.00  0.00     0.115 C 
BRANCH   9  10
HETATM   10  N   UNK N   1      25.544  24.152  -6.456  0.00  0.00    -0.430 N 
HETATM   11  H   UNK N   1      25.360  23.155  -6.345  0.00  0.00     0.149 HD
HETATM   12  H   UNK N   1      25.683  24.545  -7.388  0.00  0.00     0.149 HD
ENDBRANCH   9  10
ENDBRANCH   8   9
ENDBRANCH   2   8
BRANCH   3  13
HETATM   13  O   UNK N   1      26.985  26.686  -7.868  0.00  0.00    -0.355 OA
HETATM   14  C   UNK N   1      28.085  25.989  -8.304  0.00  0.00     0.210 C 
ENDBRANCH   3  13
BRANCH   5  15
HETATM   15  O   UNK N   1      27.069  30.448  -3.799  0.00  0.00    -0.355 OA
HETATM   16  C   UNK N   1      27.591  30.204  -2.548  0.00  0.00     0.210 C 
ENDBRANCH   5  15
TORSDOF 5
ENDMDL
MODEL 9
REMARK VINA RESULT:      -4.0     15.328     17.631
REMARK  5 active torsions:
REMARK  status: ('A' for Active; 'I' for Inactive)
REMARK    1  A    between atoms: O_2  and  C_7 
REMARK    2  A    between atoms: O_3  and  C_10 
REMARK    3  A    between atoms: N_4  and  C_8 
REMARK    4  A    between atoms: C_5  and  C_6 
REMARK    5  A    between atoms: C_6  and  C_8 
ROOT
HETATM    1 Br   UNK N   1      33.425  14.058   6.206  0.00  0.00    -0.048 Br
HETATM    2  C   UNK N   1      30.956  17.591   8.152  0.00  0.00    -0.021 A 
HETATM    3  C   UNK N   1      30.356  16.737   7.176  0.00  0.00     0.076 A 
HETATM    4  C   UNK N   1      32.291  17.358   8.521  0.00  0.00     0.048 A 
HETATM    5  C   UNK N   1      33.040  16.320   7.959  0.00  0.00     0.086 A 
HETATM    6  C   UNK N   1      31.120  15.703   6.624  0.00  0.00     0.059 A 
HETATM    7  C   UNK N   1      32.445  15.490   7.004  0.00  0.00     0.047 A 
ENDROOT
BRANCH   2   8
HETATM    8  C   UNK N   1      30.215  18.736   8.806  0.00  0.00     0.060 C 
BRANCH   8   9
HETATM    9  C   UNK N   1      29.128  18.281   9.780  0.00  0.00     0.115 C 
BRANCH   9  10
HETATM   10  N   UNK N   1      27.818  18.405   9.170  0.00  0.00    -0.430 N 
HETATM   11  H   UNK N   1      26.987  18.099   9.676  0.00  0.00     0.149 HD
HETATM   12  H   UNK N   1      27.728  18.798   8.232  0.00  0.00     0.149 HD
ENDBRANCH   9  10
ENDBRANCH   8   9
ENDBRANCH   2   8
BRANCH   3  13
HETATM   13  O   UNK N   1      29.073  16.854   6.732  0.00  0.00    -0.355 OA
HETATM   14  C   UNK N   1      28.666  16.957   5.425  0.00  0.00     0.210 C 
ENDBRANCH   3  13
BRANCH   5  15
HETATM   15  O   UNK N   1      34.328  16.105   8.326  0.00  0.00    -0.355 OA
HETATM   16  C   UNK N   1      34.689  15.632   9.568  0.00  0.00     0.210 C 
ENDBRANCH   5  15
TORSDOF 5
ENDMDL
