MODEL 1
REMARK VINA RESULT:      -7.4      0.000      0.000
REMARK  3 active torsions:
REMARK  status: ('A' for Active; 'I' for Inactive)
REMARK    1  A    between atoms: C_13  and  O_2 
REMARK    2  A    between atoms: O_2  and  C_23 
REMARK    3  A    between atoms: O_3  and  C_21 
ROOT
HETATM    1  O   UNK N   1      31.315  16.952   7.611  0.00  0.00    -0.339 OA
HETATM    2  N   UNK N   1      30.123  14.346   3.314  0.00  0.00     0.089 N 
HETATM    3  C   UNK N   1      31.249  15.937   5.504  0.00  0.00     0.026 C 
HETATM    4  C   UNK N   1      31.706  16.139   4.061  0.00  0.00     0.035 C 
HETATM    5  C   UNK N   1      32.192  16.394   6.670  0.00  0.00     0.172 C 
HETATM    6  C   UNK N   1      30.480  15.774   3.152  0.00  0.00     0.232 C 
HETATM    7  C   UNK N   1      30.851  14.460   5.705  0.00  0.00     0.048 C 
HETATM    8  C   UNK N   1      30.085  16.781   5.779  0.00  0.00    -0.004 A 
HETATM    9  C   UNK N   1      32.196  17.570   3.882  0.00  0.00     0.010 C 
HETATM   10  C   UNK N   1      33.186  17.520   6.248  0.00  0.00     0.162 C 
HETATM   11  C   UNK N   1      29.209  16.642   3.443  0.00  0.00     0.075 C 
HETATM   12  C   UNK N   1      33.441  17.740   4.743  0.00  0.00     0.036 C 
HETATM   13  C   UNK N   1      29.789  13.993   4.701  0.00  0.00     0.273 C 
HETATM   14  C   UNK N   1      29.067  17.075   4.887  0.00  0.00    -0.046 A 
HETATM   15  C   UNK N   1      30.148  17.276   7.026  0.00  0.00     0.110 A 
HETATM   16  C   UNK N   1      31.178  13.462   2.827  0.00  0.00     0.310 C 
HETATM   17  C   UNK N   1      28.010  17.879   5.340  0.00  0.00     0.011 A 
HETATM   18  C   UNK N   1      29.114  18.070   7.534  0.00  0.00     0.102 A 
HETATM   19  C   UNK N   1      28.018  18.354   6.673  0.00  0.00     0.040 A 
ENDROOT
BRANCH  10  20
HETATM   20  O   UNK N   1      34.396  17.384   6.912  0.00  0.00    -0.314 OA
BRANCH  20  21
HETATM   21  C   UNK N   1      34.641  17.914   8.147  0.00  0.00     0.255 C 
HETATM   22  O   UNK N   1      34.928  19.096   8.280  0.00  0.00    -0.266 OA
HETATM   23  C   UNK N   1      34.544  17.051   9.356  0.00  0.00     0.126 C 
ENDBRANCH  20  21
ENDBRANCH  10  20
BRANCH  18  24
HETATM   24  O   UNK N   1      29.183  18.560   8.793  0.00  0.00    -0.353 OA
HETATM   25  C   UNK N   1      28.956  17.787   9.910  0.00  0.00     0.210 C 
ENDBRANCH  18  24
TORSDOF 3
ENDMDL
MODEL 2
REMARK VINA RESULT:      -7.0     11.886     13.886
REMARK  3 active torsions:
REMARK  status: ('A' for Active; 'I' for Inactive)
REMARK    1  A    between atoms: C_13  and  O_2 
REMARK    2  A    between atoms: O_2  and  C_23 
REMARK    3  A    between atoms: O_3  and  C_21 
ROOT
HETATM    1  O   UNK N   1      29.889  22.990  -5.845  0.00  0.00    -0.339 OA
HETATM    2  N   UNK N   1      26.637  26.819  -4.641  0.00  0.00     0.089 N 
HETATM    3  C   UNK N   1      28.563  24.614  -4.805  0.00  0.00     0.026 C 
HETATM    4  C   UNK N   1      27.758  24.871  -3.533  0.00  0.00     0.035 C 
HETATM    5  C   UNK N   1      29.904  23.808  -4.705  0.00  0.00     0.172 C 
HETATM    6  C   UNK N   1      26.400  25.511  -3.989  0.00  0.00     0.232 C 
HETATM    7  C   UNK N   1      28.814  25.957  -5.522  0.00  0.00     0.048 C 
HETATM    8  C   UNK N   1      27.810  23.734  -5.700  0.00  0.00    -0.004 A 
HETATM    9  C   UNK N   1      27.593  23.564  -2.768  0.00  0.00     0.010 C 
HETATM   10  C   UNK N   1      29.961  22.864  -3.465  0.00  0.00     0.162 C 
HETATM   11  C   UNK N   1      25.584  24.604  -4.971  0.00  0.00     0.075 C 
HETATM   12  C   UNK N   1      28.977  23.126  -2.306  0.00  0.00     0.036 C 
HETATM   13  C   UNK N   1      27.517  26.722  -5.815  0.00  0.00     0.273 C 
HETATM   14  C   UNK N   1      26.436  23.742  -5.878  0.00  0.00    -0.046 A 
HETATM   15  C   UNK N   1      28.636  22.874  -6.318  0.00  0.00     0.110 A 
HETATM   16  C   UNK N   1      27.176  27.804  -3.708  0.00  0.00     0.310 C 
HETATM   17  C   UNK N   1      25.891  22.844  -6.808  0.00  0.00     0.011 A 
HETATM   18  C   UNK N   1      28.147  21.968  -7.265  0.00  0.00     0.102 A 
HETATM   19  C   UNK N   1      26.748  21.975  -7.523  0.00  0.00     0.040 A 
ENDROOT
BRANCH  10  20
HETATM   20  O   UNK N   1      31.253  22.778  -2.970  0.00  0.00    -0.314 OA
BRANCH  20  21
HETATM   21  C   UNK N   1      31.987  21.625  -2.978  0.00  0.00     0.255 C 
HETATM   22  O   UNK N   1      32.817  21.400  -2.108  0.00  0.00    -0.266 OA
HETATM   23  C   UNK N   1      31.767  20.615  -4.049  0.00  0.00     0.126 C 
ENDBRANCH  20  21
ENDBRANCH  10  20
BRANCH  18  24
HETATM   24  O   UNK N   1      28.986  21.108  -7.886  0.00  0.00    -0.353 OA
HETATM   25  C   UNK N   1      28.832  19.740  -7.829  0.00  0.00     0.210 C 
ENDBRANCH  18  24
TORSDOF 3
ENDMDL
MODEL 3
REMARK VINA RESULT:      -6.9      7.921     10.308
REMARK  3 active torsions:
REMARK  status: ('A' for Active; 'I' for Inactive)
REMARK    1  A    between atoms: C_13  and  O_2 
REMARK    2  A    between atoms: O_2  and  C_23 
REMARK    3  A    between atoms: O_3  and  C_21 
ROOT
HETATM    1  O   UNK N   1      21.376  18.688   6.373  0.00  0.00    -0.339 OA
HETATM    2  N   UNK N   1      24.034  14.887   4.101  0.00  0.00     0.089 N 
HETATM    3  C   UNK N   1      22.384  17.175   4.900  0.00  0.00     0.026 C 
HETATM    4  C   UNK N   1      22.149  16.452   3.576  0.00  0.00     0.035 C 
HETATM    5  C   UNK N   1      21.874  18.648   5.062  0.00  0.00     0.172 C 
HETATM    6  C   UNK N   1      22.587  14.961   3.800  0.00  0.00     0.232 C 
HETATM    7  C   UNK N   1      23.884  17.102   5.255  0.00  0.00     0.048 C 
HETATM    8  C   UNK N   1      21.615  16.527   5.964  0.00  0.00    -0.004 A 
HETATM    9  C   UNK N   1      20.689  16.607   3.169  0.00  0.00     0.010 C 
HETATM   10  C   UNK N   1      20.687  18.993   4.111  0.00  0.00     0.162 C 
HETATM   11  C   UNK N   1      21.800  14.249   4.953  0.00  0.00     0.075 C 
HETATM   12  C   UNK N   1      20.446  18.084   2.888  0.00  0.00     0.036 C 
HETATM   13  C   UNK N   1      24.413  15.661   5.291  0.00  0.00     0.273 C 
HETATM   14  C   UNK N   1      21.382  15.167   6.083  0.00  0.00    -0.046 A 
HETATM   15  C   UNK N   1      21.123  17.443   6.813  0.00  0.00     0.110 A 
HETATM   16  C   UNK N   1      24.849  15.309   2.966  0.00  0.00     0.310 C 
HETATM   17  C   UNK N   1      20.648  14.721   7.192  0.00  0.00     0.011 A 
HETATM   18  C   UNK N   1      20.396  17.054   7.944  0.00  0.00     0.102 A 
HETATM   19  C   UNK N   1      20.177  15.662   8.139  0.00  0.00     0.040 A 
ENDROOT
BRANCH  10  20
HETATM   20  O   UNK N   1      20.750  20.317   3.703  0.00  0.00    -0.314 OA
BRANCH  20  21
HETATM   21  C   UNK N   1      21.423  20.730   2.587  0.00  0.00     0.255 C 
HETATM   22  O   UNK N   1      22.628  20.938   2.618  0.00  0.00    -0.266 OA
HETATM   23  C   UNK N   1      20.688  20.915   1.306  0.00  0.00     0.126 C 
ENDBRANCH  20  21
ENDBRANCH  10  20
BRANCH  18  24
HETATM   24  O   UNK N   1      19.907  17.983   8.796  0.00  0.00    -0.353 OA
HETATM   25  C   UNK N   1      18.696  17.846   9.438  0.00  0.00     0.210 C 
ENDBRANCH  18  24
TORSDOF 3
ENDMDL
MODEL 4
REMARK VINA RESULT:      -6.9     13.582     15.493
REMARK  3 active torsions:
REMARK  status: ('A' for Active; 'I' for Inactive)
REMARK    1  A    between atoms: C_13  and  O_2 
REMARK    2  A    between atoms: O_2  and  C_23 
REMARK    3  A    between atoms: O_3  and  C_21 
ROOT
HETATM    1  O   UNK N   1      29.435  25.133  -6.325  0.00  0.00    -0.339 OA
HETATM    2  N   UNK N   1      26.070  28.694  -4.688  0.00  0.00     0.089 N 
HETATM    3  C   UNK N   1      27.951  26.487  -5.125  0.00  0.00     0.026 C 
HETATM    4  C   UNK N   1      26.906  26.431  -4.013  0.00  0.00     0.035 C 
HETATM    5  C   UNK N   1      29.229  25.587  -5.014  0.00  0.00     0.172 C 
HETATM    6  C   UNK N   1      25.682  27.277  -4.510  0.00  0.00     0.232 C 
HETATM    7  C   UNK N   1      28.367  27.956  -5.351  0.00  0.00     0.048 C 
HETATM    8  C   UNK N   1      27.383  25.962  -6.368  0.00  0.00    -0.004 A 
HETATM    9  C   UNK N   1      26.565  24.976  -3.716  0.00  0.00     0.010 C 
HETATM   10  C   UNK N   1      29.014  24.325  -4.122  0.00  0.00     0.162 C 
HETATM   11  C   UNK N   1      25.070  26.754  -5.855  0.00  0.00     0.075 C 
HETATM   12  C   UNK N   1      27.817  24.318  -3.148  0.00  0.00     0.036 C 
HETATM   13  C   UNK N   1      27.171  28.870  -5.647  0.00  0.00     0.273 C 
HETATM   14  C   UNK N   1      26.076  26.125  -6.795  0.00  0.00    -0.046 A 
HETATM   15  C   UNK N   1      28.303  25.253  -7.042  0.00  0.00     0.110 A 
HETATM   16  C   UNK N   1      26.423  29.326  -3.421  0.00  0.00     0.310 C 
HETATM   17  C   UNK N   1      25.718  25.576  -8.035  0.00  0.00     0.011 A 
HETATM   18  C   UNK N   1      28.005  24.697  -8.291  0.00  0.00     0.102 A 
HETATM   19  C   UNK N   1      26.689  24.885  -8.798  0.00  0.00     0.040 A 
ENDROOT
BRANCH  10  20
HETATM   20  O   UNK N   1      30.175  24.002  -3.437  0.00  0.00    -0.314 OA
BRANCH  20  21
HETATM   21  C   UNK N   1      30.320  22.861  -2.698  0.00  0.00     0.255 C 
HETATM   22  O   UNK N   1      30.429  22.908  -1.480  0.00  0.00    -0.266 OA
HETATM   23  C   UNK N   1      30.331  21.537  -3.376  0.00  0.00     0.126 C 
ENDBRANCH  20  21
ENDBRANCH  10  20
BRANCH  18  24
HETATM   24  O   UNK N   1      28.939  23.989  -8.965  0.00  0.00    -0.353 OA
HETATM   25  C   UNK N   1      28.697  22.735  -9.483  0.00  0.00     0.210 C 
ENDBRANCH  18  24
TORSDOF 3
ENDMDL
MODEL 5
REMARK VINA RESULT:      -6.5      7.838     10.713
REMARK  3 active torsions:
REMARK  status: ('A' for Active; 'I' for Inactive)
REMARK    1  A    between atoms: C_13  and  O_2 
REMARK    2  A    between atoms: O_2  and  C_23 
REMARK    3  A    between atoms: O_3  and  C_21 
ROOT
HETATM    1  O   UNK N   1      34.639  13.393  13.474  0.00  0.00    -0.339 OA
HETATM    2  N   UNK N   1      35.858   8.651  11.828  0.00  0.00     0.089 N 
HETATM    3  C   UNK N   1      35.309  11.164  13.237  0.00  0.00     0.026 C 
HETATM    4  C   UNK N   1      36.298  10.142  13.793  0.00  0.00     0.035 C 
HETATM    5  C   UNK N   1      34.658  12.202  14.214  0.00  0.00     0.172 C 
HETATM    6  C   UNK N   1      36.910   9.396  12.555  0.00  0.00     0.232 C 
HETATM    7  C   UNK N   1      34.204  10.421  12.455  0.00  0.00     0.048 C 
HETATM    8  C   UNK N   1      35.998  12.078  12.325  0.00  0.00    -0.004 A 
HETATM    9  C   UNK N   1      37.334  10.859  14.650  0.00  0.00     0.010 C 
HETATM   10  C   UNK N   1      35.520  12.468  15.487  0.00  0.00     0.162 C 
HETATM   11  C   UNK N   1      37.631  10.354  11.546  0.00  0.00     0.075 C 
HETATM   12  C   UNK N   1      36.609  11.439  15.857  0.00  0.00     0.036 C 
HETATM   13  C   UNK N   1      34.768   9.515  11.352  0.00  0.00     0.273 C 
HETATM   14  C   UNK N   1      37.026  11.739  11.460  0.00  0.00    -0.046 A 
HETATM   15  C   UNK N   1      35.521  13.326  12.461  0.00  0.00     0.110 A 
HETATM   16  C   UNK N   1      35.303   7.567  12.633  0.00  0.00     0.310 C 
HETATM   17  C   UNK N   1      37.546  12.746  10.633  0.00  0.00     0.011 A 
HETATM   18  C   UNK N   1      35.993  14.365  11.651  0.00  0.00     0.102 A 
HETATM   19  C   UNK N   1      37.011  14.054  10.708  0.00  0.00     0.040 A 
ENDROOT
BRANCH  10  20
HETATM   20  O   UNK N   1      34.712  12.709  16.588  0.00  0.00    -0.314 OA
BRANCH  20  21
HETATM   21  C   UNK N   1      35.172  13.247  17.756  0.00  0.00     0.255 C 
HETATM   22  O   UNK N   1      35.568  14.404  17.805  0.00  0.00    -0.266 OA
HETATM   23  C   UNK N   1      35.180  12.426  18.997  0.00  0.00     0.126 C 
ENDBRANCH  20  21
ENDBRANCH  10  20
BRANCH  18  24
HETATM   24  O   UNK N   1      35.503  15.618  11.791  0.00  0.00    -0.353 OA
HETATM   25  C   UNK N   1      35.494  16.536  10.765  0.00  0.00     0.210 C 
ENDBRANCH  18  24
TORSDOF 3
ENDMDL
MODEL 6
REMARK VINA RESULT:      -6.5      8.481     10.087
REMARK  3 active torsions:
REMARK  status: ('A' for Active; 'I' for Inactive)
REMARK    1  A    between atoms: C_13  and  O_2 
REMARK    2  A    between atoms: O_2  and  C_23 
REMARK    3  A    between atoms: O_3  and  C_21 
ROOT
HETATM    1  O   UNK N   1      20.720  13.473   8.594  0.00  0.00    -0.339 OA
HETATM    2  N   UNK N   1      23.653  13.130   4.356  0.00  0.00     0.089 N 
HETATM    3  C   UNK N   1      22.405  13.119   7.009  0.00  0.00     0.026 C 
HETATM    4  C   UNK N   1      23.923  13.141   6.847  0.00  0.00     0.035 C 
HETATM    5  C   UNK N   1      21.793  12.601   8.355  0.00  0.00     0.172 C 
HETATM    6  C   UNK N   1      24.215  13.887   5.497  0.00  0.00     0.232 C 
HETATM    7  C   UNK N   1      21.783  12.351   5.824  0.00  0.00     0.048 C 
HETATM    8  C   UNK N   1      21.885  14.488   7.009  0.00  0.00    -0.004 A 
HETATM    9  C   UNK N   1      24.551  13.810   8.063  0.00  0.00     0.010 C 
HETATM   10  C   UNK N   1      22.769  12.735   9.564  0.00  0.00     0.162 C 
HETATM   11  C   UNK N   1      23.645  15.346   5.457  0.00  0.00     0.075 C 
HETATM   12  C   UNK N   1      24.271  12.921   9.269  0.00  0.00     0.036 C 
HETATM   13  C   UNK N   1      22.201  12.924   4.463  0.00  0.00     0.273 C 
HETATM   14  C   UNK N   1      22.369  15.540   6.249  0.00  0.00    -0.046 A 
HETATM   15  C   UNK N   1      20.877  14.607   7.888  0.00  0.00     0.110 A 
HETATM   16  C   UNK N   1      24.315  11.841   4.177  0.00  0.00     0.310 C 
HETATM   17  C   UNK N   1      21.721  16.779   6.356  0.00  0.00     0.011 A 
HETATM   18  C   UNK N   1      20.186  15.816   8.024  0.00  0.00     0.102 A 
HETATM   19  C   UNK N   1      20.611  16.912   7.223  0.00  0.00     0.040 A 
ENDROOT
BRANCH  10  20
HETATM   20  O   UNK N   1      22.594  11.689  10.458  0.00  0.00    -0.314 OA
BRANCH  20  21
HETATM   21  C   UNK N   1      22.129  11.857  11.732  0.00  0.00     0.255 C 
HETATM   22  O   UNK N   1      20.933  11.979  11.956  0.00  0.00    -0.266 OA
HETATM   23  C   UNK N   1      23.086  11.875  12.872  0.00  0.00     0.126 C 
ENDBRANCH  20  21
ENDBRANCH  10  20
BRANCH  18  24
HETATM   24  O   UNK N   1      19.168  15.926   8.908  0.00  0.00    -0.353 OA
HETATM   25  C   UNK N   1      18.446  17.087   9.077  0.00  0.00     0.210 C 
ENDBRANCH  18  24
TORSDOF 3
ENDMDL
MODEL 7
REMARK VINA RESULT:      -6.4      8.922     12.176
REMARK  3 active torsions:
REMARK  status: ('A' for Active; 'I' for Inactive)
REMARK    1  A    between atoms: C_13  and  O_2 
REMARK    2  A    between atoms: O_2  and  C_23 
REMARK    3  A    between atoms: O_3  and  C_21 
ROOT
HETATM    1  O   UNK N   1      37.016  12.616  14.017  0.00  0.00    -0.339 OA
HETATM    2  N   UNK N   1      36.021   8.452  16.905  0.00  0.00     0.089 N 
HETATM    3  C   UNK N   1      36.257  10.595  14.919  0.00  0.00     0.026 C 
HETATM    4  C   UNK N   1      35.029   9.688  14.966  0.00  0.00     0.035 C 
HETATM    5  C   UNK N   1      36.593  11.350  13.587  0.00  0.00     0.172 C 
HETATM    6  C   UNK N   1      34.857   9.251  16.463  0.00  0.00     0.232 C 
HETATM    7  C   UNK N   1      37.490   9.798  15.392  0.00  0.00     0.048 C 
HETATM    8  C   UNK N   1      36.064  11.740  15.811  0.00  0.00    -0.004 A 
HETATM    9  C   UNK N   1      33.827  10.438  14.405  0.00  0.00     0.010 C 
HETATM   10  C   UNK N   1      35.347  11.568  12.675  0.00  0.00     0.162 C 
HETATM   11  C   UNK N   1      34.676  10.457  17.446  0.00  0.00     0.075 C 
HETATM   12  C   UNK N   1      34.098  10.700  12.928  0.00  0.00     0.036 C 
HETATM   13  C   UNK N   1      37.294   9.176  16.781  0.00  0.00     0.273 C 
HETATM   14  C   UNK N   1      35.410  11.715  17.032  0.00  0.00    -0.046 A 
HETATM   15  C   UNK N   1      36.582  12.852  15.267  0.00  0.00     0.110 A 
HETATM   16  C   UNK N   1      36.113   7.181  16.193  0.00  0.00     0.310 C 
HETATM   17  C   UNK N   1      35.351  12.907  17.769  0.00  0.00     0.011 A 
HETATM   18  C   UNK N   1      36.564  14.066  15.964  0.00  0.00     0.102 A 
HETATM   19  C   UNK N   1      35.952  14.078  17.248  0.00  0.00     0.040 A 
ENDROOT
BRANCH  10  20
HETATM   20  O   UNK N   1      35.699  11.501  11.335  0.00  0.00    -0.314 OA
BRANCH  20  21
HETATM   21  C   UNK N   1      35.482  12.517  10.447  0.00  0.00     0.255 C 
HETATM   22  O   UNK N   1      35.643  12.350   9.246  0.00  0.00    -0.266 OA
HETATM   23  C   UNK N   1      35.025  13.845  10.940  0.00  0.00     0.126 C 
ENDBRANCH  20  21
ENDBRANCH  10  20
BRANCH  18  24
HETATM   24  O   UNK N   1      37.092  15.181  15.411  0.00  0.00    -0.353 OA
HETATM   25  C   UNK N   1      37.542  16.246  16.159  0.00  0.00     0.210 C 
ENDBRANCH  18  24
TORSDOF 3
ENDMDL
MODEL 8
REMARK VINA RESULT:      -6.2      6.249      8.526
REMARK  3 active torsions:
REMARK  status: ('A' for Active; 'I' for Inactive)
REMARK    1  A    between atoms: C_13  and  O_2 
REMARK    2  A    between atoms: O_2  and  C_23 
REMARK    3  A    between atoms: O_3  and  C_21 
ROOT
HETATM    1  O   UNK N   1      23.373  18.614   4.724  0.00  0.00    -0.339 OA
HETATM    2  N   UNK N   1      22.502  13.560   5.342  0.00  0.00     0.089 N 
HETATM    3  C   UNK N   1      23.472  16.278   4.822  0.00  0.00     0.026 C 
HETATM    4  C   UNK N   1      24.071  15.071   4.104  0.00  0.00     0.035 C 
HETATM    5  C   UNK N   1      24.315  17.595   4.928  0.00  0.00     0.172 C 
HETATM    6  C   UNK N   1      22.925  14.005   3.995  0.00  0.00     0.232 C 
HETATM    7  C   UNK N   1      23.003  15.846   6.228  0.00  0.00     0.048 C 
HETATM    8  C   UNK N   1      22.318  16.780   4.074  0.00  0.00    -0.004 A 
HETATM    9  C   UNK N   1      24.627  15.512   2.756  0.00  0.00     0.010 C 
HETATM   10  C   UNK N   1      25.385  17.729   3.801  0.00  0.00     0.162 C 
HETATM   11  C   UNK N   1      21.664  14.524   3.223  0.00  0.00     0.075 C 
HETATM   12  C   UNK N   1      25.790  16.458   3.027  0.00  0.00     0.036 C 
HETATM   13  C   UNK N   1      22.025  14.664   6.187  0.00  0.00     0.273 C 
HETATM   14  C   UNK N   1      21.401  16.006   3.382  0.00  0.00    -0.046 A 
HETATM   15  C   UNK N   1      22.280  18.122   4.114  0.00  0.00     0.110 A 
HETATM   16  C   UNK N   1      23.566  12.840   6.037  0.00  0.00     0.310 C 
HETATM   17  C   UNK N   1      20.336  16.662   2.747  0.00  0.00     0.011 A 
HETATM   18  C   UNK N   1      21.232  18.826   3.511  0.00  0.00     0.102 A 
HETATM   19  C   UNK N   1      20.234  18.071   2.835  0.00  0.00     0.040 A 
ENDROOT
BRANCH  10  20
HETATM   20  O   UNK N   1      26.520  18.371   4.273  0.00  0.00    -0.314 OA
BRANCH  20  21
HETATM   21  C   UNK N   1      26.874  19.640   3.910  0.00  0.00     0.255 C 
HETATM   22  O   UNK N   1      27.923  20.137   4.294  0.00  0.00    -0.266 OA
HETATM   23  C   UNK N   1      25.980  20.431   3.020  0.00  0.00     0.126 C 
ENDBRANCH  20  21
ENDBRANCH  10  20
BRANCH  18  24
HETATM   24  O   UNK N   1      21.198  20.177   3.561  0.00  0.00    -0.353 OA
HETATM   25  C   UNK N   1      21.018  20.962   2.443  0.00  0.00     0.210 C 
ENDBRANCH  18  24
TORSDOF 3
ENDMDL
MODEL 9
REMARK VINA RESULT:      -6.1     13.140     15.263
REMARK  3 active torsions:
REMARK  status: ('A' for Active; 'I' for Inactive)
REMARK    1  A    between atoms: C_13  and  O_2 
REMARK    2  A    between atoms: O_2  and  C_23 
REMARK    3  A    between atoms: O_3  and  C_21 
ROOT
HETATM    1  O   UNK N   1      29.501  24.894  -5.149  0.00  0.00    -0.339 OA
HETATM    2  N   UNK N   1      26.636  23.786  -9.302  0.00  0.00     0.089 N 
HETATM    3  C   UNK N   1      27.806  24.568  -6.729  0.00  0.00     0.026 C 
HETATM    4  C   UNK N   1      26.333  24.185  -6.847  0.00  0.00     0.035 C 
HETATM    5  C   UNK N   1      28.267  25.451  -5.519  0.00  0.00     0.172 C 
HETATM    6  C   UNK N   1      26.235  23.153  -8.025  0.00  0.00     0.232 C 
HETATM    7  C   UNK N   1      28.265  25.216  -8.052  0.00  0.00     0.048 C 
HETATM    8  C   UNK N   1      28.613  23.371  -6.485  0.00  0.00    -0.004 A 
HETATM    9  C   UNK N   1      25.846  23.637  -5.511  0.00  0.00     0.010 C 
HETATM   10  C   UNK N   1      27.324  25.337  -4.282  0.00  0.00     0.162 C 
HETATM   11  C   UNK N   1      27.111  21.873  -7.806  0.00  0.00     0.075 C 
HETATM   12  C   UNK N   1      25.904  24.775  -4.500  0.00  0.00     0.036 C 
HETATM   13  C   UNK N   1      28.006  24.320  -9.270  0.00  0.00     0.273 C 
HETATM   14  C   UNK N   1      28.384  22.115  -7.023  0.00  0.00    -0.046 A 
HETATM   15  C   UNK N   1      29.608  23.642  -5.625  0.00  0.00     0.110 A 
HETATM   16  C   UNK N   1      25.711  24.842  -9.702  0.00  0.00     0.310 C 
HETATM   17  C   UNK N   1      29.286  21.090  -6.702  0.00  0.00     0.011 A 
HETATM   18  C   UNK N   1      30.545  22.661  -5.283  0.00  0.00     0.102 A 
HETATM   19  C   UNK N   1      30.384  21.368  -5.853  0.00  0.00     0.040 A 
ENDROOT
BRANCH  10  20
HETATM   20  O   UNK N   1      27.250  26.544  -3.605  0.00  0.00    -0.314 OA
BRANCH  20  21
HETATM   21  C   UNK N   1      26.276  27.477  -3.833  0.00  0.00     0.255 C 
HETATM   22  O   UNK N   1      25.473  27.776  -2.960  0.00  0.00    -0.266 OA
HETATM   23  C   UNK N   1      26.196  28.155  -5.155  0.00  0.00     0.126 C 
ENDBRANCH  20  21
ENDBRANCH  10  20
BRANCH  18  24
HETATM   24  O   UNK N   1      31.547  22.943  -4.419  0.00  0.00    -0.353 OA
HETATM   25  C   UNK N   1      32.803  23.327  -4.832  0.00  0.00     0.210 C 
ENDBRANCH  18  24
TORSDOF 3
ENDMDL
