REMARK  1 active torsions:
REMARK  status: ('A' for Active; 'I' for Inactive)
REMARK    1  A    between atoms: N_1  and  C_3 
ROOT
HETATM    1  N   UNK N   1      -0.030   1.090  -0.834  0.00  0.00    -0.195 NA
HETATM    2  C   UNK N   1       2.114  -0.099   0.140  0.00  0.00     0.118 C 
HETATM    3  C   UNK N   1       2.807  -0.750  -1.085  0.00  0.00     0.046 C 
HETATM    4  C   UNK N   1       1.652  -1.154   1.162  0.00  0.00     0.046 C 
HETATM    5  C   UNK N   1       3.524  -2.051  -0.723  0.00  0.00     0.004 C 
HETATM    6  C   UNK N   1       1.294  -2.476   0.497  0.00  0.00     0.004 C 
HETATM    7  C   UNK N   1       2.541  -3.092  -0.158  0.00  0.00     0.000 C 
HETATM    8  C   UNK N   1       0.917   0.587  -0.400  0.00  0.00     0.090 C 
ENDROOT
BRANCH   2   9
HETATM    9  N   UNK N   1       3.003   0.839   0.870  0.00  0.00    -0.392 N 
HETATM   10  C   UNK N   1       2.637   2.262   0.975  0.00  0.00     0.118 C 
HETATM   11  C   UNK N   1       3.321   3.081  -0.111  0.00  0.00     0.019 C 
HETATM   12  C   UNK N   1       4.827   2.889  -0.002  0.00  0.00     0.003 C 
HETATM   13  C   UNK N   1       5.163   1.415  -0.194  0.00  0.00     0.019 C 
HETATM   14  C   UNK N   1       4.451   0.579   0.873  0.00  0.00     0.118 C 
ENDBRANCH   2   9
TORSDOF 1
