MODEL 1
REMARK VINA RESULT:      -5.3      0.000      0.000
REMARK  1 active torsions:
REMARK  status: ('A' for Active; 'I' for Inactive)
REMARK    1  A    between atoms: N_1  and  C_3 
ROOT
HETATM    1  N   UNK N   1      26.696  24.077  -2.902  0.00  0.00    -0.195 NA
HETATM    2  C   UNK N   1      26.887  25.962  -4.738  0.00  0.00     0.118 C 
HETATM    3  C   UNK N   1      25.430  26.229  -5.196  0.00  0.00     0.046 C 
HETATM    4  C   UNK N   1      27.756  25.421  -5.889  0.00  0.00     0.046 C 
HETATM    5  C   UNK N   1      25.348  26.624  -6.671  0.00  0.00     0.004 C 
HETATM    6  C   UNK N   1      26.943  24.612  -6.889  0.00  0.00     0.004 C 
HETATM    7  C   UNK N   1      25.906  25.514  -7.579  0.00  0.00     0.000 C 
HETATM    8  C   UNK N   1      26.789  24.916  -3.693  0.00  0.00     0.090 C 
ENDROOT
BRANCH   2   9
HETATM    9  N   UNK N   1      27.563  27.183  -4.233  0.00  0.00    -0.392 N 
HETATM   10  C   UNK N   1      26.903  28.014  -3.211  0.00  0.00     0.118 C 
HETATM   11  C   UNK N   1      26.153  29.173  -3.854  0.00  0.00     0.019 C 
HETATM   12  C   UNK N   1      27.128  29.992  -4.687  0.00  0.00     0.003 C 
HETATM   13  C   UNK N   1      27.726  29.111  -5.777  0.00  0.00     0.019 C 
HETATM   14  C   UNK N   1      28.452  27.923  -5.141  0.00  0.00     0.118 C 
ENDBRANCH   2   9
TORSDOF 1
ENDMDL
MODEL 2
REMARK VINA RESULT:      -5.0      2.122      3.629
REMARK  1 active torsions:
REMARK  status: ('A' for Active; 'I' for Inactive)
REMARK    1  A    between atoms: N_1  and  C_3 
ROOT
HETATM    1  N   UNK N   1      25.254  23.257  -6.315  0.00  0.00    -0.195 NA
HETATM    2  C   UNK N   1      26.744  25.208  -5.350  0.00  0.00     0.118 C 
HETATM    3  C   UNK N   1      26.299  25.364  -3.872  0.00  0.00     0.046 C 
HETATM    4  C   UNK N   1      26.455  26.479  -6.169  0.00  0.00     0.046 C 
HETATM    5  C   UNK N   1      26.397  26.810  -3.386  0.00  0.00     0.004 C 
HETATM    6  C   UNK N   1      25.238  27.231  -5.649  0.00  0.00     0.004 C 
HETATM    7  C   UNK N   1      25.503  27.742  -4.223  0.00  0.00     0.000 C 
HETATM    8  C   UNK N   1      25.924  24.101  -5.896  0.00  0.00     0.090 C 
ENDROOT
BRANCH   2   9
HETATM    9  N   UNK N   1      28.197  24.936  -5.486  0.00  0.00    -0.392 N 
HETATM   10  C   UNK N   1      28.795  23.789  -4.781  0.00  0.00     0.118 C 
HETATM   11  C   UNK N   1      29.402  24.223  -3.454  0.00  0.00     0.019 C 
HETATM   12  C   UNK N   1      30.434  25.311  -3.713  0.00  0.00     0.003 C 
HETATM   13  C   UNK N   1      29.754  26.505  -4.372  0.00  0.00     0.019 C 
HETATM   14  C   UNK N   1      29.110  26.071  -5.691  0.00  0.00     0.118 C 
ENDBRANCH   2   9
TORSDOF 1
ENDMDL
MODEL 3
REMARK VINA RESULT:      -4.9     15.731     17.560
REMARK  1 active torsions:
REMARK  status: ('A' for Active; 'I' for Inactive)
REMARK    1  A    between atoms: N_1  and  C_3 
ROOT
HETATM    1  N   UNK N   1      35.269  19.076   8.541  0.00  0.00    -0.195 NA
HETATM    2  C   UNK N   1      33.554  17.222   7.779  0.00  0.00     0.118 C 
HETATM    3  C   UNK N   1      33.470  16.234   8.971  0.00  0.00     0.046 C 
HETATM    4  C   UNK N   1      34.114  16.545   6.514  0.00  0.00     0.046 C 
HETATM    5  C   UNK N   1      33.223  14.795   8.516  0.00  0.00     0.004 C 
HETATM    6  C   UNK N   1      35.086  15.423   6.849  0.00  0.00     0.004 C 
HETATM    7  C   UNK N   1      34.355  14.297   7.599  0.00  0.00     0.000 C 
HETATM    8  C   UNK N   1      34.502  18.278   8.205  0.00  0.00     0.090 C 
ENDROOT
BRANCH   2   9
HETATM    9  N   UNK N   1      32.232  17.787   7.408  0.00  0.00    -0.392 N 
HETATM   10  C   UNK N   1      31.314  18.252   8.462  0.00  0.00     0.118 C 
HETATM   11  C   UNK N   1      30.308  17.168   8.823  0.00  0.00     0.019 C 
HETATM   12  C   UNK N   1      29.547  16.759   7.570  0.00  0.00     0.003 C 
HETATM   13  C   UNK N   1      30.529  16.214   6.539  0.00  0.00     0.019 C 
HETATM   14  C   UNK N   1      31.567  17.287   6.196  0.00  0.00     0.118 C 
ENDBRANCH   2   9
TORSDOF 1
ENDMDL
MODEL 4
REMARK VINA RESULT:      -4.9     23.158     25.378
REMARK  1 active torsions:
REMARK  status: ('A' for Active; 'I' for Inactive)
REMARK    1  A    between atoms: N_1  and  C_3 
ROOT
HETATM    1  N   UNK N   1      37.426  15.036  16.053  0.00  0.00    -0.195 NA
HETATM    2  C   UNK N   1      36.439  13.153  14.491  0.00  0.00     0.118 C 
HETATM    3  C   UNK N   1      34.926  13.100  14.829  0.00  0.00     0.046 C 
HETATM    4  C   UNK N   1      37.148  11.830  14.832  0.00  0.00     0.046 C 
HETATM    5  C   UNK N   1      34.351  11.690  14.692  0.00  0.00     0.004 C 
HETATM    6  C   UNK N   1      36.492  11.116  16.007  0.00  0.00     0.004 C 
HETATM    7  C   UNK N   1      35.057  10.703  15.639  0.00  0.00     0.000 C 
HETATM    8  C   UNK N   1      36.999  14.221  15.351  0.00  0.00     0.090 C 
ENDROOT
BRANCH   2   9
HETATM    9  N   UNK N   1      36.696  13.414  13.052  0.00  0.00    -0.392 N 
HETATM   10  C   UNK N   1      36.031  14.546  12.384  0.00  0.00     0.118 C 
HETATM   11  C   UNK N   1      34.767  14.088  11.669  0.00  0.00     0.019 C 
HETATM   12  C   UNK N   1      35.128  12.994  10.674  0.00  0.00     0.003 C 
HETATM   13  C   UNK N   1      35.741  11.815  11.421  0.00  0.00     0.019 C 
HETATM   14  C   UNK N   1      36.994  12.274  12.172  0.00  0.00     0.118 C 
ENDBRANCH   2   9
TORSDOF 1
ENDMDL
MODEL 5
REMARK VINA RESULT:      -4.8     14.489     16.338
REMARK  1 active torsions:
REMARK  status: ('A' for Active; 'I' for Inactive)
REMARK    1  A    between atoms: N_1  and  C_3 
ROOT
HETATM    1  N   UNK N   1      31.168  12.924   5.349  0.00  0.00    -0.195 NA
HETATM    2  C   UNK N   1      32.281  15.312   5.477  0.00  0.00     0.118 C 
HETATM    3  C   UNK N   1      31.171  16.300   5.036  0.00  0.00     0.046 C 
HETATM    4  C   UNK N   1      33.480  15.332   4.510  0.00  0.00     0.046 C 
HETATM    5  C   UNK N   1      31.734  17.516   4.299  0.00  0.00     0.004 C 
HETATM    6  C   UNK N   1      33.060  15.669   3.086  0.00  0.00     0.004 C 
HETATM    7  C   UNK N   1      32.492  17.096   3.027  0.00  0.00     0.000 C 
HETATM    8  C   UNK N   1      31.660  13.968   5.426  0.00  0.00     0.090 C 
ENDROOT
BRANCH   2   9
HETATM    9  N   UNK N   1      32.819  15.619   6.826  0.00  0.00    -0.392 N 
HETATM   10  C   UNK N   1      31.894  15.951   7.923  0.00  0.00     0.118 C 
HETATM   11  C   UNK N   1      31.747  17.459   8.072  0.00  0.00     0.019 C 
HETATM   12  C   UNK N   1      33.121  18.071   8.303  0.00  0.00     0.003 C 
HETATM   13  C   UNK N   1      34.017  17.767   7.109  0.00  0.00     0.019 C 
HETATM   14  C   UNK N   1      34.143  16.251   6.930  0.00  0.00     0.118 C 
ENDBRANCH   2   9
TORSDOF 1
ENDMDL
MODEL 6
REMARK VINA RESULT:      -4.7      1.645      2.695
REMARK  1 active torsions:
REMARK  status: ('A' for Active; 'I' for Inactive)
REMARK    1  A    between atoms: N_1  and  C_3 
ROOT
HETATM    1  N   UNK N   1      26.657  24.441  -2.908  0.00  0.00    -0.195 NA
HETATM    2  C   UNK N   1      26.794  24.542  -5.540  0.00  0.00     0.118 C 
HETATM    3  C   UNK N   1      25.860  23.409  -6.038  0.00  0.00     0.046 C 
HETATM    4  C   UNK N   1      28.257  24.298  -5.952  0.00  0.00     0.046 C 
HETATM    5  C   UNK N   1      26.352  22.781  -7.342  0.00  0.00     0.004 C 
HETATM    6  C   UNK N   1      28.583  22.814  -6.052  0.00  0.00     0.004 C 
HETATM    7  C   UNK N   1      27.753  22.165  -7.171  0.00  0.00     0.000 C 
HETATM    8  C   UNK N   1      26.710  24.505  -4.062  0.00  0.00     0.090 C 
ENDROOT
BRANCH   2   9
HETATM    9  N   UNK N   1      26.417  25.873  -6.079  0.00  0.00    -0.392 N 
HETATM   10  C   UNK N   1      27.468  26.834  -6.456  0.00  0.00     0.118 C 
HETATM   11  C   UNK N   1      27.745  27.810  -5.321  0.00  0.00     0.019 C 
HETATM   12  C   UNK N   1      26.451  28.523  -4.954  0.00  0.00     0.003 C 
HETATM   13  C   UNK N   1      25.421  27.497  -4.497  0.00  0.00     0.019 C 
HETATM   14  C   UNK N   1      25.162  26.489  -5.621  0.00  0.00     0.118 C 
ENDBRANCH   2   9
TORSDOF 1
ENDMDL
MODEL 7
REMARK VINA RESULT:      -4.7      4.898      6.279
REMARK  1 active torsions:
REMARK  status: ('A' for Active; 'I' for Inactive)
REMARK    1  A    between atoms: N_1  and  C_3 
ROOT
HETATM    1  N   UNK N   1      30.407  23.034  -1.452  0.00  0.00    -0.195 NA
HETATM    2  C   UNK N   1      31.062  22.356  -3.916  0.00  0.00     0.118 C 
HETATM    3  C   UNK N   1      30.547  20.903  -4.087  0.00  0.00     0.046 C 
HETATM    4  C   UNK N   1      32.595  22.436  -4.042  0.00  0.00     0.046 C 
HETATM    5  C   UNK N   1      31.434  20.078  -5.018  0.00  0.00     0.004 C 
HETATM    6  C   UNK N   1      33.275  21.157  -3.573  0.00  0.00     0.004 C 
HETATM    7  C   UNK N   1      32.873  19.983  -4.480  0.00  0.00     0.000 C 
HETATM    8  C   UNK N   1      30.682  22.752  -2.540  0.00  0.00     0.090 C 
ENDROOT
BRANCH   2   9
HETATM    9  N   UNK N   1      30.503  23.285  -4.930  0.00  0.00    -0.392 N 
HETATM   10  C   UNK N   1      31.034  24.655  -5.038  0.00  0.00     0.118 C 
HETATM   11  C   UNK N   1      30.179  25.634  -4.245  0.00  0.00     0.019 C 
HETATM   12  C   UNK N   1      28.744  25.557  -4.746  0.00  0.00     0.003 C 
HETATM   13  C   UNK N   1      28.213  24.143  -4.542  0.00  0.00     0.019 C 
HETATM   14  C   UNK N   1      29.088  23.147  -5.308  0.00  0.00     0.118 C 
ENDBRANCH   2   9
TORSDOF 1
ENDMDL
MODEL 8
REMARK VINA RESULT:      -4.6      1.972      4.222
REMARK  1 active torsions:
REMARK  status: ('A' for Active; 'I' for Inactive)
REMARK    1  A    between atoms: N_1  and  C_3 
ROOT
HETATM    1  N   UNK N   1      29.590  27.175  -4.095  0.00  0.00    -0.195 NA
HETATM    2  C   UNK N   1      27.374  25.855  -4.652  0.00  0.00     0.118 C 
HETATM    3  C   UNK N   1      27.046  26.220  -6.123  0.00  0.00     0.046 C 
HETATM    4  C   UNK N   1      26.276  26.336  -3.686  0.00  0.00     0.046 C 
HETATM    5  C   UNK N   1      25.541  26.255  -6.391  0.00  0.00     0.004 C 
HETATM    6  C   UNK N   1      25.583  27.595  -4.189  0.00  0.00     0.004 C 
HETATM    7  C   UNK N   1      24.840  27.299  -5.502  0.00  0.00     0.000 C 
HETATM    8  C   UNK N   1      28.628  26.578  -4.335  0.00  0.00     0.090 C 
ENDROOT
BRANCH   2   9
HETATM    9  N   UNK N   1      27.515  24.393  -4.442  0.00  0.00    -0.392 N 
HETATM   10  C   UNK N   1      27.855  23.875  -3.105  0.00  0.00     0.118 C 
HETATM   11  C   UNK N   1      29.353  23.638  -2.979  0.00  0.00     0.019 C 
HETATM   12  C   UNK N   1      29.797  22.677  -4.072  0.00  0.00     0.003 C 
HETATM   13  C   UNK N   1      29.496  23.289  -5.435  0.00  0.00     0.019 C 
HETATM   14  C   UNK N   1      27.994  23.563  -5.558  0.00  0.00     0.118 C 
ENDBRANCH   2   9
TORSDOF 1
ENDMDL
MODEL 9
REMARK VINA RESULT:      -4.5      1.680      4.348
REMARK  1 active torsions:
REMARK  status: ('A' for Active; 'I' for Inactive)
REMARK    1  A    between atoms: N_1  and  C_3 
ROOT
HETATM    1  N   UNK N   1      28.263  28.009  -8.297  0.00  0.00    -0.195 NA
HETATM    2  C   UNK N   1      27.498  27.332  -5.865  0.00  0.00     0.118 C 
HETATM    3  C   UNK N   1      25.984  27.661  -5.811  0.00  0.00     0.046 C 
HETATM    4  C   UNK N   1      28.303  28.176  -4.859  0.00  0.00     0.046 C 
HETATM    5  C   UNK N   1      25.535  28.100  -4.417  0.00  0.00     0.004 C 
HETATM    6  C   UNK N   1      27.665  29.537  -4.616  0.00  0.00     0.004 C 
HETATM    7  C   UNK N   1      26.286  29.364  -3.960  0.00  0.00     0.000 C 
HETATM    8  C   UNK N   1      27.934  27.692  -7.234  0.00  0.00     0.090 C 
ENDROOT
BRANCH   2   9
HETATM    9  N   UNK N   1      27.787  25.910  -5.552  0.00  0.00    -0.392 N 
HETATM   10  C   UNK N   1      27.047  24.843  -6.249  0.00  0.00     0.118 C 
HETATM   11  C   UNK N   1      25.860  24.374  -5.419  0.00  0.00     0.019 C 
HETATM   12  C   UNK N   1      26.359  23.903  -4.061  0.00  0.00     0.003 C 
HETATM   13  C   UNK N   1      27.048  25.060  -3.347  0.00  0.00     0.019 C 
HETATM   14  C   UNK N   1      28.223  25.562  -4.191  0.00  0.00     0.118 C 
ENDBRANCH   2   9
TORSDOF 1
ENDMDL
