MODEL 1
REMARK VINA RESULT:      -6.0      0.000      0.000
REMARK  6 active torsions:
REMARK  status: ('A' for Active; 'I' for Inactive)
REMARK    1  A    between atoms: O_1  and  C_4 
REMARK    2  A    between atoms: O_1  and  C_15 
REMARK    3  A    between atoms: C_4  and  C_10 
REMARK    4  A    between atoms: C_5  and  C_9 
REMARK    5  A    between atoms: C_9  and  C_14 
REMARK    6  A    between atoms: C_15  and  C_18 
ROOT
HETATM    1  N   UNK N   1      26.593  23.909  -6.929  0.00  0.00     0.084 N 
HETATM    2  C   UNK N   1      27.543  25.660  -4.703  0.00  0.00     0.105 C 
HETATM    3  C   UNK N   1      28.048  25.827  -6.164  0.00  0.00     0.057 C 
HETATM    4  C   UNK N   1      26.104  25.125  -4.785  0.00  0.00     0.074 C 
HETATM    5  C   UNK N   1      27.939  24.507  -6.953  0.00  0.00     0.280 C 
HETATM    6  C   UNK N   1      26.013  23.815  -5.582  0.00  0.00     0.275 C 
HETATM    7  C   UNK N   1      25.686  24.599  -7.834  0.00  0.00     0.309 C 
ENDROOT
BRANCH   2   8
HETATM    8  O   UNK N   1      27.496  26.907  -4.078  0.00  0.00    -0.305 OA
BRANCH   8   9
HETATM    9  C   UNK N   1      26.416  27.406  -3.404  0.00  0.00     0.259 C 
HETATM   10  O   UNK N   1      26.075  26.937  -2.327  0.00  0.00    -0.265 OA
BRANCH   9  11
HETATM   11  C   UNK N   1      25.633  28.528  -3.996  0.00  0.00     0.106 C 
HETATM   12  C   UNK N   1      26.345  29.844  -3.737  0.00  0.00     0.015 C 
ENDBRANCH   9  11
ENDBRANCH   8   9
ENDBRANCH   2   8
BRANCH   2  13
HETATM   13  C   UNK N   1      28.395  24.697  -3.851  0.00  0.00    -0.023 A 
HETATM   14  C   UNK N   1      29.796  24.669  -3.998  0.00  0.00     0.010 A 
HETATM   15  C   UNK N   1      30.587  23.841  -3.197  0.00  0.00     0.001 A 
HETATM   16  C   UNK N   1      29.991  23.029  -2.231  0.00  0.00     0.000 A 
HETATM   17  C   UNK N   1      28.604  23.043  -2.070  0.00  0.00     0.001 A 
HETATM   18  C   UNK N   1      27.814  23.873  -2.870  0.00  0.00     0.010 A 
ENDBRANCH   2  13
BRANCH   3  19
HETATM   19  C   UNK N   1      27.288  26.959  -6.872  0.00  0.00     0.036 C 
BRANCH  19  20
HETATM   20  C   UNK N   1      28.203  28.006  -7.409  0.00  0.00    -0.036 C 
HETATM   21  C   UNK N   1      28.359  29.145  -6.740  0.00  0.00     0.007 C 
ENDBRANCH  19  20
ENDBRANCH   3  19
TORSDOF 6
ENDMDL
MODEL 2
REMARK VINA RESULT:      -5.5     15.652     18.203
REMARK  6 active torsions:
REMARK  status: ('A' for Active; 'I' for Inactive)
REMARK    1  A    between atoms: O_1  and  C_4 
REMARK    2  A    between atoms: O_1  and  C_15 
REMARK    3  A    between atoms: C_4  and  C_10 
REMARK    4  A    between atoms: C_5  and  C_9 
REMARK    5  A    between atoms: C_9  and  C_14 
REMARK    6  A    between atoms: C_15  and  C_18 
ROOT
HETATM    1  N   UNK N   1      22.507  12.710   5.831  0.00  0.00     0.084 N 
HETATM    2  C   UNK N   1      21.920  14.175   8.366  0.00  0.00     0.105 C 
HETATM    3  C   UNK N   1      22.838  14.766   7.261  0.00  0.00     0.057 C 
HETATM    4  C   UNK N   1      20.883  13.286   7.660  0.00  0.00     0.074 C 
HETATM    5  C   UNK N   1      23.480  13.653   6.407  0.00  0.00     0.280 C 
HETATM    6  C   UNK N   1      21.539  12.189   6.806  0.00  0.00     0.275 C 
HETATM    7  C   UNK N   1      21.822  13.284   4.682  0.00  0.00     0.309 C 
ENDROOT
BRANCH   2   8
HETATM    8  O   UNK N   1      21.227  15.207   9.001  0.00  0.00    -0.305 OA
BRANCH   8   9
HETATM    9  C   UNK N   1      19.866  15.297   9.095  0.00  0.00     0.259 C 
HETATM   10  O   UNK N   1      19.224  14.479   9.737  0.00  0.00    -0.265 OA
BRANCH   9  11
HETATM   11  C   UNK N   1      19.152  16.402   8.392  0.00  0.00     0.106 C 
HETATM   12  C   UNK N   1      19.739  17.739   8.809  0.00  0.00     0.015 C 
ENDBRANCH   9  11
ENDBRANCH   8   9
ENDBRANCH   2   8
BRANCH   2  13
HETATM   13  C   UNK N   1      22.667  13.339   9.425  0.00  0.00    -0.023 A 
HETATM   14  C   UNK N   1      24.072  13.236   9.386  0.00  0.00     0.010 A 
HETATM   15  C   UNK N   1      24.769  12.527  10.367  0.00  0.00     0.001 A 
HETATM   16  C   UNK N   1      24.075  11.911  11.408  0.00  0.00     0.000 A 
HETATM   17  C   UNK N   1      22.682  12.002  11.465  0.00  0.00     0.001 A 
HETATM   18  C   UNK N   1      21.985  12.713  10.484  0.00  0.00     0.010 A 
ENDBRANCH   2  13
BRANCH   3  19
HETATM   19  C   UNK N   1      22.059  15.757   6.383  0.00  0.00     0.036 C 
BRANCH  19  20
HETATM   20  C   UNK N   1      22.937  16.816   5.809  0.00  0.00    -0.036 C 
HETATM   21  C   UNK N   1      22.392  17.930   5.329  0.00  0.00     0.007 C 
ENDBRANCH  19  20
ENDBRANCH   3  19
TORSDOF 6
ENDMDL
MODEL 3
REMARK VINA RESULT:      -5.3     11.640     13.665
REMARK  6 active torsions:
REMARK  status: ('A' for Active; 'I' for Inactive)
REMARK    1  A    between atoms: O_1  and  C_4 
REMARK    2  A    between atoms: O_1  and  C_15 
REMARK    3  A    between atoms: C_4  and  C_10 
REMARK    4  A    between atoms: C_5  and  C_9 
REMARK    5  A    between atoms: C_9  and  C_14 
REMARK    6  A    between atoms: C_15  and  C_18 
ROOT
HETATM    1  N   UNK N   1      27.396  14.866   5.651  0.00  0.00     0.084 N 
HETATM    2  C   UNK N   1      28.560  17.615   5.586  0.00  0.00     0.105 C 
HETATM    3  C   UNK N   1      29.236  16.412   4.872  0.00  0.00     0.057 C 
HETATM    4  C   UNK N   1      27.045  17.353   5.571  0.00  0.00     0.074 C 
HETATM    5  C   UNK N   1      28.849  15.074   5.534  0.00  0.00     0.280 C 
HETATM    6  C   UNK N   1      26.679  16.011   6.226  0.00  0.00     0.275 C 
HETATM    7  C   UNK N   1      26.808  14.478   4.377  0.00  0.00     0.309 C 
ENDROOT
BRANCH   2   8
HETATM    8  O   UNK N   1      28.793  18.783   4.857  0.00  0.00    -0.305 OA
BRANCH   8   9
HETATM    9  C   UNK N   1      27.874  19.774   4.649  0.00  0.00     0.259 C 
HETATM   10  O   UNK N   1      27.155  19.769   3.661  0.00  0.00    -0.265 OA
BRANCH   9  11
HETATM   11  C   UNK N   1      27.757  20.886   5.636  0.00  0.00     0.106 C 
HETATM   12  C   UNK N   1      26.315  21.013   6.098  0.00  0.00     0.015 C 
ENDBRANCH   9  11
ENDBRANCH   8   9
ENDBRANCH   2   8
BRANCH   2  13
HETATM   13  C   UNK N   1      29.025  17.824   7.042  0.00  0.00    -0.023 A 
HETATM   14  C   UNK N   1      28.106  18.231   8.029  0.00  0.00     0.010 A 
HETATM   15  C   UNK N   1      28.498  18.374   9.362  0.00  0.00     0.001 A 
HETATM   16  C   UNK N   1      29.816  18.109   9.733  0.00  0.00     0.000 A 
HETATM   17  C   UNK N   1      30.743  17.705   8.769  0.00  0.00     0.001 A 
HETATM   18  C   UNK N   1      30.348  17.560   7.436  0.00  0.00     0.010 A 
ENDBRANCH   2  13
BRANCH   3  19
HETATM   19  C   UNK N   1      28.890  16.407   3.375  0.00  0.00     0.036 C 
BRANCH  19  20
HETATM   20  C   UNK N   1      30.105  16.340   2.514  0.00  0.00    -0.036 C 
HETATM   21  C   UNK N   1      31.302  16.551   3.052  0.00  0.00     0.007 C 
ENDBRANCH  19  20
ENDBRANCH   3  19
TORSDOF 6
ENDMDL
MODEL 4
REMARK VINA RESULT:      -5.3     12.090     13.844
REMARK  6 active torsions:
REMARK  status: ('A' for Active; 'I' for Inactive)
REMARK    1  A    between atoms: O_1  and  C_4 
REMARK    2  A    between atoms: O_1  and  C_15 
REMARK    3  A    between atoms: C_4  and  C_10 
REMARK    4  A    between atoms: C_5  and  C_9 
REMARK    5  A    between atoms: C_9  and  C_14 
REMARK    6  A    between atoms: C_15  and  C_18 
ROOT
HETATM    1  N   UNK N   1      26.593  16.651   4.250  0.00  0.00     0.084 N 
HETATM    2  C   UNK N   1      28.769  17.642   6.040  0.00  0.00     0.105 C 
HETATM    3  C   UNK N   1      28.080  18.556   4.988  0.00  0.00     0.057 C 
HETATM    4  C   UNK N   1      27.722  16.613   6.495  0.00  0.00     0.074 C 
HETATM    5  C   UNK N   1      27.497  17.732   3.822  0.00  0.00     0.280 C 
HETATM    6  C   UNK N   1      27.145  15.808   5.320  0.00  0.00     0.275 C 
HETATM    7  C   UNK N   1      25.285  17.166   4.624  0.00  0.00     0.309 C 
ENDROOT
BRANCH   2   8
HETATM    8  O   UNK N   1      29.128  18.401   7.155  0.00  0.00    -0.305 OA
BRANCH   8   9
HETATM    9  C   UNK N   1      29.040  17.978   8.453  0.00  0.00     0.259 C 
HETATM   10  O   UNK N   1      28.028  18.174   9.111  0.00  0.00    -0.265 OA
BRANCH   9  11
HETATM   11  C   UNK N   1      30.199  17.282   9.080  0.00  0.00     0.106 C 
HETATM   12  C   UNK N   1      31.496  17.920   8.612  0.00  0.00     0.015 C 
ENDBRANCH   9  11
ENDBRANCH   8   9
ENDBRANCH   2   8
BRANCH   2  13
HETATM   13  C   UNK N   1      30.013  16.900   5.510  0.00  0.00    -0.023 A 
HETATM   14  C   UNK N   1      30.936  17.566   4.679  0.00  0.00     0.010 A 
HETATM   15  C   UNK N   1      32.095  16.925   4.232  0.00  0.00     0.001 A 
HETATM   16  C   UNK N   1      32.353  15.608   4.612  0.00  0.00     0.000 A 
HETATM   17  C   UNK N   1      31.451  14.931   5.436  0.00  0.00     0.001 A 
HETATM   18  C   UNK N   1      30.293  15.574   5.884  0.00  0.00     0.010 A 
ENDBRANCH   2  13
BRANCH   3  19
HETATM   19  C   UNK N   1      26.996  19.420   5.650  0.00  0.00     0.036 C 
BRANCH  19  20
HETATM   20  C   UNK N   1      27.344  20.870   5.640  0.00  0.00    -0.036 C 
HETATM   21  C   UNK N   1      26.711  21.701   6.463  0.00  0.00     0.007 C 
ENDBRANCH  19  20
ENDBRANCH   3  19
TORSDOF 6
ENDMDL
MODEL 5
REMARK VINA RESULT:      -5.2      2.223      4.119
REMARK  6 active torsions:
REMARK  status: ('A' for Active; 'I' for Inactive)
REMARK    1  A    between atoms: O_1  and  C_4 
REMARK    2  A    between atoms: O_1  and  C_15 
REMARK    3  A    between atoms: C_4  and  C_10 
REMARK    4  A    between atoms: C_5  and  C_9 
REMARK    5  A    between atoms: C_9  and  C_14 
REMARK    6  A    between atoms: C_15  and  C_18 
ROOT
HETATM    1  N   UNK N   1      29.577  26.913  -5.974  0.00  0.00     0.084 N 
HETATM    2  C   UNK N   1      27.773  24.605  -5.396  0.00  0.00     0.105 C 
HETATM    3  C   UNK N   1      27.656  25.958  -4.640  0.00  0.00     0.057 C 
HETATM    4  C   UNK N   1      28.290  24.923  -6.808  0.00  0.00     0.074 C 
HETATM    5  C   UNK N   1      28.998  26.718  -4.634  0.00  0.00     0.280 C 
HETATM    6  C   UNK N   1      29.623  25.688  -6.783  0.00  0.00     0.275 C 
HETATM    7  C   UNK N   1      28.903  27.982  -6.696  0.00  0.00     0.309 C 
ENDROOT
BRANCH   2   8
HETATM    8  O   UNK N   1      26.507  24.032  -5.529  0.00  0.00    -0.305 OA
BRANCH   8   9
HETATM    9  C   UNK N   1      25.956  23.612  -6.708  0.00  0.00     0.259 C 
HETATM   10  O   UNK N   1      25.282  24.368  -7.393  0.00  0.00    -0.265 OA
BRANCH   9  11
HETATM   11  C   UNK N   1      26.168  22.207  -7.159  0.00  0.00     0.106 C 
HETATM   12  C   UNK N   1      24.825  21.532  -7.386  0.00  0.00     0.015 C 
ENDBRANCH   9  11
ENDBRANCH   8   9
ENDBRANCH   2   8
BRANCH   2  13
HETATM   13  C   UNK N   1      28.720  23.590  -4.725  0.00  0.00    -0.023 A 
HETATM   14  C   UNK N   1      28.904  23.606  -3.328  0.00  0.00     0.010 A 
HETATM   15  C   UNK N   1      29.718  22.661  -2.698  0.00  0.00     0.001 A 
HETATM   16  C   UNK N   1      30.359  21.679  -3.453  0.00  0.00     0.000 A 
HETATM   17  C   UNK N   1      30.189  21.646  -4.839  0.00  0.00     0.001 A 
HETATM   18  C   UNK N   1      29.373  22.590  -5.468  0.00  0.00     0.010 A 
ENDBRANCH   2  13
BRANCH   3  19
HETATM   19  C   UNK N   1      26.537  26.820  -5.244  0.00  0.00     0.036 C 
BRANCH  19  20
HETATM   20  C   UNK N   1      25.717  27.496  -4.198  0.00  0.00    -0.036 C 
HETATM   21  C   UNK N   1      25.992  28.753  -3.863  0.00  0.00     0.007 C 
ENDBRANCH  19  20
ENDBRANCH   3  19
TORSDOF 6
ENDMDL
MODEL 6
REMARK VINA RESULT:      -5.1     10.628     13.604
REMARK  6 active torsions:
REMARK  status: ('A' for Active; 'I' for Inactive)
REMARK    1  A    between atoms: O_1  and  C_4 
REMARK    2  A    between atoms: O_1  and  C_15 
REMARK    3  A    between atoms: C_4  and  C_10 
REMARK    4  A    between atoms: C_5  and  C_9 
REMARK    5  A    between atoms: C_9  and  C_14 
REMARK    6  A    between atoms: C_15  and  C_18 
ROOT
HETATM    1  N   UNK N   1      29.835  16.419   5.703  0.00  0.00     0.084 N 
HETATM    2  C   UNK N   1      27.286  17.936   5.351  0.00  0.00     0.105 C 
HETATM    3  C   UNK N   1      27.731  17.370   6.729  0.00  0.00     0.057 C 
HETATM    4  C   UNK N   1      28.566  18.269   4.568  0.00  0.00     0.074 C 
HETATM    5  C   UNK N   1      28.669  16.157   6.564  0.00  0.00     0.280 C 
HETATM    6  C   UNK N   1      29.493  17.051   4.421  0.00  0.00     0.275 C 
HETATM    7  C   UNK N   1      30.852  17.191   6.402  0.00  0.00     0.309 C 
ENDROOT
BRANCH   2   8
HETATM    8  O   UNK N   1      26.585  19.128   5.539  0.00  0.00    -0.305 OA
BRANCH   8   9
HETATM    9  C   UNK N   1      26.828  20.296   4.869  0.00  0.00     0.259 C 
HETATM   10  O   UNK N   1      27.417  21.220   5.409  0.00  0.00    -0.265 OA
BRANCH   9  11
HETATM   11  C   UNK N   1      26.355  20.448   3.463  0.00  0.00     0.106 C 
HETATM   12  C   UNK N   1      24.861  20.181   3.392  0.00  0.00     0.015 C 
ENDBRANCH   9  11
ENDBRANCH   8   9
ENDBRANCH   2   8
BRANCH   2  13
HETATM   13  C   UNK N   1      26.421  16.965   4.522  0.00  0.00    -0.023 A 
HETATM   14  C   UNK N   1      25.291  16.352   5.098  0.00  0.00     0.010 A 
HETATM   15  C   UNK N   1      24.467  15.511   4.347  0.00  0.00     0.001 A 
HETATM   16  C   UNK N   1      24.756  15.270   3.003  0.00  0.00     0.000 A 
HETATM   17  C   UNK N   1      25.872  15.867   2.414  0.00  0.00     0.001 A 
HETATM   18  C   UNK N   1      26.695  16.711   3.166  0.00  0.00     0.010 A 
ENDBRANCH   2  13
BRANCH   3  19
HETATM   19  C   UNK N   1      28.392  18.468   7.576  0.00  0.00     0.036 C 
BRANCH  19  20
HETATM   20  C   UNK N   1      28.378  18.145   9.032  0.00  0.00    -0.036 C 
HETATM   21  C   UNK N   1      29.434  18.450   9.780  0.00  0.00     0.007 C 
ENDBRANCH  19  20
ENDBRANCH   3  19
TORSDOF 6
ENDMDL
MODEL 7
REMARK VINA RESULT:      -5.1     11.714     13.143
REMARK  6 active torsions:
REMARK  status: ('A' for Active; 'I' for Inactive)
REMARK    1  A    between atoms: O_1  and  C_4 
REMARK    2  A    between atoms: O_1  and  C_15 
REMARK    3  A    between atoms: C_4  and  C_10 
REMARK    4  A    between atoms: C_5  and  C_9 
REMARK    5  A    between atoms: C_9  and  C_14 
REMARK    6  A    between atoms: C_15  and  C_18 
ROOT
HETATM    1  N   UNK N   1      27.489  14.702   3.551  0.00  0.00     0.084 N 
HETATM    2  C   UNK N   1      27.887  16.996   5.421  0.00  0.00     0.105 C 
HETATM    3  C   UNK N   1      27.381  17.191   3.965  0.00  0.00     0.057 C 
HETATM    4  C   UNK N   1      27.389  15.618   5.889  0.00  0.00     0.074 C 
HETATM    5  C   UNK N   1      27.842  16.040   3.048  0.00  0.00     0.280 C 
HETATM    6  C   UNK N   1      27.850  14.485   4.959  0.00  0.00     0.275 C 
HETATM    7  C   UNK N   1      26.083  14.401   3.327  0.00  0.00     0.309 C 
ENDROOT
BRANCH   2   8
HETATM    8  O   UNK N   1      27.309  17.958   6.251  0.00  0.00    -0.305 OA
BRANCH   8   9
HETATM    9  C   UNK N   1      27.853  19.181   6.532  0.00  0.00     0.259 C 
HETATM   10  O   UNK N   1      28.370  19.406   7.616  0.00  0.00    -0.265 OA
BRANCH   9  11
HETATM   11  C   UNK N   1      27.800  20.261   5.506  0.00  0.00     0.106 C 
HETATM   12  C   UNK N   1      27.078  21.473   6.072  0.00  0.00     0.015 C 
ENDBRANCH   9  11
ENDBRANCH   8   9
ENDBRANCH   2   8
BRANCH   2  13
HETATM   13  C   UNK N   1      29.422  17.056   5.567  0.00  0.00    -0.023 A 
HETATM   14  C   UNK N   1      30.046  16.549   6.723  0.00  0.00     0.010 A 
HETATM   15  C   UNK N   1      31.437  16.548   6.849  0.00  0.00     0.001 A 
HETATM   16  C   UNK N   1      32.230  17.051   5.817  0.00  0.00     0.000 A 
HETATM   17  C   UNK N   1      31.631  17.559   4.663  0.00  0.00     0.001 A 
HETATM   18  C   UNK N   1      30.239  17.557   4.537  0.00  0.00     0.010 A 
ENDBRANCH   2  13
BRANCH   3  19
HETATM   19  C   UNK N   1      25.852  17.339   3.939  0.00  0.00     0.036 C 
BRANCH  19  20
HETATM   20  C   UNK N   1      25.418  18.636   3.347  0.00  0.00    -0.036 C 
HETATM   21  C   UNK N   1      24.492  19.362   3.966  0.00  0.00     0.007 C 
ENDBRANCH  19  20
ENDBRANCH   3  19
TORSDOF 6
ENDMDL
MODEL 8
REMARK VINA RESULT:      -5.1      2.435      5.735
REMARK  6 active torsions:
REMARK  status: ('A' for Active; 'I' for Inactive)
REMARK    1  A    between atoms: O_1  and  C_4 
REMARK    2  A    between atoms: O_1  and  C_15 
REMARK    3  A    between atoms: C_4  and  C_10 
REMARK    4  A    between atoms: C_5  and  C_9 
REMARK    5  A    between atoms: C_9  and  C_14 
REMARK    6  A    between atoms: C_15  and  C_18 
ROOT
HETATM    1  N   UNK N   1      26.645  27.734  -4.569  0.00  0.00     0.084 N 
HETATM    2  C   UNK N   1      26.093  25.246  -6.127  0.00  0.00     0.105 C 
HETATM    3  C   UNK N   1      27.201  25.315  -5.039  0.00  0.00     0.057 C 
HETATM    4  C   UNK N   1      24.986  26.225  -5.702  0.00  0.00     0.074 C 
HETATM    5  C   UNK N   1      27.712  26.756  -4.844  0.00  0.00     0.280 C 
HETATM    6  C   UNK N   1      25.515  27.654  -5.504  0.00  0.00     0.275 C 
HETATM    7  C   UNK N   1      26.182  27.645  -3.192  0.00  0.00     0.309 C 
ENDROOT
BRANCH   2   8
HETATM    8  O   UNK N   1      25.538  23.966  -6.151  0.00  0.00    -0.305 OA
BRANCH   8   9
HETATM    9  C   UNK N   1      26.020  22.915  -6.881  0.00  0.00     0.259 C 
HETATM   10  O   UNK N   1      27.125  22.444  -6.653  0.00  0.00    -0.265 OA
BRANCH   9  11
HETATM   11  C   UNK N   1      25.193  22.345  -7.983  0.00  0.00     0.106 C 
HETATM   12  C   UNK N   1      26.087  21.959  -9.150  0.00  0.00     0.015 C 
ENDBRANCH   9  11
ENDBRANCH   8   9
ENDBRANCH   2   8
BRANCH   2  13
HETATM   13  C   UNK N   1      26.580  25.615  -7.543  0.00  0.00    -0.023 A 
HETATM   14  C   UNK N   1      27.956  25.609  -7.845  0.00  0.00     0.010 A 
HETATM   15  C   UNK N   1      28.411  25.888  -9.136  0.00  0.00     0.001 A 
HETATM   16  C   UNK N   1      27.497  26.176 -10.150  0.00  0.00     0.000 A 
HETATM   17  C   UNK N   1      26.129  26.187  -9.871  0.00  0.00     0.001 A 
HETATM   18  C   UNK N   1      25.674  25.904  -8.580  0.00  0.00     0.010 A 
ENDBRANCH   2  13
BRANCH   3  19
HETATM   19  C   UNK N   1      26.694  24.725  -3.714  0.00  0.00     0.036 C 
BRANCH  19  20
HETATM   20  C   UNK N   1      27.727  23.895  -3.032  0.00  0.00    -0.036 C 
HETATM   21  C   UNK N   1      28.854  23.595  -3.672  0.00  0.00     0.007 C 
ENDBRANCH  19  20
ENDBRANCH   3  19
TORSDOF 6
ENDMDL
MODEL 9
REMARK VINA RESULT:      -5.1     22.145     25.573
REMARK  6 active torsions:
REMARK  status: ('A' for Active; 'I' for Inactive)
REMARK    1  A    between atoms: O_1  and  C_4 
REMARK    2  A    between atoms: O_1  and  C_15 
REMARK    3  A    between atoms: C_4  and  C_10 
REMARK    4  A    between atoms: C_5  and  C_9 
REMARK    5  A    between atoms: C_9  and  C_14 
REMARK    6  A    between atoms: C_15  and  C_18 
ROOT
HETATM    1  N   UNK N   1      35.828   9.281  16.560  0.00  0.00     0.084 N 
HETATM    2  C   UNK N   1      36.197  11.238  14.334  0.00  0.00     0.105 C 
HETATM    3  C   UNK N   1      35.226  11.502  15.518  0.00  0.00     0.057 C 
HETATM    4  C   UNK N   1      37.346  10.373  14.880  0.00  0.00     0.074 C 
HETATM    5  C   UNK N   1      34.738  10.184  16.153  0.00  0.00     0.280 C 
HETATM    6  C   UNK N   1      36.841   9.068  15.517  0.00  0.00     0.275 C 
HETATM    7  C   UNK N   1      36.451   9.721  17.800  0.00  0.00     0.309 C 
ENDROOT
BRANCH   2   8
HETATM    8  O   UNK N   1      36.748  12.446  13.902  0.00  0.00    -0.305 OA
BRANCH   8   9
HETATM    9  C   UNK N   1      36.166  13.296  13.002  0.00  0.00     0.259 C 
HETATM   10  O   UNK N   1      35.161  13.927  13.291  0.00  0.00    -0.265 OA
BRANCH   9  11
HETATM   11  C   UNK N   1      36.759  13.444  11.642  0.00  0.00     0.106 C 
HETATM   12  C   UNK N   1      35.708  13.141  10.588  0.00  0.00     0.015 C 
ENDBRANCH   9  11
ENDBRANCH   8   9
ENDBRANCH   2   8
BRANCH   2  13
HETATM   13  C   UNK N   1      35.546  10.519  13.135  0.00  0.00    -0.023 A 
HETATM   14  C   UNK N   1      36.340   9.788  12.230  0.00  0.00     0.010 A 
HETATM   15  C   UNK N   1      35.761   9.088  11.168  0.00  0.00     0.001 A 
HETATM   16  C   UNK N   1      34.377   9.103  10.996  0.00  0.00     0.000 A 
HETATM   17  C   UNK N   1      33.573   9.822  11.883  0.00  0.00     0.001 A 
HETATM   18  C   UNK N   1      34.153  10.520  12.946  0.00  0.00     0.010 A 
ENDBRANCH   2  13
BRANCH   3  19
HETATM   19  C   UNK N   1      35.887  12.409  16.568  0.00  0.00     0.036 C 
BRANCH  19  20
HETATM   20  C   UNK N   1      34.886  13.173  17.366  0.00  0.00    -0.036 C 
HETATM   21  C   UNK N   1      35.294  14.168  18.148  0.00  0.00     0.007 C 
ENDBRANCH  19  20
ENDBRANCH   3  19
TORSDOF 6
ENDMDL
