REMARK  6 active torsions:
REMARK  status: ('A' for Active; 'I' for Inactive)
REMARK    1  A    between atoms: O_1  and  C_4 
REMARK    2  A    between atoms: O_1  and  C_15 
REMARK    3  A    between atoms: C_4  and  C_10 
REMARK    4  A    between atoms: C_5  and  C_9 
REMARK    5  A    between atoms: C_9  and  C_14 
REMARK    6  A    between atoms: C_15  and  C_18 
ROOT
HETATM    1  N   UNK N   1       4.954  -2.675  -0.054  0.00  0.00     0.084 N 
HETATM    2  C   UNK N   1       3.839   0.029   0.550  0.00  0.00     0.105 C 
HETATM    3  C   UNK N   1       3.217  -0.903  -0.527  0.00  0.00     0.057 C 
HETATM    4  C   UNK N   1       4.450  -0.879   1.630  0.00  0.00     0.074 C 
HETATM    5  C   UNK N   1       4.260  -1.890  -1.089  0.00  0.00     0.280 C 
HETATM    6  C   UNK N   1       5.480  -1.862   1.051  0.00  0.00     0.275 C 
HETATM    7  C   UNK N   1       4.115  -3.751   0.452  0.00  0.00     0.309 C 
ENDROOT
BRANCH   2   8
HETATM    8  O   UNK N   1       2.832   0.784   1.154  0.00  0.00    -0.305 OA
BRANCH   8   9
HETATM    9  C   UNK N   1       1.963   1.606   0.491  0.00  0.00     0.259 C 
HETATM   10  O   UNK N   1       1.877   1.579  -0.728  0.00  0.00    -0.265 OA
BRANCH   9  11
HETATM   11  C   UNK N   1       1.118   2.560   1.265  0.00  0.00     0.106 C 
HETATM   12  C   UNK N   1       1.436   3.985   0.845  0.00  0.00     0.015 C 
ENDBRANCH   9  11
ENDBRANCH   8   9
ENDBRANCH   2   8
BRANCH   2  13
HETATM   13  C   UNK N   1       4.928   0.977   0.008  0.00  0.00    -0.023 A 
HETATM   14  C   UNK N   1       4.841   2.364   0.239  0.00  0.00     0.010 A 
HETATM   15  C   UNK N   1       5.845   3.231  -0.199  0.00  0.00     0.001 A 
HETATM   16  C   UNK N   1       6.957   2.726  -0.873  0.00  0.00     0.000 A 
HETATM   17  C   UNK N   1       7.062   1.354  -1.112  0.00  0.00     0.001 A 
HETATM   18  C   UNK N   1       6.058   0.487  -0.671  0.00  0.00     0.010 A 
ENDBRANCH   2  13
BRANCH   3  19
HETATM   19  C   UNK N   1       2.000  -1.649   0.041  0.00  0.00     0.036 C 
BRANCH  19  20
HETATM   20  C   UNK N   1       1.233  -2.368  -1.016  0.00  0.00    -0.036 C 
HETATM   21  C   UNK N   1       0.167  -3.087  -0.677  0.00  0.00     0.007 C 
ENDBRANCH  19  20
ENDBRANCH   3  19
TORSDOF 6
