REMARK  3 active torsions:
REMARK  status: ('A' for Active; 'I' for Inactive)
REMARK    1  A    between atoms: C_14  and  O_2 
REMARK    2  A    between atoms: O_3  and  C_18 
REMARK    3  A    between atoms: O_4  and  C_21 
ROOT
HETATM    1  O   UNK N   1       6.593  -0.084   2.002  0.00  0.00    -0.386 OA
HETATM    2  N   UNK N   1       6.750   1.871  -1.132  0.00  0.00     0.092 N 
HETATM    3  C   UNK N   1       5.346  -0.422  -0.070  0.00  0.00     0.027 C 
HETATM    4  C   UNK N   1       6.644   0.122   0.614  0.00  0.00     0.101 C 
HETATM    5  C   UNK N   1       6.733   1.617   0.334  0.00  0.00     0.262 C 
HETATM    6  C   UNK N   1       5.306  -1.925   0.266  0.00  0.00     0.049 C 
HETATM    7  C   UNK N   1       5.466  -0.205  -1.585  0.00  0.00     0.048 C 
HETATM    8  C   UNK N   1       7.896  -0.594   0.073  0.00  0.00     0.043 C 
HETATM    9  C   UNK N   1       4.075   0.356   0.370  0.00  0.00    -0.004 A 
HETATM   10  C   UNK N   1       5.583   2.310   1.089  0.00  0.00     0.078 C 
HETATM   11  C   UNK N   1       6.546  -2.675  -0.240  0.00  0.00     0.119 C 
HETATM   12  C   UNK N   1       5.617   1.295  -1.869  0.00  0.00     0.273 C 
HETATM   13  C   UNK N   1       7.819  -2.090   0.357  0.00  0.00     0.035 C 
HETATM   14  C   UNK N   1       4.241   1.649   0.949  0.00  0.00    -0.046 A 
HETATM   15  C   UNK N   1       2.736  -0.082   0.083  0.00  0.00     0.109 A 
HETATM   16  C   UNK N   1       6.788   3.300  -1.409  0.00  0.00     0.310 C 
HETATM   17  C   UNK N   1       3.140   2.409   1.317  0.00  0.00     0.011 A 
HETATM   18  C   UNK N   1       1.624   0.731   0.466  0.00  0.00     0.102 A 
HETATM   19  C   UNK N   1       1.856   1.951   1.098  0.00  0.00     0.040 A 
HETATM   20  H   UNK N   1       6.453  -0.125   2.961  0.00  0.00     0.210 HD
ENDROOT
BRANCH  11  21
HETATM   21  O   UNK N   1       6.454  -4.023   0.102  0.00  0.00    -0.396 OA
HETATM   22  H   UNK N   1       5.610  -4.437   0.340  0.00  0.00     0.210 HD
ENDBRANCH  11  21
BRANCH  15  23
HETATM   23  O   UNK N   1       2.506  -1.228  -0.611  0.00  0.00    -0.352 OA
HETATM   24  C   UNK N   1       2.576  -2.478  -0.049  0.00  0.00     0.210 C 
ENDBRANCH  15  23
BRANCH  18  25
HETATM   25  O   UNK N   1       0.325   0.404   0.246  0.00  0.00    -0.353 OA
HETATM   26  C   UNK N   1      -0.137  -0.771  -0.298  0.00  0.00     0.210 C 
ENDBRANCH  18  25
TORSDOF 3
