MODEL 1
REMARK VINA RESULT:      -6.9      0.000      0.000
REMARK  3 active torsions:
REMARK  status: ('A' for Active; 'I' for Inactive)
REMARK    1  A    between atoms: C_14  and  O_2 
REMARK    2  A    between atoms: O_3  and  C_18 
REMARK    3  A    between atoms: O_4  and  C_21 
ROOT
HETATM    1  O   UNK N   1      33.745  13.112  10.168  0.00  0.00    -0.386 OA
HETATM    2  N   UNK N   1      36.862  11.133  10.365  0.00  0.00     0.092 N 
HETATM    3  C   UNK N   1      35.638  13.396  11.684  0.00  0.00     0.027 C 
HETATM    4  C   UNK N   1      35.126  12.894  10.293  0.00  0.00     0.101 C 
HETATM    5  C   UNK N   1      35.408  11.400  10.198  0.00  0.00     0.262 C 
HETATM    6  C   UNK N   1      35.308  14.900  11.723  0.00  0.00     0.049 C 
HETATM    7  C   UNK N   1      37.155  13.169  11.756  0.00  0.00     0.048 C 
HETATM    8  C   UNK N   1      35.830  13.640   9.143  0.00  0.00     0.043 C 
HETATM    9  C   UNK N   1      35.032  12.587  12.864  0.00  0.00    -0.004 A 
HETATM   10  C   UNK N   1      34.505  10.682  11.219  0.00  0.00     0.078 C 
HETATM   11  C   UNK N   1      35.975  15.680  10.581  0.00  0.00     0.119 C 
HETATM   12  C   UNK N   1      37.448  11.671  11.600  0.00  0.00     0.273 C 
HETATM   13  C   UNK N   1      35.546  15.136   9.225  0.00  0.00     0.035 C 
HETATM   14  C   UNK N   1      34.473  11.304  12.587  0.00  0.00    -0.046 A 
HETATM   15  C   UNK N   1      35.144  12.985  14.241  0.00  0.00     0.109 A 
HETATM   16  C   UNK N   1      37.134   9.703  10.322  0.00  0.00     0.310 C 
HETATM   17  C   UNK N   1      33.960  10.518  13.608  0.00  0.00     0.011 A 
HETATM   18  C   UNK N   1      34.615  12.145  15.270  0.00  0.00     0.102 A 
HETATM   19  C   UNK N   1      34.012  10.938  14.922  0.00  0.00     0.040 A 
HETATM   20  H   UNK N   1      32.776  13.157  10.183  0.00  0.00     0.210 HD
ENDROOT
BRANCH  11  21
HETATM   21  O   UNK N   1      35.632  17.028  10.667  0.00  0.00    -0.396 OA
HETATM   22  H   UNK N   1      34.976  17.430  10.076  0.00  0.00     0.210 HD
ENDBRANCH  11  21
BRANCH  15  23
HETATM   23  O   UNK N   1      35.808  14.118  14.592  0.00  0.00    -0.352 OA
HETATM   24  C   UNK N   1      37.019  14.114  15.238  0.00  0.00     0.210 C 
ENDBRANCH  15  23
BRANCH  18  25
HETATM   25  O   UNK N   1      34.665  12.434  16.595  0.00  0.00    -0.353 OA
HETATM   26  C   UNK N   1      35.291  11.689  17.566  0.00  0.00     0.210 C 
ENDBRANCH  18  25
TORSDOF 3
ENDMDL
MODEL 2
REMARK VINA RESULT:      -6.6     19.700     23.094
REMARK  3 active torsions:
REMARK  status: ('A' for Active; 'I' for Inactive)
REMARK    1  A    between atoms: C_14  and  O_2 
REMARK    2  A    between atoms: O_3  and  C_18 
REMARK    3  A    between atoms: O_4  and  C_21 
ROOT
HETATM    1  O   UNK N   1      25.196  24.512  -5.595  0.00  0.00    -0.386 OA
HETATM    2  N   UNK N   1      27.418  25.806  -8.251  0.00  0.00     0.092 N 
HETATM    3  C   UNK N   1      27.326  25.683  -5.364  0.00  0.00     0.027 C 
HETATM    4  C   UNK N   1      26.045  25.434  -6.227  0.00  0.00     0.101 C 
HETATM    5  C   UNK N   1      26.485  24.867  -7.571  0.00  0.00     0.262 C 
HETATM    6  C   UNK N   1      26.813  26.234  -4.020  0.00  0.00     0.049 C 
HETATM    7  C   UNK N   1      28.202  26.721  -6.080  0.00  0.00     0.048 C 
HETATM    8  C   UNK N   1      25.256  26.741  -6.436  0.00  0.00     0.043 C 
HETATM    9  C   UNK N   1      28.204  24.408  -5.229  0.00  0.00    -0.004 A 
HETATM   10  C   UNK N   1      27.060  23.460  -7.327  0.00  0.00     0.078 C 
HETATM   11  C   UNK N   1      26.005  27.528  -4.184  0.00  0.00     0.119 C 
HETATM   12  C   UNK N   1      28.598  26.180  -7.460  0.00  0.00     0.273 C 
HETATM   13  C   UNK N   1      24.804  27.310  -5.095  0.00  0.00     0.035 C 
HETATM   14  C   UNK N   1      28.019  23.357  -6.174  0.00  0.00    -0.046 A 
HETATM   15  C   UNK N   1      29.300  24.293  -4.305  0.00  0.00     0.109 A 
HETATM   16  C   UNK N   1      27.880  25.252  -9.515  0.00  0.00     0.310 C 
HETATM   17  C   UNK N   1      28.808  22.216  -6.131  0.00  0.00     0.011 A 
HETATM   18  C   UNK N   1      30.100  23.108  -4.295  0.00  0.00     0.102 A 
HETATM   19  C   UNK N   1      29.816  22.084  -5.197  0.00  0.00     0.040 A 
HETATM   20  H   UNK N   1      24.712  23.776  -5.188  0.00  0.00     0.210 HD
ENDROOT
BRANCH  11  21
HETATM   21  O   UNK N   1      25.563  27.969  -2.938  0.00  0.00    -0.396 OA
HETATM   22  H   UNK N   1      25.837  27.539  -2.113  0.00  0.00     0.210 HD
ENDBRANCH  11  21
BRANCH  15  23
HETATM   23  O   UNK N   1      29.637  25.322  -3.484  0.00  0.00    -0.352 OA
HETATM   24  C   UNK N   1      30.733  26.123  -3.687  0.00  0.00     0.210 C 
ENDBRANCH  15  23
BRANCH  18  25
HETATM   25  O   UNK N   1      31.150  22.900  -3.460  0.00  0.00    -0.353 OA
HETATM   26  C   UNK N   1      31.555  21.690  -2.948  0.00  0.00     0.210 C 
ENDBRANCH  18  25
TORSDOF 3
ENDMDL
MODEL 3
REMARK VINA RESULT:      -6.5      4.104      6.963
REMARK  3 active torsions:
REMARK  status: ('A' for Active; 'I' for Inactive)
REMARK    1  A    between atoms: C_14  and  O_2 
REMARK    2  A    between atoms: O_3  and  C_18 
REMARK    3  A    between atoms: O_4  and  C_21 
ROOT
HETATM    1  O   UNK N   1      34.259  17.891   5.945  0.00  0.00    -0.386 OA
HETATM    2  N   UNK N   1      31.339  16.559   7.781  0.00  0.00     0.092 N 
HETATM    3  C   UNK N   1      33.837  15.602   6.684  0.00  0.00     0.027 C 
HETATM    4  C   UNK N   1      33.235  16.979   6.248  0.00  0.00     0.101 C 
HETATM    5  C   UNK N   1      32.411  17.522   7.409  0.00  0.00     0.262 C 
HETATM    6  C   UNK N   1      34.669  15.120   5.481  0.00  0.00     0.049 C 
HETATM    7  C   UNK N   1      32.681  14.633   6.971  0.00  0.00     0.048 C 
HETATM    8  C   UNK N   1      32.350  16.824   4.997  0.00  0.00     0.043 C 
HETATM    9  C   UNK N   1      34.644  15.702   8.009  0.00  0.00    -0.004 A 
HETATM   10  C   UNK N   1      33.379  17.873   8.555  0.00  0.00     0.078 C 
HETATM   11  C   UNK N   1      33.828  14.970   4.205  0.00  0.00     0.119 C 
HETATM   12  C   UNK N   1      31.812  15.205   8.099  0.00  0.00     0.273 C 
HETATM   13  C   UNK N   1      33.169  16.290   3.828  0.00  0.00     0.035 C 
HETATM   14  C   UNK N   1      34.412  16.824   8.858  0.00  0.00    -0.046 A 
HETATM   15  C   UNK N   1      35.492  14.652   8.504  0.00  0.00     0.109 A 
HETATM   16  C   UNK N   1      30.576  17.048   8.920  0.00  0.00     0.310 C 
HETATM   17  C   UNK N   1      35.069  16.942  10.074  0.00  0.00     0.011 A 
HETATM   18  C   UNK N   1      36.145  14.800   9.767  0.00  0.00     0.102 A 
HETATM   19  C   UNK N   1      35.934  15.959  10.512  0.00  0.00     0.040 A 
HETATM   20  H   UNK N   1      34.995  18.519   5.878  0.00  0.00     0.210 HD
ENDROOT
BRANCH  11  21
HETATM   21  O   UNK N   1      34.638  14.542   3.155  0.00  0.00    -0.396 OA
HETATM   22  H   UNK N   1      34.306  14.470   2.246  0.00  0.00     0.210 HD
ENDBRANCH  11  21
BRANCH  15  23
HETATM   23  O   UNK N   1      35.632  13.483   7.824  0.00  0.00    -0.352 OA
HETATM   24  C   UNK N   1      35.028  12.311   8.204  0.00  0.00     0.210 C 
ENDBRANCH  15  23
BRANCH  18  25
HETATM   25  O   UNK N   1      36.967  13.871  10.318  0.00  0.00    -0.353 OA
HETATM   26  C   UNK N   1      36.869  13.347  11.585  0.00  0.00     0.210 C 
ENDBRANCH  18  25
TORSDOF 3
ENDMDL
MODEL 4
REMARK VINA RESULT:      -6.1     21.130     24.290
REMARK  3 active torsions:
REMARK  status: ('A' for Active; 'I' for Inactive)
REMARK    1  A    between atoms: C_14  and  O_2 
REMARK    2  A    between atoms: O_3  and  C_18 
REMARK    3  A    between atoms: O_4  and  C_21 
ROOT
HETATM    1  O   UNK N   1      25.184  24.095  -5.963  0.00  0.00    -0.386 OA
HETATM    2  N   UNK N   1      28.713  23.825  -4.892  0.00  0.00     0.092 N 
HETATM    3  C   UNK N   1      27.058  25.566  -6.502  0.00  0.00     0.027 C 
HETATM    4  C   UNK N   1      26.580  24.128  -6.109  0.00  0.00     0.101 C 
HETATM    5  C   UNK N   1      27.230  23.762  -4.780  0.00  0.00     0.262 C 
HETATM    6  C   UNK N   1      26.353  25.880  -7.835  0.00  0.00     0.049 C 
HETATM    7  C   UNK N   1      28.582  25.540  -6.683  0.00  0.00     0.048 C 
HETATM    8  C   UNK N   1      26.969  23.102  -7.190  0.00  0.00     0.043 C 
HETATM    9  C   UNK N   1      26.781  26.607  -5.382  0.00  0.00    -0.004 A 
HETATM   10  C   UNK N   1      26.632  24.675  -3.693  0.00  0.00     0.078 C 
HETATM   11  C   UNK N   1      26.699  24.869  -8.937  0.00  0.00     0.119 C 
HETATM   12  C   UNK N   1      29.239  25.113  -5.364  0.00  0.00     0.273 C 
HETATM   13  C   UNK N   1      26.315  23.456  -8.521  0.00  0.00     0.035 C 
HETATM   14  C   UNK N   1      26.553  26.130  -4.057  0.00  0.00    -0.046 A 
HETATM   15  C   UNK N   1      26.900  28.027  -5.571  0.00  0.00     0.109 A 
HETATM   16  C   UNK N   1      29.341  23.522  -3.614  0.00  0.00     0.310 C 
HETATM   17  C   UNK N   1      26.348  27.016  -3.009  0.00  0.00     0.011 A 
HETATM   18  C   UNK N   1      26.694  28.912  -4.467  0.00  0.00     0.102 A 
HETATM   19  C   UNK N   1      26.398  28.381  -3.213  0.00  0.00     0.040 A 
HETATM   20  H   UNK N   1      24.241  24.154  -5.743  0.00  0.00     0.210 HD
ENDROOT
BRANCH  11  21
HETATM   21  O   UNK N   1      26.026  25.203 -10.111  0.00  0.00    -0.396 OA
HETATM   22  H   UNK N   1      25.349  24.626 -10.498  0.00  0.00     0.210 HD
ENDBRANCH  11  21
BRANCH  15  23
HETATM   23  O   UNK N   1      27.275  28.547  -6.770  0.00  0.00    -0.352 OA
HETATM   24  C   UNK N   1      28.520  29.072  -7.009  0.00  0.00     0.210 C 
ENDBRANCH  15  23
BRANCH  18  25
HETATM   25  O   UNK N   1      26.777  30.264  -4.543  0.00  0.00    -0.353 OA
HETATM   26  C   UNK N   1      27.687  31.062  -3.891  0.00  0.00     0.210 C 
ENDBRANCH  18  25
TORSDOF 3
ENDMDL
MODEL 5
REMARK VINA RESULT:      -6.0     20.327     23.166
REMARK  3 active torsions:
REMARK  status: ('A' for Active; 'I' for Inactive)
REMARK    1  A    between atoms: C_14  and  O_2 
REMARK    2  A    between atoms: O_3  and  C_18 
REMARK    3  A    between atoms: O_4  and  C_21 
ROOT
HETATM    1  O   UNK N   1      25.277  23.533  -6.422  0.00  0.00    -0.386 OA
HETATM    2  N   UNK N   1      27.581  25.147  -8.821  0.00  0.00     0.092 N 
HETATM    3  C   UNK N   1      27.568  24.297  -6.058  0.00  0.00     0.027 C 
HETATM    4  C   UNK N   1      26.235  24.460  -6.862  0.00  0.00     0.101 C 
HETATM    5  C   UNK N   1      26.539  24.204  -8.333  0.00  0.00     0.262 C 
HETATM    6  C   UNK N   1      27.190  24.549  -4.586  0.00  0.00     0.049 C 
HETATM    7  C   UNK N   1      28.567  25.352  -6.552  0.00  0.00     0.048 C 
HETATM    8  C   UNK N   1      25.649  25.873  -6.681  0.00  0.00     0.043 C 
HETATM    9  C   UNK N   1      28.245  22.922  -6.309  0.00  0.00    -0.004 A 
HETATM   10  C   UNK N   1      26.901  22.715  -8.490  0.00  0.00     0.078 C 
HETATM   11  C   UNK N   1      26.583  25.941  -4.363  0.00  0.00     0.119 C 
HETATM   12  C   UNK N   1      28.830  25.136  -8.048  0.00  0.00     0.273 C 
HETATM   13  C   UNK N   1      25.334  26.135  -5.212  0.00  0.00     0.035 C 
HETATM   14  C   UNK N   1      27.870  22.186  -7.472  0.00  0.00    -0.046 A 
HETATM   15  C   UNK N   1      29.341  22.421  -5.524  0.00  0.00     0.109 A 
HETATM   16  C   UNK N   1      27.911  24.879 -10.214  0.00  0.00     0.310 C 
HETATM   17  C   UNK N   1      28.477  20.974  -7.771  0.00  0.00     0.011 A 
HETATM   18  C   UNK N   1      29.950  21.174  -5.867  0.00  0.00     0.102 A 
HETATM   19  C   UNK N   1      29.483  20.468  -6.974  0.00  0.00     0.040 A 
HETATM   20  H   UNK N   1      24.700  22.792  -6.179  0.00  0.00     0.210 HD
ENDROOT
BRANCH  11  21
HETATM   21  O   UNK N   1      26.255  26.103  -3.018  0.00  0.00    -0.396 OA
HETATM   22  H   UNK N   1      25.940  26.948  -2.663  0.00  0.00     0.210 HD
ENDBRANCH  11  21
BRANCH  15  23
HETATM   23  O   UNK N   1      29.858  23.146  -4.497  0.00  0.00    -0.352 OA
HETATM   24  C   UNK N   1      31.055  23.813  -4.571  0.00  0.00     0.210 C 
ENDBRANCH  15  23
BRANCH  18  25
HETATM   25  O   UNK N   1      30.983  20.614  -5.187  0.00  0.00    -0.353 OA
HETATM   26  C   UNK N   1      32.177  20.193  -5.724  0.00  0.00     0.210 C 
ENDBRANCH  18  25
TORSDOF 3
ENDMDL
MODEL 6
REMARK VINA RESULT:      -6.0     18.951     22.373
REMARK  3 active torsions:
REMARK  status: ('A' for Active; 'I' for Inactive)
REMARK    1  A    between atoms: C_14  and  O_2 
REMARK    2  A    between atoms: O_3  and  C_18 
REMARK    3  A    between atoms: O_4  and  C_21 
ROOT
HETATM    1  O   UNK N   1      26.941  27.147  -4.057  0.00  0.00    -0.386 OA
HETATM    2  N   UNK N   1      26.371  24.361  -6.419  0.00  0.00     0.092 N 
HETATM    3  C   UNK N   1      28.588  25.837  -5.294  0.00  0.00     0.027 C 
HETATM    4  C   UNK N   1      27.127  26.392  -5.226  0.00  0.00     0.101 C 
HETATM    5  C   UNK N   1      26.172  25.204  -5.210  0.00  0.00     0.262 C 
HETATM    6  C   UNK N   1      29.499  27.080  -5.288  0.00  0.00     0.049 C 
HETATM    7  C   UNK N   1      28.750  25.050  -6.603  0.00  0.00     0.048 C 
HETATM    8  C   UNK N   1      26.823  27.300  -6.432  0.00  0.00     0.043 C 
HETATM    9  C   UNK N   1      28.892  24.827  -4.153  0.00  0.00    -0.004 A 
HETATM   10  C   UNK N   1      26.363  24.461  -3.874  0.00  0.00     0.078 C 
HETATM   11  C   UNK N   1      29.216  28.023  -6.465  0.00  0.00     0.119 C 
HETATM   12  C   UNK N   1      27.748  23.888  -6.619  0.00  0.00     0.273 C 
HETATM   13  C   UNK N   1      27.769  28.496  -6.450  0.00  0.00     0.035 C 
HETATM   14  C   UNK N   1      27.792  24.217  -3.481  0.00  0.00    -0.046 A 
HETATM   15  C   UNK N   1      30.213  24.353  -3.842  0.00  0.00     0.109 A 
HETATM   16  C   UNK N   1      25.495  23.199  -6.389  0.00  0.00     0.310 C 
HETATM   17  C   UNK N   1      28.003  23.273  -2.486  0.00  0.00     0.011 A 
HETATM   18  C   UNK N   1      30.394  23.371  -2.819  0.00  0.00     0.102 A 
HETATM   19  C   UNK N   1      29.280  22.872  -2.147  0.00  0.00     0.040 A 
HETATM   20  H   UNK N   1      26.823  27.542  -3.179  0.00  0.00     0.210 HD
ENDROOT
BRANCH  11  21
HETATM   21  O   UNK N   1      30.062  29.128  -6.397  0.00  0.00    -0.396 OA
HETATM   22  H   UNK N   1      30.096  29.795  -7.101  0.00  0.00     0.210 HD
ENDBRANCH  11  21
BRANCH  15  23
HETATM   23  O   UNK N   1      31.294  24.771  -4.552  0.00  0.00    -0.352 OA
HETATM   24  C   UNK N   1      31.852  24.045  -5.575  0.00  0.00     0.210 C 
ENDBRANCH  15  23
BRANCH  18  25
HETATM   25  O   UNK N   1      31.598  22.866  -2.447  0.00  0.00    -0.353 OA
HETATM   26  C   UNK N   1      32.153  21.685  -2.881  0.00  0.00     0.210 C 
ENDBRANCH  18  25
TORSDOF 3
ENDMDL
MODEL 7
REMARK VINA RESULT:      -5.9     19.586     23.086
REMARK  3 active torsions:
REMARK  status: ('A' for Active; 'I' for Inactive)
REMARK    1  A    between atoms: C_14  and  O_2 
REMARK    2  A    between atoms: O_3  and  C_18 
REMARK    3  A    between atoms: O_4  and  C_21 
ROOT
HETATM    1  O   UNK N   1      26.240  27.819  -2.592  0.00  0.00    -0.386 OA
HETATM    2  N   UNK N   1      26.417  27.419  -6.263  0.00  0.00     0.092 N 
HETATM    3  C   UNK N   1      28.213  27.799  -4.031  0.00  0.00     0.027 C 
HETATM    4  C   UNK N   1      26.682  28.090  -3.897  0.00  0.00     0.101 C 
HETATM    5  C   UNK N   1      25.943  27.182  -4.873  0.00  0.00     0.262 C 
HETATM    6  C   UNK N   1      28.897  28.729  -3.010  0.00  0.00     0.049 C 
HETATM    7  C   UNK N   1      28.652  28.143  -5.461  0.00  0.00     0.048 C 
HETATM    8  C   UNK N   1      26.370  29.566  -4.207  0.00  0.00     0.043 C 
HETATM    9  C   UNK N   1      28.549  26.295  -3.835  0.00  0.00    -0.004 A 
HETATM   10  C   UNK N   1      26.101  25.731  -4.383  0.00  0.00     0.078 C 
HETATM   11  C   UNK N   1      28.597  30.212  -3.272  0.00  0.00     0.119 C 
HETATM   12  C   UNK N   1      27.867  27.274  -6.452  0.00  0.00     0.273 C 
HETATM   13  C   UNK N   1      27.099  30.482  -3.229  0.00  0.00     0.035 C 
HETATM   14  C   UNK N   1      27.497  25.343  -3.983  0.00  0.00    -0.046 A 
HETATM   15  C   UNK N   1      29.886  25.794  -3.670  0.00  0.00     0.109 A 
HETATM   16  C   UNK N   1      25.750  26.523  -7.197  0.00  0.00     0.310 C 
HETATM   17  C   UNK N   1      27.747  23.983  -3.867  0.00  0.00     0.011 A 
HETATM   18  C   UNK N   1      30.111  24.386  -3.565  0.00  0.00     0.102 A 
HETATM   19  C   UNK N   1      29.026  23.514  -3.642  0.00  0.00     0.040 A 
HETATM   20  H   UNK N   1      25.959  27.492  -1.724  0.00  0.00     0.210 HD
ENDROOT
BRANCH  11  21
HETATM   21  O   UNK N   1      29.234  30.998  -2.313  0.00  0.00    -0.396 OA
HETATM   22  H   UNK N   1      29.941  30.649  -1.749  0.00  0.00     0.210 HD
ENDBRANCH  11  21
BRANCH  15  23
HETATM   23  O   UNK N   1      30.956  26.632  -3.683  0.00  0.00    -0.352 OA
HETATM   24  C   UNK N   1      31.823  26.735  -4.742  0.00  0.00     0.210 C 
ENDBRANCH  15  23
BRANCH  18  25
HETATM   25  O   UNK N   1      31.332  23.815  -3.402  0.00  0.00    -0.353 OA
HETATM   26  C   UNK N   1      31.580  22.495  -3.108  0.00  0.00     0.210 C 
ENDBRANCH  18  25
TORSDOF 3
ENDMDL
MODEL 8
REMARK VINA RESULT:      -5.9      6.759      9.614
REMARK  3 active torsions:
REMARK  status: ('A' for Active; 'I' for Inactive)
REMARK    1  A    between atoms: C_14  and  O_2 
REMARK    2  A    between atoms: O_3  and  C_18 
REMARK    3  A    between atoms: O_4  and  C_21 
ROOT
HETATM    1  O   UNK N   1      32.012  13.901   7.193  0.00  0.00    -0.386 OA
HETATM    2  N   UNK N   1      34.124  16.935   7.233  0.00  0.00     0.092 N 
HETATM    3  C   UNK N   1      32.136  15.694   5.540  0.00  0.00     0.027 C 
HETATM    4  C   UNK N   1      32.864  14.884   6.664  0.00  0.00     0.101 C 
HETATM    5  C   UNK N   1      33.251  15.857   7.771  0.00  0.00     0.262 C 
HETATM    6  C   UNK N   1      31.757  14.655   4.468  0.00  0.00     0.049 C 
HETATM    7  C   UNK N   1      33.118  16.729   4.972  0.00  0.00     0.048 C 
HETATM    8  C   UNK N   1      34.119  14.180   6.115  0.00  0.00     0.043 C 
HETATM    9  C   UNK N   1      30.930  16.508   6.084  0.00  0.00    -0.004 A 
HETATM   10  C   UNK N   1      31.955  16.358   8.436  0.00  0.00     0.078 C 
HETATM   11  C   UNK N   1      32.978  13.915   3.906  0.00  0.00     0.119 C 
HETATM   12  C   UNK N   1      33.558  17.675   6.097  0.00  0.00     0.273 C 
HETATM   13  C   UNK N   1      33.739  13.197   5.013  0.00  0.00     0.035 C 
HETATM   14  C   UNK N   1      30.870  16.775   7.484  0.00  0.00    -0.046 A 
HETATM   15  C   UNK N   1      29.954  17.143   5.239  0.00  0.00     0.109 A 
HETATM   16  C   UNK N   1      34.461  17.896   8.274  0.00  0.00     0.310 C 
HETATM   17  C   UNK N   1      29.842  17.537   8.019  0.00  0.00     0.011 A 
HETATM   18  C   UNK N   1      28.913  17.931   5.823  0.00  0.00     0.102 A 
HETATM   19  C   UNK N   1      28.870  18.088   7.207  0.00  0.00     0.040 A 
HETATM   20  H   UNK N   1      31.348  13.333   7.615  0.00  0.00     0.210 HD
ENDROOT
BRANCH  11  21
HETATM   21  O   UNK N   1      32.569  12.986   2.951  0.00  0.00    -0.396 OA
HETATM   22  H   UNK N   1      33.167  12.659   2.261  0.00  0.00     0.210 HD
ENDBRANCH  11  21
BRANCH  15  23
HETATM   23  O   UNK N   1      30.042  17.066   3.885  0.00  0.00    -0.352 OA
HETATM   24  C   UNK N   1      29.139  16.386   3.107  0.00  0.00     0.210 C 
ENDBRANCH  15  23
BRANCH  18  25
HETATM   25  O   UNK N   1      27.944  18.564   5.114  0.00  0.00    -0.353 OA
HETATM   26  C   UNK N   1      26.598  18.285   5.148  0.00  0.00     0.210 C 
ENDBRANCH  18  25
TORSDOF 3
ENDMDL
MODEL 9
REMARK VINA RESULT:      -5.8     18.561     22.135
REMARK  3 active torsions:
REMARK  status: ('A' for Active; 'I' for Inactive)
REMARK    1  A    between atoms: C_14  and  O_2 
REMARK    2  A    between atoms: O_3  and  C_18 
REMARK    3  A    between atoms: O_4  and  C_21 
ROOT
HETATM    1  O   UNK N   1      29.080  22.618  -2.695  0.00  0.00    -0.386 OA
HETATM    2  N   UNK N   1      30.510  25.470  -4.563  0.00  0.00     0.092 N 
HETATM    3  C   UNK N   1      29.852  22.690  -5.010  0.00  0.00     0.027 C 
HETATM    4  C   UNK N   1      29.968  23.273  -3.563  0.00  0.00     0.101 C 
HETATM    5  C   UNK N   1      29.609  24.753  -3.620  0.00  0.00     0.262 C 
HETATM    6  C   UNK N   1      30.207  21.197  -4.879  0.00  0.00     0.049 C 
HETATM    7  C   UNK N   1      30.864  23.414  -5.909  0.00  0.00     0.048 C 
HETATM    8  C   UNK N   1      31.394  23.095  -3.007  0.00  0.00     0.043 C 
HETATM    9  C   UNK N   1      28.458  22.954  -5.644  0.00  0.00    -0.004 A 
HETATM   10  C   UNK N   1      28.111  24.864  -3.959  0.00  0.00     0.078 C 
HETATM   11  C   UNK N   1      31.615  20.973  -4.311  0.00  0.00     0.119 C 
HETATM   12  C   UNK N   1      30.544  24.914  -5.923  0.00  0.00     0.273 C 
HETATM   13  C   UNK N   1      31.758  21.616  -2.938  0.00  0.00     0.035 C 
HETATM   14  C   UNK N   1      27.647  23.986  -5.086  0.00  0.00    -0.046 A 
HETATM   15  C   UNK N   1      28.006  22.328  -6.857  0.00  0.00     0.109 A 
HETATM   16  C   UNK N   1      30.144  26.876  -4.659  0.00  0.00     0.310 C 
HETATM   17  C   UNK N   1      26.413  24.297  -5.641  0.00  0.00     0.011 A 
HETATM   18  C   UNK N   1      26.734  22.680  -7.407  0.00  0.00     0.102 A 
HETATM   19  C   UNK N   1      25.956  23.644  -6.768  0.00  0.00     0.040 A 
HETATM   20  H   UNK N   1      28.361  22.232  -2.170  0.00  0.00     0.210 HD
ENDROOT
BRANCH  11  21
HETATM   21  O   UNK N   1      31.871  19.607  -4.209  0.00  0.00    -0.396 OA
HETATM   22  H   UNK N   1      32.273  19.103  -4.933  0.00  0.00     0.210 HD
ENDBRANCH  11  21
BRANCH  15  23
HETATM   23  O   UNK N   1      28.797  21.453  -7.533  0.00  0.00    -0.352 OA
HETATM   24  C   UNK N   1      29.448  21.769  -8.698  0.00  0.00     0.210 C 
ENDBRANCH  15  23
BRANCH  18  25
HETATM   25  O   UNK N   1      26.216  22.143  -8.542  0.00  0.00    -0.353 OA
HETATM   26  C   UNK N   1      25.544  20.948  -8.642  0.00  0.00     0.210 C 
ENDBRANCH  18  25
TORSDOF 3
ENDMDL
