MODEL 1
REMARK VINA RESULT:      -5.7      0.000      0.000
REMARK  9 active torsions:
REMARK  status: ('A' for Active; 'I' for Inactive)
REMARK    1  A    between atoms: C_6  and  O_1 
REMARK    2  A    between atoms: O_1  and  C_23 
REMARK    3  A    between atoms: C_7  and  N_3 
REMARK    4  A    between atoms: C_4  and  C_5 
REMARK    5  A    between atoms: C_4  and  C_6 
REMARK    6  A    between atoms: C_4  and  C_8 
REMARK    7  A    between atoms: C_4  and  C_9 
REMARK    8  A    between atoms: C_5  and  C_7 
REMARK    9  A    between atoms: C_6  and  C_10 
ROOT
HETATM    1  C   UNK N   1      27.713  23.785  -5.687  0.00  0.00     0.043 C 
ENDROOT
BRANCH   1   2
HETATM    2  C   UNK N   1      26.627  24.401  -4.765  0.00  0.00     0.057 C 
BRANCH   2   3
HETATM    3  C   UNK N   1      26.330  25.926  -4.876  0.00  0.00     0.219 C 
HETATM    4  C   UNK N   1      25.053  26.321  -5.624  0.00  0.00     0.043 C 
BRANCH   3   5
HETATM    5  N   UNK N   1      26.667  26.754  -3.704  0.00  0.00     0.084 N 
HETATM    6  C   UNK N   1      27.966  27.355  -3.953  0.00  0.00     0.309 C 
HETATM    7  C   UNK N   1      25.732  27.862  -3.523  0.00  0.00     0.309 C 
ENDBRANCH   3   5
ENDBRANCH   2   3
ENDBRANCH   1   2
BRANCH   1   8
HETATM    8  C   UNK N   1      28.319  24.903  -6.625  0.00  0.00     0.149 C 
BRANCH   8   9
HETATM    9  O   UNK N   1      29.709  24.881  -6.625  0.00  0.00    -0.315 OA
BRANCH   9  10
HETATM   10  C   UNK N   1      30.546  25.908  -6.324  0.00  0.00     0.255 C 
HETATM   11  O   UNK N   1      30.574  26.929  -7.005  0.00  0.00    -0.266 OA
HETATM   12  C   UNK N   1      31.508  25.759  -5.202  0.00  0.00     0.126 C 
ENDBRANCH   9  10
ENDBRANCH   8   9
BRANCH   8  13
HETATM   13  C   UNK N   1      27.766  24.799  -8.057  0.00  0.00     0.029 C 
HETATM   14  C   UNK N   1      27.325  26.177  -8.522  0.00  0.00     0.007 C 
ENDBRANCH   8  13
ENDBRANCH   1   8
BRANCH   1  15
HETATM   15  C   UNK N   1      27.007  22.804  -6.641  0.00  0.00    -0.042 A 
HETATM   16  C   UNK N   1      25.612  22.648  -6.686  0.00  0.00     0.008 A 
HETATM   17  C   UNK N   1      25.026  21.698  -7.526  0.00  0.00     0.001 A 
HETATM   18  C   UNK N   1      25.826  20.886  -8.333  0.00  0.00     0.000 A 
HETATM   19  C   UNK N   1      27.214  21.023  -8.300  0.00  0.00     0.001 A 
HETATM   20  C   UNK N   1      27.799  21.968  -7.456  0.00  0.00     0.008 A 
ENDBRANCH   1  15
BRANCH   1  21
HETATM   21  C   UNK N   1      28.815  23.245  -4.735  0.00  0.00    -0.042 A 
HETATM   22  C   UNK N   1      28.889  23.751  -3.418  0.00  0.00     0.008 A 
HETATM   23  C   UNK N   1      29.823  23.274  -2.501  0.00  0.00     0.001 A 
HETATM   24  C   UNK N   1      30.683  22.243  -2.867  0.00  0.00     0.000 A 
HETATM   25  C   UNK N   1      30.619  21.709  -4.156  0.00  0.00     0.001 A 
HETATM   26  C   UNK N   1      29.701  22.215  -5.085  0.00  0.00     0.008 A 
ENDBRANCH   1  21
TORSDOF 9
ENDMDL
MODEL 2
REMARK VINA RESULT:      -5.6     11.083     13.831
REMARK  9 active torsions:
REMARK  status: ('A' for Active; 'I' for Inactive)
REMARK    1  A    between atoms: C_6  and  O_1 
REMARK    2  A    between atoms: O_1  and  C_23 
REMARK    3  A    between atoms: C_7  and  N_3 
REMARK    4  A    between atoms: C_4  and  C_5 
REMARK    5  A    between atoms: C_4  and  C_6 
REMARK    6  A    between atoms: C_4  and  C_8 
REMARK    7  A    between atoms: C_4  and  C_9 
REMARK    8  A    between atoms: C_5  and  C_7 
REMARK    9  A    between atoms: C_6  and  C_10 
ROOT
HETATM    1  C   UNK N   1      29.563  17.133   5.460  0.00  0.00     0.043 C 
ENDROOT
BRANCH   1   2
HETATM    2  C   UNK N   1      29.240  18.504   4.807  0.00  0.00     0.057 C 
BRANCH   2   3
HETATM    3  C   UNK N   1      27.817  19.107   5.001  0.00  0.00     0.219 C 
HETATM    4  C   UNK N   1      27.726  20.393   5.828  0.00  0.00     0.043 C 
BRANCH   3   5
HETATM    5  N   UNK N   1      26.897  19.019   3.853  0.00  0.00     0.084 N 
HETATM    6  C   UNK N   1      25.741  18.248   4.277  0.00  0.00     0.309 C 
HETATM    7  C   UNK N   1      26.390  20.328   3.449  0.00  0.00     0.309 C 
ENDBRANCH   3   5
ENDBRANCH   2   3
ENDBRANCH   1   2
BRANCH   1   8
HETATM    8  C   UNK N   1      31.088  16.780   5.244  0.00  0.00     0.149 C 
BRANCH   8   9
HETATM    9  O   UNK N   1      31.270  15.433   4.953  0.00  0.00    -0.315 OA
BRANCH   9  10
HETATM   10  C   UNK N   1      31.622  14.447   5.819  0.00  0.00     0.255 C 
HETATM   11  O   UNK N   1      31.295  13.280   5.625  0.00  0.00    -0.266 OA
HETATM   12  C   UNK N   1      32.343  14.799   7.070  0.00  0.00     0.126 C 
ENDBRANCH   9  10
ENDBRANCH   8   9
BRANCH   8  13
HETATM   13  C   UNK N   1      31.725  17.669   4.163  0.00  0.00     0.029 C 
HETATM   14  C   UNK N   1      32.353  16.786   3.097  0.00  0.00     0.007 C 
ENDBRANCH   8  13
ENDBRANCH   1   8
BRANCH   1  15
HETATM   15  C   UNK N   1      28.789  16.055   4.679  0.00  0.00    -0.042 A 
HETATM   16  C   UNK N   1      28.662  16.065   3.281  0.00  0.00     0.008 A 
HETATM   17  C   UNK N   1      27.895  15.097   2.627  0.00  0.00     0.001 A 
HETATM   18  C   UNK N   1      27.241  14.105   3.361  0.00  0.00     0.000 A 
HETATM   19  C   UNK N   1      27.352  14.081   4.751  0.00  0.00     0.001 A 
HETATM   20  C   UNK N   1      28.113  15.052   5.405  0.00  0.00     0.008 A 
ENDBRANCH   1  15
BRANCH   1  21
HETATM   21  C   UNK N   1      29.276  17.314   6.975  0.00  0.00    -0.042 A 
HETATM   22  C   UNK N   1      30.308  17.790   7.815  0.00  0.00     0.008 A 
HETATM   23  C   UNK N   1      30.101  18.019   9.174  0.00  0.00     0.001 A 
HETATM   24  C   UNK N   1      28.837  17.816   9.721  0.00  0.00     0.000 A 
HETATM   25  C   UNK N   1      27.793  17.364   8.911  0.00  0.00     0.001 A 
HETATM   26  C   UNK N   1      28.015  17.104   7.554  0.00  0.00     0.008 A 
ENDBRANCH   1  21
TORSDOF 9
ENDMDL
MODEL 3
REMARK VINA RESULT:      -5.6      1.471      4.290
REMARK  9 active torsions:
REMARK  status: ('A' for Active; 'I' for Inactive)
REMARK    1  A    between atoms: C_6  and  O_1 
REMARK    2  A    between atoms: O_1  and  C_23 
REMARK    3  A    between atoms: C_7  and  N_3 
REMARK    4  A    between atoms: C_4  and  C_5 
REMARK    5  A    between atoms: C_4  and  C_6 
REMARK    6  A    between atoms: C_4  and  C_8 
REMARK    7  A    between atoms: C_4  and  C_9 
REMARK    8  A    between atoms: C_5  and  C_7 
REMARK    9  A    between atoms: C_6  and  C_10 
ROOT
HETATM    1  C   UNK N   1      27.377  24.189  -6.369  0.00  0.00     0.043 C 
ENDROOT
BRANCH   1   2
HETATM    2  C   UNK N   1      26.267  24.743  -5.436  0.00  0.00     0.057 C 
BRANCH   2   3
HETATM    3  C   UNK N   1      26.194  26.280  -5.192  0.00  0.00     0.219 C 
HETATM    4  C   UNK N   1      24.985  27.009  -5.785  0.00  0.00     0.043 C 
BRANCH   3   5
HETATM    5  N   UNK N   1      26.653  26.765  -3.878  0.00  0.00     0.084 N 
HETATM    6  C   UNK N   1      27.935  27.418  -4.077  0.00  0.00     0.309 C 
HETATM    7  C   UNK N   1      25.761  27.778  -3.320  0.00  0.00     0.309 C 
ENDBRANCH   3   5
ENDBRANCH   2   3
ENDBRANCH   1   2
BRANCH   1   8
HETATM    8  C   UNK N   1      28.636  23.763  -5.513  0.00  0.00     0.149 C 
BRANCH   8   9
HETATM    9  O   UNK N   1      28.395  23.873  -4.149  0.00  0.00    -0.315 OA
BRANCH   9  10
HETATM   10  C   UNK N   1      29.319  23.945  -3.155  0.00  0.00     0.255 C 
HETATM   11  O   UNK N   1      30.201  24.799  -3.164  0.00  0.00    -0.266 OA
HETATM   12  C   UNK N   1      29.316  22.917  -2.082  0.00  0.00     0.126 C 
ENDBRANCH   9  10
ENDBRANCH   8   9
BRANCH   8  13
HETATM   13  C   UNK N   1      29.112  22.347  -5.877  0.00  0.00     0.029 C 
HETATM   14  C   UNK N   1      30.584  22.397  -6.253  0.00  0.00     0.007 C 
ENDBRANCH   8  13
ENDBRANCH   1   8
BRANCH   1  15
HETATM   15  C   UNK N   1      27.868  25.356  -7.245  0.00  0.00    -0.042 A 
HETATM   16  C   UNK N   1      27.147  25.844  -8.347  0.00  0.00     0.008 A 
HETATM   17  C   UNK N   1      27.668  26.863  -9.147  0.00  0.00     0.001 A 
HETATM   18  C   UNK N   1      28.920  27.411  -8.859  0.00  0.00     0.000 A 
HETATM   19  C   UNK N   1      29.654  26.938  -7.772  0.00  0.00     0.001 A 
HETATM   20  C   UNK N   1      29.136  25.915  -6.976  0.00  0.00     0.008 A 
ENDBRANCH   1  15
BRANCH   1  21
HETATM   21  C   UNK N   1      26.763  22.940  -7.056  0.00  0.00    -0.042 A 
HETATM   22  C   UNK N   1      25.507  22.465  -6.616  0.00  0.00     0.008 A 
HETATM   23  C   UNK N   1      24.880  21.378  -7.223  0.00  0.00     0.001 A 
HETATM   24  C   UNK N   1      25.478  20.763  -8.320  0.00  0.00     0.000 A 
HETATM   25  C   UNK N   1      26.710  21.225  -8.789  0.00  0.00     0.001 A 
HETATM   26  C   UNK N   1      27.352  22.295  -8.155  0.00  0.00     0.008 A 
ENDBRANCH   1  21
TORSDOF 9
ENDMDL
MODEL 4
REMARK VINA RESULT:      -5.5     10.885     13.465
REMARK  9 active torsions:
REMARK  status: ('A' for Active; 'I' for Inactive)
REMARK    1  A    between atoms: C_6  and  O_1 
REMARK    2  A    between atoms: O_1  and  C_23 
REMARK    3  A    between atoms: C_7  and  N_3 
REMARK    4  A    between atoms: C_4  and  C_5 
REMARK    5  A    between atoms: C_4  and  C_6 
REMARK    6  A    between atoms: C_4  and  C_8 
REMARK    7  A    between atoms: C_4  and  C_9 
REMARK    8  A    between atoms: C_5  and  C_7 
REMARK    9  A    between atoms: C_6  and  C_10 
ROOT
HETATM    1  C   UNK N   1      28.456  17.455   5.557  0.00  0.00     0.043 C 
ENDROOT
BRANCH   1   2
HETATM    2  C   UNK N   1      28.279  18.919   5.074  0.00  0.00     0.057 C 
BRANCH   2   3
HETATM    3  C   UNK N   1      27.085  19.751   5.631  0.00  0.00     0.219 C 
HETATM    4  C   UNK N   1      27.401  20.717   6.777  0.00  0.00     0.043 C 
BRANCH   3   5
HETATM    5  N   UNK N   1      26.092  20.224   4.651  0.00  0.00     0.084 N 
HETATM    6  C   UNK N   1      26.713  20.170   3.338  0.00  0.00     0.309 C 
HETATM    7  C   UNK N   1      24.921  19.353   4.584  0.00  0.00     0.309 C 
ENDBRANCH   3   5
ENDBRANCH   2   3
ENDBRANCH   1   2
BRANCH   1   8
HETATM    8  C   UNK N   1      29.685  16.790   4.819  0.00  0.00     0.149 C 
BRANCH   8   9
HETATM    9  O   UNK N   1      30.711  17.701   4.599  0.00  0.00    -0.315 OA
BRANCH   9  10
HETATM   10  C   UNK N   1      31.937  17.445   4.073  0.00  0.00     0.255 C 
HETATM   11  O   UNK N   1      32.068  17.070   2.912  0.00  0.00    -0.266 OA
HETATM   12  C   UNK N   1      33.137  17.536   4.945  0.00  0.00     0.126 C 
ENDBRANCH   9  10
ENDBRANCH   8   9
BRANCH   8  13
HETATM   13  C   UNK N   1      30.196  15.554   5.577  0.00  0.00     0.029 C 
HETATM   14  C   UNK N   1      29.936  14.312   4.740  0.00  0.00     0.007 C 
ENDBRANCH   8  13
ENDBRANCH   1   8
BRANCH   1  15
HETATM   15  C   UNK N   1      27.226  16.660   5.080  0.00  0.00    -0.042 A 
HETATM   16  C   UNK N   1      26.922  16.458   3.724  0.00  0.00     0.008 A 
HETATM   17  C   UNK N   1      25.759  15.782   3.346  0.00  0.00     0.001 A 
HETATM   18  C   UNK N   1      24.880  15.299   4.318  0.00  0.00     0.000 A 
HETATM   19  C   UNK N   1      25.163  15.493   5.670  0.00  0.00     0.001 A 
HETATM   20  C   UNK N   1      26.321  16.174   6.047  0.00  0.00     0.008 A 
ENDBRANCH   1  15
BRANCH   1  21
HETATM   21  C   UNK N   1      28.746  17.548   7.079  0.00  0.00    -0.042 A 
HETATM   22  C   UNK N   1      29.946  18.155   7.511  0.00  0.00     0.008 A 
HETATM   23  C   UNK N   1      30.243  18.313   8.864  0.00  0.00     0.001 A 
HETATM   24  C   UNK N   1      29.322  17.902   9.823  0.00  0.00     0.000 A 
HETATM   25  C   UNK N   1      28.118  17.317   9.424  0.00  0.00     0.001 A 
HETATM   26  C   UNK N   1      27.839  17.130   8.065  0.00  0.00     0.008 A 
ENDBRANCH   1  21
TORSDOF 9
ENDMDL
MODEL 5
REMARK VINA RESULT:      -5.5     27.609     31.175
REMARK  9 active torsions:
REMARK  status: ('A' for Active; 'I' for Inactive)
REMARK    1  A    between atoms: C_6  and  O_1 
REMARK    2  A    between atoms: O_1  and  C_23 
REMARK    3  A    between atoms: C_7  and  N_3 
REMARK    4  A    between atoms: C_4  and  C_5 
REMARK    5  A    between atoms: C_4  and  C_6 
REMARK    6  A    between atoms: C_4  and  C_8 
REMARK    7  A    between atoms: C_4  and  C_9 
REMARK    8  A    between atoms: C_5  and  C_7 
REMARK    9  A    between atoms: C_6  and  C_10 
ROOT
HETATM    1  C   UNK N   1      34.765   9.655  20.012  0.00  0.00     0.043 C 
ENDROOT
BRANCH   1   2
HETATM    2  C   UNK N   1      33.714   8.829  19.224  0.00  0.00     0.057 C 
BRANCH   2   3
HETATM    3  C   UNK N   1      32.723   7.928  20.019  0.00  0.00     0.219 C 
HETATM    4  C   UNK N   1      31.240   8.303  19.936  0.00  0.00     0.043 C 
BRANCH   3   5
HETATM    5  N   UNK N   1      33.017   6.484  20.046  0.00  0.00     0.084 N 
HETATM    6  C   UNK N   1      32.946   6.050  21.432  0.00  0.00     0.309 C 
HETATM    7  C   UNK N   1      32.017   5.702  19.323  0.00  0.00     0.309 C 
ENDBRANCH   3   5
ENDBRANCH   2   3
ENDBRANCH   1   2
BRANCH   1   8
HETATM    8  C   UNK N   1      36.114   8.840  20.128  0.00  0.00     0.149 C 
BRANCH   8   9
HETATM    9  O   UNK N   1      36.137   7.752  19.263  0.00  0.00    -0.315 OA
BRANCH   9  10
HETATM   10  C   UNK N   1      36.510   6.479  19.556  0.00  0.00     0.255 C 
HETATM   11  O   UNK N   1      36.621   5.628  18.678  0.00  0.00    -0.266 OA
HETATM   12  C   UNK N   1      36.706   6.086  20.976  0.00  0.00     0.126 C 
ENDBRANCH   9  10
ENDBRANCH   8   9
BRANCH   8  13
HETATM   13  C   UNK N   1      37.339   9.744  19.909  0.00  0.00     0.029 C 
HETATM   14  C   UNK N   1      38.306   9.561  21.068  0.00  0.00     0.007 C 
ENDBRANCH   8  13
ENDBRANCH   1   8
BRANCH   1  15
HETATM   15  C   UNK N   1      34.256   9.790  21.459  0.00  0.00    -0.042 A 
HETATM   16  C   UNK N   1      33.191  10.630  21.822  0.00  0.00     0.008 A 
HETATM   17  C   UNK N   1      32.810  10.763  23.159  0.00  0.00     0.001 A 
HETATM   18  C   UNK N   1      33.489  10.059  24.156  0.00  0.00     0.000 A 
HETATM   19  C   UNK N   1      34.552   9.222  23.816  0.00  0.00     0.001 A 
HETATM   20  C   UNK N   1      34.937   9.094  22.481  0.00  0.00     0.008 A 
ENDBRANCH   1  15
BRANCH   1  21
HETATM   21  C   UNK N   1      35.000  10.942  19.176  0.00  0.00    -0.042 A 
HETATM   22  C   UNK N   1      35.032  10.846  17.766  0.00  0.00     0.008 A 
HETATM   23  C   UNK N   1      35.190  11.970  16.958  0.00  0.00     0.001 A 
HETATM   24  C   UNK N   1      35.279  13.230  17.541  0.00  0.00     0.000 A 
HETATM   25  C   UNK N   1      35.230  13.358  18.931  0.00  0.00     0.001 A 
HETATM   26  C   UNK N   1      35.104  12.222  19.741  0.00  0.00     0.008 A 
ENDBRANCH   1  21
TORSDOF 9
ENDMDL
MODEL 6
REMARK VINA RESULT:      -5.5      1.991      4.946
REMARK  9 active torsions:
REMARK  status: ('A' for Active; 'I' for Inactive)
REMARK    1  A    between atoms: C_6  and  O_1 
REMARK    2  A    between atoms: O_1  and  C_23 
REMARK    3  A    between atoms: C_7  and  N_3 
REMARK    4  A    between atoms: C_4  and  C_5 
REMARK    5  A    between atoms: C_4  and  C_6 
REMARK    6  A    between atoms: C_4  and  C_8 
REMARK    7  A    between atoms: C_4  and  C_9 
REMARK    8  A    between atoms: C_5  and  C_7 
REMARK    9  A    between atoms: C_6  and  C_10 
ROOT
HETATM    1  C   UNK N   1      27.316  24.915  -5.276  0.00  0.00     0.043 C 
ENDROOT
BRANCH   1   2
HETATM    2  C   UNK N   1      26.052  25.444  -4.548  0.00  0.00     0.057 C 
BRANCH   2   3
HETATM    3  C   UNK N   1      25.599  26.912  -4.810  0.00  0.00     0.219 C 
HETATM    4  C   UNK N   1      24.452  27.106  -5.807  0.00  0.00     0.043 C 
BRANCH   3   5
HETATM    5  N   UNK N   1      25.600  27.823  -3.651  0.00  0.00     0.084 N 
HETATM    6  C   UNK N   1      26.438  27.224  -2.626  0.00  0.00     0.309 C 
HETATM    7  C   UNK N   1      26.201  29.116  -3.966  0.00  0.00     0.309 C 
ENDBRANCH   3   5
ENDBRANCH   2   3
ENDBRANCH   1   2
BRANCH   1   8
HETATM    8  C   UNK N   1      26.934  23.682  -6.189  0.00  0.00     0.149 C 
BRANCH   8   9
HETATM    9  O   UNK N   1      25.693  23.849  -6.791  0.00  0.00    -0.315 OA
BRANCH   9  10
HETATM   10  C   UNK N   1      25.083  23.004  -7.662  0.00  0.00     0.255 C 
HETATM   11  O   UNK N   1      24.632  23.404  -8.731  0.00  0.00    -0.266 OA
HETATM   12  C   UNK N   1      24.880  21.583  -7.276  0.00  0.00     0.126 C 
ENDBRANCH   9  10
ENDBRANCH   8   9
BRANCH   8  13
HETATM   13  C   UNK N   1      28.023  23.399  -7.237  0.00  0.00     0.029 C 
HETATM   14  C   UNK N   1      28.594  22.010  -7.000  0.00  0.00     0.007 C 
ENDBRANCH   8  13
ENDBRANCH   1   8
BRANCH   1  15
HETATM   15  C   UNK N   1      28.259  24.339  -4.204  0.00  0.00    -0.042 A 
HETATM   16  C   UNK N   1      29.655  24.298  -4.353  0.00  0.00     0.008 A 
HETATM   17  C   UNK N   1      30.460  23.707  -3.376  0.00  0.00     0.001 A 
HETATM   18  C   UNK N   1      29.882  23.147  -2.234  0.00  0.00     0.000 A 
HETATM   19  C   UNK N   1      28.498  23.175  -2.069  0.00  0.00     0.001 A 
HETATM   20  C   UNK N   1      27.693  23.759  -3.049  0.00  0.00     0.008 A 
ENDBRANCH   1  15
BRANCH   1  21
HETATM   21  C   UNK N   1      27.813  26.089  -6.162  0.00  0.00    -0.042 A 
HETATM   22  C   UNK N   1      28.768  26.987  -5.634  0.00  0.00     0.008 A 
HETATM   23  C   UNK N   1      29.290  28.032  -6.394  0.00  0.00     0.001 A 
HETATM   24  C   UNK N   1      28.898  28.181  -7.721  0.00  0.00     0.000 A 
HETATM   25  C   UNK N   1      27.970  27.296  -8.275  0.00  0.00     0.001 A 
HETATM   26  C   UNK N   1      27.424  26.267  -7.498  0.00  0.00     0.008 A 
ENDBRANCH   1  21
TORSDOF 9
ENDMDL
MODEL 7
REMARK VINA RESULT:      -5.4     11.650     14.076
REMARK  9 active torsions:
REMARK  status: ('A' for Active; 'I' for Inactive)
REMARK    1  A    between atoms: C_6  and  O_1 
REMARK    2  A    between atoms: O_1  and  C_23 
REMARK    3  A    between atoms: C_7  and  N_3 
REMARK    4  A    between atoms: C_4  and  C_5 
REMARK    5  A    between atoms: C_4  and  C_6 
REMARK    6  A    between atoms: C_4  and  C_8 
REMARK    7  A    between atoms: C_4  and  C_9 
REMARK    8  A    between atoms: C_5  and  C_7 
REMARK    9  A    between atoms: C_6  and  C_10 
ROOT
HETATM    1  C   UNK N   1      29.201  16.605   5.672  0.00  0.00     0.043 C 
ENDROOT
BRANCH   1   2
HETATM    2  C   UNK N   1      28.626  15.179   5.886  0.00  0.00     0.057 C 
BRANCH   2   3
HETATM    3  C   UNK N   1      27.126  14.921   5.553  0.00  0.00     0.219 C 
HETATM    4  C   UNK N   1      26.820  13.697   4.684  0.00  0.00     0.043 C 
BRANCH   3   5
HETATM    5  N   UNK N   1      26.151  15.207   6.620  0.00  0.00     0.084 N 
HETATM    6  C   UNK N   1      25.038  15.919   6.015  0.00  0.00     0.309 C 
HETATM    7  C   UNK N   1      25.590  13.988   7.198  0.00  0.00     0.309 C 
ENDBRANCH   3   5
ENDBRANCH   2   3
ENDBRANCH   1   2
BRANCH   1   8
HETATM    8  C   UNK N   1      28.214  17.453   4.775  0.00  0.00     0.149 C 
BRANCH   8   9
HETATM    9  O   UNK N   1      28.551  18.802   4.769  0.00  0.00    -0.315 OA
BRANCH   9  10
HETATM   10  C   UNK N   1      27.700  19.860   4.759  0.00  0.00     0.255 C 
HETATM   11  O   UNK N   1      27.115  20.200   3.734  0.00  0.00    -0.266 OA
HETATM   12  C   UNK N   1      27.539  20.677   5.989  0.00  0.00     0.126 C 
ENDBRANCH   9  10
ENDBRANCH   8   9
BRANCH   8  13
HETATM   13  C   UNK N   1      28.135  16.898   3.343  0.00  0.00     0.029 C 
HETATM   14  C   UNK N   1      26.681  16.867   2.901  0.00  0.00     0.007 C 
ENDBRANCH   8  13
ENDBRANCH   1   8
BRANCH   1  15
HETATM   15  C   UNK N   1      30.483  16.464   4.831  0.00  0.00    -0.042 A 
HETATM   16  C   UNK N   1      31.277  17.558   4.454  0.00  0.00     0.008 A 
HETATM   17  C   UNK N   1      32.396  17.381   3.637  0.00  0.00     0.001 A 
HETATM   18  C   UNK N   1      32.739  16.106   3.182  0.00  0.00     0.000 A 
HETATM   19  C   UNK N   1      31.961  15.006   3.543  0.00  0.00     0.001 A 
HETATM   20  C   UNK N   1      30.839  15.184   4.354  0.00  0.00     0.008 A 
ENDBRANCH   1  15
BRANCH   1  21
HETATM   21  C   UNK N   1      29.296  17.235   7.088  0.00  0.00    -0.042 A 
HETATM   22  C   UNK N   1      30.572  17.528   7.621  0.00  0.00     0.008 A 
HETATM   23  C   UNK N   1      30.724  18.139   8.865  0.00  0.00     0.001 A 
HETATM   24  C   UNK N   1      29.596  18.511   9.591  0.00  0.00     0.000 A 
HETATM   25  C   UNK N   1      28.323  18.252   9.079  0.00  0.00     0.001 A 
HETATM   26  C   UNK N   1      28.175  17.608   7.845  0.00  0.00     0.008 A 
ENDBRANCH   1  21
TORSDOF 9
ENDMDL
MODEL 8
REMARK VINA RESULT:      -5.4      1.906      5.069
REMARK  9 active torsions:
REMARK  status: ('A' for Active; 'I' for Inactive)
REMARK    1  A    between atoms: C_6  and  O_1 
REMARK    2  A    between atoms: O_1  and  C_23 
REMARK    3  A    between atoms: C_7  and  N_3 
REMARK    4  A    between atoms: C_4  and  C_5 
REMARK    5  A    between atoms: C_4  and  C_6 
REMARK    6  A    between atoms: C_4  and  C_8 
REMARK    7  A    between atoms: C_4  and  C_9 
REMARK    8  A    between atoms: C_5  and  C_7 
REMARK    9  A    between atoms: C_6  and  C_10 
ROOT
HETATM    1  C   UNK N   1      27.705  25.108  -6.842  0.00  0.00     0.043 C 
ENDROOT
BRANCH   1   2
HETATM    2  C   UNK N   1      28.951  24.759  -5.986  0.00  0.00     0.057 C 
BRANCH   2   3
HETATM    3  C   UNK N   1      28.838  23.617  -4.932  0.00  0.00     0.219 C 
HETATM    4  C   UNK N   1      29.623  22.335  -5.225  0.00  0.00     0.043 C 
BRANCH   3   5
HETATM    5  N   UNK N   1      28.784  24.024  -3.516  0.00  0.00     0.084 N 
HETATM    6  C   UNK N   1      27.395  23.961  -3.096  0.00  0.00     0.309 C 
HETATM    7  C   UNK N   1      29.517  23.106  -2.648  0.00  0.00     0.309 C 
ENDBRANCH   3   5
ENDBRANCH   2   3
ENDBRANCH   1   2
BRANCH   1   8
HETATM    8  C   UNK N   1      28.151  25.843  -8.167  0.00  0.00     0.149 C 
BRANCH   8   9
HETATM    9  O   UNK N   1      27.086  26.487  -8.785  0.00  0.00    -0.315 OA
BRANCH   9  10
HETATM   10  C   UNK N   1      26.521  26.176  -9.981  0.00  0.00     0.255 C 
HETATM   11  O   UNK N   1      26.988  26.593 -11.037  0.00  0.00    -0.266 OA
HETATM   12  C   UNK N   1      25.262  25.386 -10.007  0.00  0.00     0.126 C 
ENDBRANCH   9  10
ENDBRANCH   8   9
BRANCH   8  13
HETATM   13  C   UNK N   1      29.311  26.820  -7.907  0.00  0.00     0.029 C 
HETATM   14  C   UNK N   1      28.860  28.231  -8.249  0.00  0.00     0.007 C 
ENDBRANCH   8  13
ENDBRANCH   1   8
BRANCH   1  15
HETATM   15  C   UNK N   1      26.887  26.153  -6.062  0.00  0.00    -0.042 A 
HETATM   16  C   UNK N   1      27.435  26.955  -5.048  0.00  0.00     0.008 A 
HETATM   17  C   UNK N   1      26.633  27.844  -4.328  0.00  0.00     0.001 A 
HETATM   18  C   UNK N   1      25.269  27.944  -4.609  0.00  0.00     0.000 A 
HETATM   19  C   UNK N   1      24.704  27.154  -5.610  0.00  0.00     0.001 A 
HETATM   20  C   UNK N   1      25.505  26.261  -6.325  0.00  0.00     0.008 A 
ENDBRANCH   1  15
BRANCH   1  21
HETATM   21  C   UNK N   1      27.044  23.748  -7.194  0.00  0.00    -0.042 A 
HETATM   22  C   UNK N   1      25.901  23.335  -6.473  0.00  0.00     0.008 A 
HETATM   23  C   UNK N   1      25.233  22.149  -6.773  0.00  0.00     0.001 A 
HETATM   24  C   UNK N   1      25.670  21.363  -7.835  0.00  0.00     0.000 A 
HETATM   25  C   UNK N   1      26.785  21.756  -8.578  0.00  0.00     0.001 A 
HETATM   26  C   UNK N   1      27.473  22.931  -8.252  0.00  0.00     0.008 A 
ENDBRANCH   1  21
TORSDOF 9
ENDMDL
MODEL 9
REMARK VINA RESULT:      -5.4      2.022      4.584
REMARK  9 active torsions:
REMARK  status: ('A' for Active; 'I' for Inactive)
REMARK    1  A    between atoms: C_6  and  O_1 
REMARK    2  A    between atoms: O_1  and  C_23 
REMARK    3  A    between atoms: C_7  and  N_3 
REMARK    4  A    between atoms: C_4  and  C_5 
REMARK    5  A    between atoms: C_4  and  C_6 
REMARK    6  A    between atoms: C_4  and  C_8 
REMARK    7  A    between atoms: C_4  and  C_9 
REMARK    8  A    between atoms: C_5  and  C_7 
REMARK    9  A    between atoms: C_6  and  C_10 
ROOT
HETATM    1  C   UNK N   1      28.027  25.107  -5.922  0.00  0.00     0.043 C 
ENDROOT
BRANCH   1   2
HETATM    2  C   UNK N   1      28.797  25.872  -7.031  0.00  0.00     0.057 C 
BRANCH   2   3
HETATM    3  C   UNK N   1      28.956  27.416  -6.901  0.00  0.00     0.219 C 
HETATM    4  C   UNK N   1      30.233  27.918  -6.221  0.00  0.00     0.043 C 
BRANCH   3   5
HETATM    5  N   UNK N   1      28.471  28.229  -8.032  0.00  0.00     0.084 N 
HETATM    6  C   UNK N   1      29.531  29.158  -8.386  0.00  0.00     0.309 C 
HETATM    7  C   UNK N   1      28.218  27.424  -9.224  0.00  0.00     0.309 C 
ENDBRANCH   3   5
ENDBRANCH   2   3
ENDBRANCH   1   2
BRANCH   1   8
HETATM    8  C   UNK N   1      29.039  24.578  -4.830  0.00  0.00     0.149 C 
BRANCH   8   9
HETATM    9  O   UNK N   1      28.531  23.482  -4.142  0.00  0.00    -0.315 OA
BRANCH   9  10
HETATM   10  C   UNK N   1      28.314  23.382  -2.805  0.00  0.00     0.255 C 
HETATM   11  O   UNK N   1      27.228  23.673  -2.311  0.00  0.00    -0.266 OA
HETATM   12  C   UNK N   1      29.436  22.996  -1.911  0.00  0.00     0.126 C 
ENDBRANCH   9  10
ENDBRANCH   8   9
BRANCH   8  13
HETATM   13  C   UNK N   1      30.412  24.256  -5.443  0.00  0.00     0.029 C 
HETATM   14  C   UNK N   1      31.503  24.803  -4.536  0.00  0.00     0.007 C 
ENDBRANCH   8  13
ENDBRANCH   1   8
BRANCH   1  15
HETATM   15  C   UNK N   1      27.432  23.839  -6.563  0.00  0.00    -0.042 A 
HETATM   16  C   UNK N   1      28.104  23.087  -7.540  0.00  0.00     0.008 A 
HETATM   17  C   UNK N   1      27.493  21.981  -8.134  0.00  0.00     0.001 A 
HETATM   18  C   UNK N   1      26.199  21.609  -7.763  0.00  0.00     0.000 A 
HETATM   19  C   UNK N   1      25.513  22.346  -6.797  0.00  0.00     0.001 A 
HETATM   20  C   UNK N   1      26.122  23.455  -6.208  0.00  0.00     0.008 A 
ENDBRANCH   1  15
BRANCH   1  21
HETATM   21  C   UNK N   1      27.066  26.148  -5.286  0.00  0.00    -0.042 A 
HETATM   22  C   UNK N   1      27.402  26.715  -4.036  0.00  0.00     0.008 A 
HETATM   23  C   UNK N   1      26.607  27.689  -3.434  0.00  0.00     0.001 A 
HETATM   24  C   UNK N   1      25.472  28.153  -4.093  0.00  0.00     0.000 A 
HETATM   25  C   UNK N   1      25.126  27.625  -5.338  0.00  0.00     0.001 A 
HETATM   26  C   UNK N   1      25.909  26.623  -5.923  0.00  0.00     0.008 A 
ENDBRANCH   1  21
TORSDOF 9
ENDMDL
