MODEL 1
REMARK VINA RESULT:      -8.3      0.000      0.000
REMARK  5 active torsions:
REMARK  status: ('A' for Active; 'I' for Inactive)
REMARK    1  A    between atoms: C_3  and  N_4 
REMARK    2  A    between atoms: C_3  and  C_5 
REMARK    3  A    between atoms: C_10  and  C_15 
REMARK       I    between atoms: C_15  and  N_17 
REMARK    4  A    between atoms: N_17  and  C_18 
REMARK    5  A    between atoms: C_28  and  C_29 
ROOT
HETATM    1  C   UNK N   1      27.083  17.848   5.095  0.00  0.00     0.256 C 
HETATM    2  O   UNK N   1      27.004  17.081   4.149  0.00  0.00    -0.267 OA
HETATM    3  N   UNK N   1      26.167  18.826   5.298  0.00  0.00    -0.323 N 
HETATM    4  H   UNK N   1      26.337  19.380   6.094  0.00  0.00     0.169 HD
ENDROOT
BRANCH   1   5
HETATM    5  C   UNK N   1      28.180  17.762   6.082  0.00  0.00     0.033 A 
HETATM    6  C   UNK N   1      27.984  17.868   7.469  0.00  0.00     0.018 A 
HETATM    7  C   UNK N   1      29.087  17.775   8.339  0.00  0.00     0.013 A 
HETATM    8  C   UNK N   1      30.379  17.577   7.821  0.00  0.00    -0.025 A 
HETATM    9  C   UNK N   1      31.493  17.481   8.666  0.00  0.00     0.027 A 
HETATM   10  C   UNK N   1      30.561  17.473   6.430  0.00  0.00    -0.025 A 
HETATM   11  C   UNK N   1      32.778  17.283   8.123  0.00  0.00     0.008 A 
HETATM   12  C   UNK N   1      32.933  17.183   6.732  0.00  0.00     0.016 A 
HETATM   13  C   UNK N   1      31.829  17.277   5.890  0.00  0.00     0.013 A 
HETATM   14  C   UNK N   1      29.472  17.566   5.585  0.00  0.00     0.029 A 
BRANCH  11  15
HETATM   15  C   UNK N   1      33.961  17.180   9.001  0.00  0.00     0.102 C 
HETATM   16  N   UNK N   1      34.900  18.052   8.930  0.00  0.00    -0.385 N 
HETATM   17  H   UNK N   1      35.686  17.978   9.518  0.00  0.00     0.157 HD
ATOM     18  HN  UNK N   1      34.832  18.821   8.263  1.00  0.00     0.157 HD
BRANCH  15  19
HETATM   19  N   UNK N   1      34.069  16.120   9.929  0.00  0.00    -0.385 N 
HETATM   20  H   UNK N   1      34.404  15.242   9.636  0.00  0.00     0.157 HD
HETATM   21  H   UNK N   1      33.808  16.259  10.867  0.00  0.00     0.157 HD
ENDBRANCH  15  19
ENDBRANCH  11  15
ENDBRANCH   1   5
BRANCH   3  22
HETATM   22  C   UNK N   1      25.015  19.191   4.573  0.00  0.00     0.035 A 
HETATM   23  C   UNK N   1      23.874  18.448   4.829  0.00  0.00     0.043 A 
HETATM   24  C   UNK N   1      22.671  18.700   4.186  0.00  0.00    -0.005 A 
HETATM   25  C   UNK N   1      22.612  19.739   3.249  0.00  0.00    -0.044 A 
HETATM   26  C   UNK N   1      21.466  17.881   4.487  0.00  0.00     0.019 A 
HETATM   27  C   UNK N   1      23.762  20.504   2.977  0.00  0.00     0.010 A 
HETATM   28  C   UNK N   1      21.342  20.049   2.532  0.00  0.00     0.059 A 
HETATM   29  C   UNK N   1      24.971  20.233   3.639  0.00  0.00     0.030 A 
HETATM   30  C   UNK N   1      20.135  19.166   2.887  0.00  0.00     0.124 A 
HETATM   31  N   UNK N   1      20.353  18.126   3.881  0.00  0.00    -0.392 N 
ATOM     32  HN  UNK N   1      19.555  17.538   4.120  1.00  0.00     0.159 HD
BRANCH  26  33
HETATM   33  C   UNK N   1      21.490  16.740   5.500  0.00  0.00     0.028 C 
HETATM   34  C   UNK N   1      21.087  17.008   6.938  0.00  0.00     0.016 C 
HETATM   35  C   UNK N   1      21.900  15.310   5.179  0.00  0.00     0.016 C 
ENDBRANCH  26  33
ENDBRANCH   3  22
TORSDOF 5
ENDMDL
MODEL 2
REMARK VINA RESULT:      -8.3      1.572      9.829
REMARK  5 active torsions:
REMARK  status: ('A' for Active; 'I' for Inactive)
REMARK    1  A    between atoms: C_3  and  N_4 
REMARK    2  A    between atoms: C_3  and  C_5 
REMARK    3  A    between atoms: C_10  and  C_15 
REMARK       I    between atoms: C_15  and  N_17 
REMARK    4  A    between atoms: N_17  and  C_18 
REMARK    5  A    between atoms: C_28  and  C_29 
ROOT
HETATM    1  C   UNK N   1      27.595  19.304   4.625  0.00  0.00     0.256 C 
HETATM    2  O   UNK N   1      28.267  20.307   4.807  0.00  0.00    -0.267 OA
HETATM    3  N   UNK N   1      28.108  18.061   4.797  0.00  0.00    -0.323 N 
HETATM    4  H   UNK N   1      27.470  17.333   4.620  0.00  0.00     0.169 HD
ENDROOT
BRANCH   1   5
HETATM    5  C   UNK N   1      26.180  19.376   4.204  0.00  0.00     0.033 A 
HETATM    6  C   UNK N   1      25.642  20.447   3.472  0.00  0.00     0.018 A 
HETATM    7  C   UNK N   1      24.281  20.433   3.113  0.00  0.00     0.013 A 
HETATM    8  C   UNK N   1      23.464  19.351   3.485  0.00  0.00    -0.025 A 
HETATM    9  C   UNK N   1      22.106  19.315   3.139  0.00  0.00     0.027 A 
HETATM   10  C   UNK N   1      24.016  18.285   4.218  0.00  0.00    -0.025 A 
HETATM   11  C   UNK N   1      21.308  18.219   3.524  0.00  0.00     0.008 A 
HETATM   12  C   UNK N   1      21.882  17.168   4.254  0.00  0.00     0.016 A 
HETATM   13  C   UNK N   1      23.229  17.201   4.599  0.00  0.00     0.013 A 
HETATM   14  C   UNK N   1      25.352  18.308   4.565  0.00  0.00     0.029 A 
BRANCH  11  15
HETATM   15  C   UNK N   1      19.876  18.167   3.166  0.00  0.00     0.102 C 
HETATM   16  N   UNK N   1      19.174  17.130   3.450  0.00  0.00    -0.385 N 
HETATM   17  H   UNK N   1      18.220  17.102   3.209  0.00  0.00     0.157 HD
ATOM     18  HN  UNK N   1      19.605  16.337   3.924  1.00  0.00     0.157 HD
BRANCH  15  19
HETATM   19  N   UNK N   1      19.266  19.258   2.509  0.00  0.00    -0.385 N 
HETATM   20  H   UNK N   1      18.889  20.001   3.033  0.00  0.00     0.157 HD
HETATM   21  H   UNK N   1      19.217  19.276   1.526  0.00  0.00     0.157 HD
ENDBRANCH  15  19
ENDBRANCH  11  15
ENDBRANCH   1   5
BRANCH   3  22
HETATM   22  C   UNK N   1      29.391  17.627   5.185  0.00  0.00     0.035 A 
HETATM   23  C   UNK N   1      29.632  17.580   6.549  0.00  0.00     0.043 A 
HETATM   24  C   UNK N   1      30.852  17.172   7.068  0.00  0.00    -0.005 A 
HETATM   25  C   UNK N   1      31.869  16.795   6.183  0.00  0.00    -0.044 A 
HETATM   26  C   UNK N   1      31.073  17.135   8.539  0.00  0.00     0.019 A 
HETATM   27  C   UNK N   1      31.641  16.837   4.794  0.00  0.00     0.010 A 
HETATM   28  C   UNK N   1      33.198  16.348   6.692  0.00  0.00     0.059 A 
HETATM   29  C   UNK N   1      30.399  17.254   4.289  0.00  0.00     0.030 A 
HETATM   30  C   UNK N   1      33.362  16.332   8.221  0.00  0.00     0.124 A 
HETATM   31  N   UNK N   1      32.213  16.752   9.009  0.00  0.00    -0.392 N 
ATOM     32  HN  UNK N   1      32.318  16.743  10.023  1.00  0.00     0.159 HD
BRANCH  26  33
HETATM   33  C   UNK N   1      29.991  17.538   9.536  0.00  0.00     0.028 C 
HETATM   34  C   UNK N   1      29.719  19.009   9.791  0.00  0.00     0.016 C 
HETATM   35  C   UNK N   1      29.136  16.557  10.325  0.00  0.00     0.016 C 
ENDBRANCH  26  33
ENDBRANCH   3  22
TORSDOF 5
ENDMDL
MODEL 3
REMARK VINA RESULT:      -8.2      1.649     10.029
REMARK  5 active torsions:
REMARK  status: ('A' for Active; 'I' for Inactive)
REMARK    1  A    between atoms: C_3  and  N_4 
REMARK    2  A    between atoms: C_3  and  C_5 
REMARK    3  A    between atoms: C_10  and  C_15 
REMARK       I    between atoms: C_15  and  N_17 
REMARK    4  A    between atoms: N_17  and  C_18 
REMARK    5  A    between atoms: C_28  and  C_29 
ROOT
HETATM    1  C   UNK N   1      27.387  19.461   5.157  0.00  0.00     0.256 C 
HETATM    2  O   UNK N   1      28.193  20.344   4.912  0.00  0.00    -0.267 OA
HETATM    3  N   UNK N   1      27.698  18.417   5.964  0.00  0.00    -0.323 N 
HETATM    4  H   UNK N   1      26.967  17.769   6.086  0.00  0.00     0.169 HD
ENDROOT
BRANCH   1   5
HETATM    5  C   UNK N   1      26.021  19.468   4.593  0.00  0.00     0.033 A 
HETATM    6  C   UNK N   1      25.583  20.398   3.636  0.00  0.00     0.018 A 
HETATM    7  C   UNK N   1      24.262  20.332   3.152  0.00  0.00     0.013 A 
HETATM    8  C   UNK N   1      23.386  19.340   3.625  0.00  0.00    -0.025 A 
HETATM    9  C   UNK N   1      22.067  19.253   3.159  0.00  0.00     0.027 A 
HETATM   10  C   UNK N   1      23.838  18.415   4.585  0.00  0.00    -0.025 A 
HETATM   11  C   UNK N   1      21.209  18.250   3.650  0.00  0.00     0.008 A 
HETATM   12  C   UNK N   1      21.683  17.339   4.606  0.00  0.00     0.016 A 
HETATM   13  C   UNK N   1      22.992  17.422   5.071  0.00  0.00     0.013 A 
HETATM   14  C   UNK N   1      25.136  18.488   5.053  0.00  0.00     0.029 A 
BRANCH  11  15
HETATM   15  C   UNK N   1      19.816  18.146   3.168  0.00  0.00     0.102 C 
HETATM   16  N   UNK N   1      19.144  17.068   3.350  0.00  0.00    -0.385 N 
HETATM   17  H   UNK N   1      18.217  17.006   3.027  0.00  0.00     0.157 HD
ATOM     18  HN  UNK N   1      19.572  16.277   3.831  1.00  0.00     0.157 HD
BRANCH  15  19
HETATM   19  N   UNK N   1      19.211  19.235   2.500  0.00  0.00    -0.385 N 
HETATM   20  H   UNK N   1      19.040  20.075   2.984  0.00  0.00     0.157 HD
HETATM   21  H   UNK N   1      18.961  19.153   1.552  0.00  0.00     0.157 HD
ENDBRANCH  15  19
ENDBRANCH  11  15
ENDBRANCH   1   5
BRANCH   3  22
HETATM   22  C   UNK N   1      28.881  18.094   6.659  0.00  0.00     0.035 A 
HETATM   23  C   UNK N   1      29.866  17.457   5.920  0.00  0.00     0.043 A 
HETATM   24  C   UNK N   1      31.079  17.083   6.478  0.00  0.00    -0.005 A 
HETATM   25  C   UNK N   1      31.312  17.359   7.831  0.00  0.00    -0.044 A 
HETATM   26  C   UNK N   1      32.112  16.401   5.654  0.00  0.00     0.019 A 
HETATM   27  C   UNK N   1      30.322  18.005   8.596  0.00  0.00     0.010 A 
HETATM   28  C   UNK N   1      32.601  16.976   8.477  0.00  0.00     0.059 A 
HETATM   29  C   UNK N   1      29.101  18.376   8.011  0.00  0.00     0.030 A 
HETATM   30  C   UNK N   1      33.626  16.275   7.571  0.00  0.00     0.124 A 
HETATM   31  N   UNK N   1      33.238  16.058   6.186  0.00  0.00    -0.392 N 
ATOM     32  HN  UNK N   1      33.915  15.593   5.582  1.00  0.00     0.159 HD
BRANCH  26  33
HETATM   33  C   UNK N   1      31.896  16.082   4.177  0.00  0.00     0.028 C 
HETATM   34  C   UNK N   1      32.346  17.078   3.123  0.00  0.00     0.016 C 
HETATM   35  C   UNK N   1      31.243  14.810   3.656  0.00  0.00     0.016 C 
ENDBRANCH  26  33
ENDBRANCH   3  22
TORSDOF 5
ENDMDL
MODEL 4
REMARK VINA RESULT:      -8.2      1.706     10.227
REMARK  5 active torsions:
REMARK  status: ('A' for Active; 'I' for Inactive)
REMARK    1  A    between atoms: C_3  and  N_4 
REMARK    2  A    between atoms: C_3  and  C_5 
REMARK    3  A    between atoms: C_10  and  C_15 
REMARK       I    between atoms: C_15  and  N_17 
REMARK    4  A    between atoms: N_17  and  C_18 
REMARK    5  A    between atoms: C_28  and  C_29 
ROOT
HETATM    1  C   UNK N   1      27.253  18.423   5.573  0.00  0.00     0.256 C 
HETATM    2  O   UNK N   1      27.701  19.520   5.280  0.00  0.00    -0.267 OA
HETATM    3  N   UNK N   1      27.950  17.552   6.344  0.00  0.00    -0.323 N 
HETATM    4  H   UNK N   1      27.485  16.700   6.511  0.00  0.00     0.169 HD
ENDROOT
BRANCH   1   5
HETATM    5  C   UNK N   1      25.925  17.970   5.109  0.00  0.00     0.033 A 
HETATM    6  C   UNK N   1      25.486  16.639   5.197  0.00  0.00     0.018 A 
HETATM    7  C   UNK N   1      24.203  16.295   4.729  0.00  0.00     0.013 A 
HETATM    8  C   UNK N   1      23.365  17.280   4.177  0.00  0.00    -0.025 A 
HETATM    9  C   UNK N   1      22.085  16.963   3.706  0.00  0.00     0.027 A 
HETATM   10  C   UNK N   1      23.818  18.610   4.096  0.00  0.00    -0.025 A 
HETATM   11  C   UNK N   1      21.265  17.968   3.157  0.00  0.00     0.008 A 
HETATM   12  C   UNK N   1      21.739  19.287   3.086  0.00  0.00     0.016 A 
HETATM   13  C   UNK N   1      23.010  19.605   3.554  0.00  0.00     0.013 A 
HETATM   14  C   UNK N   1      25.079  18.937   4.557  0.00  0.00     0.029 A 
BRANCH  11  15
HETATM   15  C   UNK N   1      19.912  17.648   2.655  0.00  0.00     0.102 C 
HETATM   16  N   UNK N   1      19.597  16.438   2.367  0.00  0.00    -0.385 N 
HETATM   17  H   UNK N   1      18.694  16.232   2.033  0.00  0.00     0.157 HD
ATOM     18  HN  UNK N   1      20.281  15.692   2.483  1.00  0.00     0.157 HD
BRANCH  15  19
HETATM   19  N   UNK N   1      18.954  18.673   2.489  0.00  0.00    -0.385 N 
HETATM   20  H   UNK N   1      19.193  19.608   2.687  0.00  0.00     0.157 HD
HETATM   21  H   UNK N   1      18.048  18.453   2.176  0.00  0.00     0.157 HD
ENDBRANCH  15  19
ENDBRANCH  11  15
ENDBRANCH   1   5
BRANCH   3  22
HETATM   22  C   UNK N   1      29.219  17.648   6.948  0.00  0.00     0.035 A 
HETATM   23  C   UNK N   1      30.293  17.228   6.178  0.00  0.00     0.043 A 
HETATM   24  C   UNK N   1      31.597  17.268   6.649  0.00  0.00    -0.005 A 
HETATM   25  C   UNK N   1      31.832  17.749   7.943  0.00  0.00    -0.044 A 
HETATM   26  C   UNK N   1      32.724  16.808   5.793  0.00  0.00     0.019 A 
HETATM   27  C   UNK N   1      30.753  18.180   8.737  0.00  0.00     0.010 A 
HETATM   28  C   UNK N   1      33.216  17.812   8.494  0.00  0.00     0.059 A 
HETATM   29  C   UNK N   1      29.440  18.131   8.242  0.00  0.00     0.030 A 
HETATM   30  C   UNK N   1      34.335  17.322   7.560  0.00  0.00     0.124 A 
HETATM   31  N   UNK N   1      33.933  16.851   6.244  0.00  0.00    -0.392 N 
ATOM     32  HN  UNK N   1      34.672  16.525   5.622  1.00  0.00     0.159 HD
BRANCH  26  33
HETATM   33  C   UNK N   1      32.509  16.276   4.379  0.00  0.00     0.028 C 
HETATM   34  C   UNK N   1      32.411  14.779   4.150  0.00  0.00     0.016 C 
HETATM   35  C   UNK N   1      32.385  17.149   3.139  0.00  0.00     0.016 C 
ENDBRANCH  26  33
ENDBRANCH   3  22
TORSDOF 5
ENDMDL
MODEL 5
REMARK VINA RESULT:      -7.6      4.325      7.703
REMARK  5 active torsions:
REMARK  status: ('A' for Active; 'I' for Inactive)
REMARK    1  A    between atoms: C_3  and  N_4 
REMARK    2  A    between atoms: C_3  and  C_5 
REMARK    3  A    between atoms: C_10  and  C_15 
REMARK       I    between atoms: C_15  and  N_17 
REMARK    4  A    between atoms: N_17  and  C_18 
REMARK    5  A    between atoms: C_28  and  C_29 
ROOT
HETATM    1  C   UNK N   1      33.273  17.142   8.705  0.00  0.00     0.256 C 
HETATM    2  O   UNK N   1      33.648  18.119   8.077  0.00  0.00    -0.267 OA
HETATM    3  N   UNK N   1      31.980  16.736   8.685  0.00  0.00    -0.323 N 
HETATM    4  H   UNK N   1      31.799  15.936   9.230  0.00  0.00     0.169 HD
ENDROOT
BRANCH   1   5
HETATM    5  C   UNK N   1      34.200  16.336   9.527  0.00  0.00     0.033 A 
HETATM    6  C   UNK N   1      35.215  16.893  10.322  0.00  0.00     0.018 A 
HETATM    7  C   UNK N   1      36.054  16.051  11.075  0.00  0.00     0.013 A 
HETATM    8  C   UNK N   1      35.877  14.656  11.032  0.00  0.00    -0.025 A 
HETATM    9  C   UNK N   1      36.699  13.797  11.772  0.00  0.00     0.027 A 
HETATM   10  C   UNK N   1      34.855  14.111  10.231  0.00  0.00    -0.025 A 
HETATM   11  C   UNK N   1      36.501  12.403  11.712  0.00  0.00     0.008 A 
HETATM   12  C   UNK N   1      35.476  11.884  10.906  0.00  0.00     0.016 A 
HETATM   13  C   UNK N   1      34.657  12.735  10.170  0.00  0.00     0.013 A 
HETATM   14  C   UNK N   1      34.038  14.948   9.496  0.00  0.00     0.029 A 
BRANCH  11  15
HETATM   15  C   UNK N   1      37.359  11.484  12.486  0.00  0.00     0.102 C 
HETATM   16  N   UNK N   1      37.611  10.305  12.046  0.00  0.00    -0.385 N 
HETATM   17  H   UNK N   1      38.184   9.698  12.568  0.00  0.00     0.157 HD
ATOM     18  HN  UNK N   1      37.218   9.998  11.157  1.00  0.00     0.157 HD
BRANCH  15  19
HETATM   19  N   UNK N   1      37.912  11.897  13.720  0.00  0.00    -0.385 N 
HETATM   20  H   UNK N   1      38.460  11.272  14.247  0.00  0.00     0.157 HD
HETATM   21  H   UNK N   1      37.747  12.808  14.052  0.00  0.00     0.157 HD
ENDBRANCH  15  19
ENDBRANCH  11  15
ENDBRANCH   1   5
BRANCH   3  22
HETATM   22  C   UNK N   1      30.849  17.254   8.024  0.00  0.00     0.035 A 
HETATM   23  C   UNK N   1      30.794  17.045   6.655  0.00  0.00     0.043 A 
HETATM   24  C   UNK N   1      29.738  17.502   5.881  0.00  0.00    -0.005 A 
HETATM   25  C   UNK N   1      28.695  18.196   6.507  0.00  0.00    -0.044 A 
HETATM   26  C   UNK N   1      29.715  17.259   4.414  0.00  0.00     0.019 A 
HETATM   27  C   UNK N   1      28.734  18.417   7.896  0.00  0.00     0.010 A 
HETATM   28  C   UNK N   1      27.537  18.707   5.718  0.00  0.00     0.059 A 
HETATM   29  C   UNK N   1      29.813  17.946   8.662  0.00  0.00     0.030 A 
HETATM   30  C   UNK N   1      27.574  18.423   4.207  0.00  0.00     0.124 A 
HETATM   31  N   UNK N   1      28.725  17.690   3.705  0.00  0.00    -0.392 N 
ATOM     32  HN  UNK N   1      28.754  17.499   2.704  1.00  0.00     0.159 HD
BRANCH  26  33
HETATM   33  C   UNK N   1      30.832  16.508   3.695  0.00  0.00     0.028 C 
HETATM   34  C   UNK N   1      30.676  15.025   3.413  0.00  0.00     0.016 C 
HETATM   35  C   UNK N   1      32.134  17.141   3.226  0.00  0.00     0.016 C 
ENDBRANCH  26  33
ENDBRANCH   3  22
TORSDOF 5
ENDMDL
MODEL 6
REMARK VINA RESULT:      -7.6      9.421     15.516
REMARK  5 active torsions:
REMARK  status: ('A' for Active; 'I' for Inactive)
REMARK    1  A    between atoms: C_3  and  N_4 
REMARK    2  A    between atoms: C_3  and  C_5 
REMARK    3  A    between atoms: C_10  and  C_15 
REMARK       I    between atoms: C_15  and  N_17 
REMARK    4  A    between atoms: N_17  and  C_18 
REMARK    5  A    between atoms: C_28  and  C_29 
ROOT
HETATM    1  C   UNK N   1      35.998  13.807  14.168  0.00  0.00     0.256 C 
HETATM    2  O   UNK N   1      36.929  14.413  14.672  0.00  0.00    -0.267 OA
HETATM    3  N   UNK N   1      35.250  12.928  14.880  0.00  0.00    -0.323 N 
HETATM    4  H   UNK N   1      34.528  12.502  14.364  0.00  0.00     0.169 HD
ENDROOT
BRANCH   1   5
HETATM    5  C   UNK N   1      35.621  13.988  12.750  0.00  0.00     0.033 A 
HETATM    6  C   UNK N   1      35.302  12.924  11.890  0.00  0.00     0.018 A 
HETATM    7  C   UNK N   1      34.954  13.188  10.552  0.00  0.00     0.013 A 
HETATM    8  C   UNK N   1      34.926  14.512  10.078  0.00  0.00    -0.025 A 
HETATM    9  C   UNK N   1      34.583  14.800   8.750  0.00  0.00     0.027 A 
HETATM   10  C   UNK N   1      35.248  15.568  10.950  0.00  0.00    -0.025 A 
HETATM   11  C   UNK N   1      34.562  16.135   8.300  0.00  0.00     0.008 A 
HETATM   12  C   UNK N   1      34.886  17.171   9.188  0.00  0.00     0.016 A 
HETATM   13  C   UNK N   1      35.228  16.888  10.507  0.00  0.00     0.013 A 
HETATM   14  C   UNK N   1      35.588  15.298  12.261  0.00  0.00     0.029 A 
BRANCH  11  15
HETATM   15  C   UNK N   1      34.202  16.454   6.903  0.00  0.00     0.102 C 
HETATM   16  N   UNK N   1      33.586  17.545   6.625  0.00  0.00    -0.385 N 
HETATM   17  H   UNK N   1      33.349  17.752   5.692  0.00  0.00     0.157 HD
ATOM     18  HN  UNK N   1      33.343  18.197   7.370  1.00  0.00     0.157 HD
BRANCH  15  19
HETATM   19  N   UNK N   1      34.533  15.559   5.861  0.00  0.00    -0.385 N 
HETATM   20  H   UNK N   1      33.923  14.821   5.633  0.00  0.00     0.157 HD
HETATM   21  H   UNK N   1      35.373  15.675   5.362  0.00  0.00     0.157 HD
ENDBRANCH  15  19
ENDBRANCH  11  15
ENDBRANCH   1   5
BRANCH   3  22
HETATM   22  C   UNK N   1      35.323  12.517  16.225  0.00  0.00     0.035 A 
HETATM   23  C   UNK N   1      35.776  11.226  16.444  0.00  0.00     0.043 A 
HETATM   24  C   UNK N   1      35.896  10.692  17.719  0.00  0.00    -0.005 A 
HETATM   25  C   UNK N   1      35.548  11.488  18.817  0.00  0.00    -0.044 A 
HETATM   26  C   UNK N   1      36.386   9.301  17.913  0.00  0.00     0.019 A 
HETATM   27  C   UNK N   1      35.087  12.802  18.613  0.00  0.00     0.010 A 
HETATM   28  C   UNK N   1      35.661  10.960  20.208  0.00  0.00     0.059 A 
HETATM   29  C   UNK N   1      34.972  13.323  17.314  0.00  0.00     0.030 A 
HETATM   30  C   UNK N   1      36.173   9.517  20.341  0.00  0.00     0.124 A 
HETATM   31  N   UNK N   1      36.493   8.818  19.106  0.00  0.00    -0.392 N 
ATOM     32  HN  UNK N   1      36.833   7.860  19.190  1.00  0.00     0.159 HD
BRANCH  26  33
HETATM   33  C   UNK N   1      36.774   8.403  16.743  0.00  0.00     0.028 C 
HETATM   34  C   UNK N   1      35.732   7.488  16.125  0.00  0.00     0.016 C 
HETATM   35  C   UNK N   1      38.163   8.342  16.125  0.00  0.00     0.016 C 
ENDBRANCH  26  33
ENDBRANCH   3  22
TORSDOF 5
ENDMDL
MODEL 7
REMARK VINA RESULT:      -7.6     10.253     14.170
REMARK  5 active torsions:
REMARK  status: ('A' for Active; 'I' for Inactive)
REMARK    1  A    between atoms: C_3  and  N_4 
REMARK    2  A    between atoms: C_3  and  C_5 
REMARK    3  A    between atoms: C_10  and  C_15 
REMARK       I    between atoms: C_15  and  N_17 
REMARK    4  A    between atoms: N_17  and  C_18 
REMARK    5  A    between atoms: C_28  and  C_29 
ROOT
HETATM    1  C   UNK N   1      35.814  13.793  13.566  0.00  0.00     0.256 C 
HETATM    2  O   UNK N   1      36.367  14.880  13.604  0.00  0.00    -0.267 OA
HETATM    3  N   UNK N   1      35.197  13.346  12.445  0.00  0.00    -0.323 N 
HETATM    4  H   UNK N   1      34.787  12.456  12.537  0.00  0.00     0.169 HD
ENDROOT
BRANCH   1   5
HETATM    5  C   UNK N   1      35.778  12.891  14.737  0.00  0.00     0.033 A 
HETATM    6  C   UNK N   1      35.987  11.505  14.654  0.00  0.00     0.018 A 
HETATM    7  C   UNK N   1      35.935  10.721  15.822  0.00  0.00     0.013 A 
HETATM    8  C   UNK N   1      35.675  11.323  17.066  0.00  0.00    -0.025 A 
HETATM    9  C   UNK N   1      35.618  10.563  18.242  0.00  0.00     0.027 A 
HETATM   10  C   UNK N   1      35.467  12.713  17.134  0.00  0.00    -0.025 A 
HETATM   11  C   UNK N   1      35.355  11.190  19.476  0.00  0.00     0.008 A 
HETATM   12  C   UNK N   1      35.152  12.578  19.518  0.00  0.00     0.016 A 
HETATM   13  C   UNK N   1      35.207  13.335  18.352  0.00  0.00     0.013 A 
HETATM   14  C   UNK N   1      35.520  13.473  15.982  0.00  0.00     0.029 A 
BRANCH  11  15
HETATM   15  C   UNK N   1      35.293  10.403  20.724  0.00  0.00     0.102 C 
HETATM   16  N   UNK N   1      34.266   9.677  20.983  0.00  0.00    -0.385 N 
HETATM   17  H   UNK N   1      34.230   9.155  21.816  0.00  0.00     0.157 HD
ATOM     18  HN  UNK N   1      33.488   9.643  20.325  1.00  0.00     0.157 HD
BRANCH  15  19
HETATM   19  N   UNK N   1      36.363  10.441  21.645  0.00  0.00    -0.385 N 
HETATM   20  H   UNK N   1      37.246  10.087  21.389  0.00  0.00     0.157 HD
HETATM   21  H   UNK N   1      36.227  10.822  22.542  0.00  0.00     0.157 HD
ENDBRANCH  15  19
ENDBRANCH  11  15
ENDBRANCH   1   5
BRANCH   3  22
HETATM   22  C   UNK N   1      35.038  13.928  11.172  0.00  0.00     0.035 A 
HETATM   23  C   UNK N   1      35.883  13.460  10.178  0.00  0.00     0.043 A 
HETATM   24  C   UNK N   1      35.835  13.946   8.880  0.00  0.00    -0.005 A 
HETATM   25  C   UNK N   1      34.900  14.941   8.567  0.00  0.00    -0.044 A 
HETATM   26  C   UNK N   1      36.759  13.419   7.840  0.00  0.00     0.019 A 
HETATM   27  C   UNK N   1      34.034  15.427   9.564  0.00  0.00     0.010 A 
HETATM   28  C   UNK N   1      34.809  15.495   7.186  0.00  0.00     0.059 A 
HETATM   29  C   UNK N   1      34.099  14.922  10.873  0.00  0.00     0.030 A 
HETATM   30  C   UNK N   1      35.791  14.909   6.159  0.00  0.00     0.124 A 
HETATM   31  N   UNK N   1      36.703  13.880   6.635  0.00  0.00    -0.392 N 
ATOM     32  HN  UNK N   1      37.356  13.489   5.958  1.00  0.00     0.159 HD
BRANCH  26  33
HETATM   33  C   UNK N   1      37.791  12.336   8.141  0.00  0.00     0.028 C 
HETATM   34  C   UNK N   1      39.175  12.735   8.622  0.00  0.00     0.016 C 
HETATM   35  C   UNK N   1      37.544  10.843   7.990  0.00  0.00     0.016 C 
ENDBRANCH  26  33
ENDBRANCH   3  22
TORSDOF 5
ENDMDL
MODEL 8
REMARK VINA RESULT:      -7.6      7.529     11.347
REMARK  5 active torsions:
REMARK  status: ('A' for Active; 'I' for Inactive)
REMARK    1  A    between atoms: C_3  and  N_4 
REMARK    2  A    between atoms: C_3  and  C_5 
REMARK    3  A    between atoms: C_10  and  C_15 
REMARK       I    between atoms: C_15  and  N_17 
REMARK    4  A    between atoms: N_17  and  C_18 
REMARK    5  A    between atoms: C_28  and  C_29 
ROOT
HETATM    1  C   UNK N   1      35.382  13.596  10.872  0.00  0.00     0.256 C 
HETATM    2  O   UNK N   1      36.315  14.009  10.204  0.00  0.00    -0.267 OA
HETATM    3  N   UNK N   1      34.172  13.330  10.321  0.00  0.00    -0.323 N 
HETATM    4  H   UNK N   1      33.500  13.003  10.961  0.00  0.00     0.169 HD
ENDROOT
BRANCH   1   5
HETATM    5  C   UNK N   1      35.505  13.358  12.326  0.00  0.00     0.033 A 
HETATM    6  C   UNK N   1      36.167  14.235  13.202  0.00  0.00     0.018 A 
HETATM    7  C   UNK N   1      36.236  13.929  14.574  0.00  0.00     0.013 A 
HETATM    8  C   UNK N   1      35.646  12.752  15.066  0.00  0.00    -0.025 A 
HETATM    9  C   UNK N   1      35.703  12.426  16.428  0.00  0.00     0.027 A 
HETATM   10  C   UNK N   1      34.987  11.882  14.178  0.00  0.00    -0.025 A 
HETATM   11  C   UNK N   1      35.104  11.240  16.896  0.00  0.00     0.008 A 
HETATM   12  C   UNK N   1      34.452  10.389  15.990  0.00  0.00     0.016 A 
HETATM   13  C   UNK N   1      34.394  10.710  14.638  0.00  0.00     0.013 A 
HETATM   14  C   UNK N   1      34.924  12.191  12.833  0.00  0.00     0.029 A 
BRANCH  11  15
HETATM   15  C   UNK N   1      35.155  10.884  18.329  0.00  0.00     0.102 C 
HETATM   16  N   UNK N   1      35.422  11.777  19.211  0.00  0.00    -0.385 N 
HETATM   17  H   UNK N   1      35.455  11.533  20.163  0.00  0.00     0.157 HD
ATOM     18  HN  UNK N   1      35.601  12.739  18.923  1.00  0.00     0.157 HD
BRANCH  15  19
HETATM   19  N   UNK N   1      34.909   9.555  18.741  0.00  0.00    -0.385 N 
HETATM   20  H   UNK N   1      34.034   9.139  18.566  0.00  0.00     0.157 HD
HETATM   21  H   UNK N   1      35.613   9.045  19.202  0.00  0.00     0.157 HD
ENDBRANCH  15  19
ENDBRANCH  11  15
ENDBRANCH   1   5
BRANCH   3  22
HETATM   22  C   UNK N   1      33.707  13.439   8.995  0.00  0.00     0.035 A 
HETATM   23  C   UNK N   1      33.343  14.710   8.580  0.00  0.00     0.043 A 
HETATM   24  C   UNK N   1      32.868  14.960   7.301  0.00  0.00    -0.005 A 
HETATM   25  C   UNK N   1      32.754  13.892   6.404  0.00  0.00    -0.044 A 
HETATM   26  C   UNK N   1      32.487  16.339   6.892  0.00  0.00     0.019 A 
HETATM   27  C   UNK N   1      33.120  12.594   6.809  0.00  0.00     0.010 A 
HETATM   28  C   UNK N   1      32.249  14.109   5.018  0.00  0.00     0.059 A 
HETATM   29  C   UNK N   1      33.598  12.362   8.109  0.00  0.00     0.030 A 
HETATM   30  C   UNK N   1      31.873  15.555   4.657  0.00  0.00     0.124 A 
HETATM   31  N   UNK N   1      32.047  16.557   5.698  0.00  0.00    -0.392 N 
ATOM     32  HN  UNK N   1      31.798  17.518   5.463  1.00  0.00     0.159 HD
BRANCH  26  33
HETATM   33  C   UNK N   1      32.596  17.529   7.840  0.00  0.00     0.028 C 
HETATM   34  C   UNK N   1      31.367  17.993   8.602  0.00  0.00     0.016 C 
HETATM   35  C   UNK N   1      33.872  18.320   8.090  0.00  0.00     0.016 C 
ENDBRANCH  26  33
ENDBRANCH   3  22
TORSDOF 5
ENDMDL
MODEL 9
REMARK VINA RESULT:      -7.6      9.328     12.952
REMARK  5 active torsions:
REMARK  status: ('A' for Active; 'I' for Inactive)
REMARK    1  A    between atoms: C_3  and  N_4 
REMARK    2  A    between atoms: C_3  and  C_5 
REMARK    3  A    between atoms: C_10  and  C_15 
REMARK       I    between atoms: C_15  and  N_17 
REMARK    4  A    between atoms: N_17  and  C_18 
REMARK    5  A    between atoms: C_28  and  C_29 
ROOT
HETATM    1  C   UNK N   1      36.528  13.440  12.258  0.00  0.00     0.256 C 
HETATM    2  O   UNK N   1      37.513  13.385  11.540  0.00  0.00    -0.267 OA
HETATM    3  N   UNK N   1      35.444  14.182  11.925  0.00  0.00    -0.323 N 
HETATM    4  H   UNK N   1      34.713  14.147  12.584  0.00  0.00     0.169 HD
ENDROOT
BRANCH   1   5
HETATM    5  C   UNK N   1      36.451  12.704  13.538  0.00  0.00     0.033 A 
HETATM    6  C   UNK N   1      36.907  11.386  13.703  0.00  0.00     0.018 A 
HETATM    7  C   UNK N   1      36.794  10.760  14.958  0.00  0.00     0.013 A 
HETATM    8  C   UNK N   1      36.226  11.451  16.043  0.00  0.00    -0.025 A 
HETATM    9  C   UNK N   1      36.102  10.850  17.303  0.00  0.00     0.027 A 
HETATM   10  C   UNK N   1      35.772  12.772  15.864  0.00  0.00    -0.025 A 
HETATM   11  C   UNK N   1      35.529  11.564  18.373  0.00  0.00     0.008 A 
HETATM   12  C   UNK N   1      35.084  12.879  18.170  0.00  0.00     0.016 A 
HETATM   13  C   UNK N   1      35.206  13.479  16.920  0.00  0.00     0.013 A 
HETATM   14  C   UNK N   1      35.888  13.376  14.627  0.00  0.00     0.029 A 
BRANCH  11  15
HETATM   15  C   UNK N   1      35.392  10.943  19.707  0.00  0.00     0.102 C 
HETATM   16  N   UNK N   1      36.071  11.386  20.702  0.00  0.00    -0.385 N 
HETATM   17  H   UNK N   1      35.975  10.968  21.588  0.00  0.00     0.157 HD
ATOM     18  HN  UNK N   1      36.710  12.171  20.574  1.00  0.00     0.157 HD
BRANCH  15  19
HETATM   19  N   UNK N   1      34.511   9.856  19.898  0.00  0.00    -0.385 N 
HETATM   20  H   UNK N   1      34.835   9.027  20.319  0.00  0.00     0.157 HD
HETATM   21  H   UNK N   1      33.572   9.926  19.611  0.00  0.00     0.157 HD
ENDBRANCH  15  19
ENDBRANCH  11  15
ENDBRANCH   1   5
BRANCH   3  22
HETATM   22  C   UNK N   1      35.177  14.994  10.805  0.00  0.00     0.035 A 
HETATM   23  C   UNK N   1      34.990  14.330   9.603  0.00  0.00     0.043 A 
HETATM   24  C   UNK N   1      34.720  15.006   8.422  0.00  0.00    -0.005 A 
HETATM   25  C   UNK N   1      34.635  16.404   8.450  0.00  0.00    -0.044 A 
HETATM   26  C   UNK N   1      34.526  14.259   7.151  0.00  0.00     0.019 A 
HETATM   27  C   UNK N   1      34.822  17.093   9.663  0.00  0.00     0.010 A 
HETATM   28  C   UNK N   1      34.346  17.176   7.207  0.00  0.00     0.059 A 
HETATM   29  C   UNK N   1      35.094  16.390  10.847  0.00  0.00     0.030 A 
HETATM   30  C   UNK N   1      34.156  16.345   5.927  0.00  0.00     0.124 A 
HETATM   31  N   UNK N   1      34.275  14.901   6.059  0.00  0.00    -0.392 N 
ATOM     32  HN  UNK N   1      34.149  14.346   5.212  1.00  0.00     0.159 HD
BRANCH  26  33
HETATM   33  C   UNK N   1      34.612  12.737   7.078  0.00  0.00     0.028 C 
HETATM   34  C   UNK N   1      35.957  12.075   6.843  0.00  0.00     0.016 C 
HETATM   35  C   UNK N   1      33.424  11.798   7.222  0.00  0.00     0.016 C 
ENDBRANCH  26  33
ENDBRANCH   3  22
TORSDOF 5
ENDMDL
