MODEL 1
REMARK VINA RESULT:      -7.3      0.000      0.000
REMARK  0 active torsions:
REMARK  status: ('A' for Active; 'I' for Inactive)
ROOT
HETATM    1  O   UNK N   1      33.770  15.466   2.110  0.00  0.00    -0.297 OA
HETATM    2  O   UNK N   1      35.468  15.018  12.498  0.00  0.00    -0.298 OA
HETATM    3  C   UNK N   1      34.913  15.602   7.061  0.00  0.00    -0.002 C 
HETATM    4  C   UNK N   1      33.684  16.499   6.731  0.00  0.00    -0.004 C 
HETATM    5  C   UNK N   1      34.888  15.241   8.578  0.00  0.00    -0.036 C 
HETATM    6  C   UNK N   1      33.593  16.700   5.211  0.00  0.00     0.006 C 
HETATM    7  C   UNK N   1      33.515  15.364   4.475  0.00  0.00     0.021 C 
HETATM    8  C   UNK N   1      34.558  16.502   9.475  0.00  0.00     0.001 C 
HETATM    9  C   UNK N   1      34.994  14.323   6.186  0.00  0.00     0.007 C 
HETATM   10  C   UNK N   1      33.821  17.859   7.449  0.00  0.00     0.006 C 
HETATM   11  C   UNK N   1      34.826  14.611   4.685  0.00  0.00     0.018 C 
HETATM   12  C   UNK N   1      34.707  17.817   8.708  0.00  0.00     0.006 C 
HETATM   13  C   UNK N   1      32.400  17.482   4.650  0.00  0.00     0.013 C 
HETATM   14  C   UNK N   1      36.243  14.610   8.970  0.00  0.00     0.017 C 
HETATM   15  C   UNK N   1      33.210  15.870   3.117  0.00  0.00     0.135 C 
HETATM   16  C   UNK N   1      33.795  14.188   8.831  0.00  0.00     0.016 C 
HETATM   17  C   UNK N   1      35.421  16.595  10.742  0.00  0.00     0.083 C 
HETATM   18  C   UNK N   1      32.440  17.151   3.147  0.00  0.00     0.079 C 
HETATM   19  C   UNK N   1      32.326  14.500   4.920  0.00  0.00     0.024 C 
HETATM   20  C   UNK N   1      36.243  14.159  10.438  0.00  0.00     0.079 C 
HETATM   21  C   UNK N   1      35.695  15.242  11.322  0.00  0.00     0.127 C 
ENDROOT
TORSDOF 0
ENDMDL
MODEL 2
REMARK VINA RESULT:      -7.2     12.335     14.517
REMARK  0 active torsions:
REMARK  status: ('A' for Active; 'I' for Inactive)
ROOT
HETATM    1  O   UNK N   1      26.688  24.441  -2.562  0.00  0.00    -0.297 OA
HETATM    2  O   UNK N   1      35.777  20.077  -5.621  0.00  0.00    -0.298 OA
HETATM    3  C   UNK N   1      30.849  21.909  -4.017  0.00  0.00    -0.002 C 
HETATM    4  C   UNK N   1      30.034  22.424  -5.240  0.00  0.00    -0.004 C 
HETATM    5  C   UNK N   1      32.321  21.647  -4.460  0.00  0.00    -0.036 C 
HETATM    6  C   UNK N   1      28.639  22.867  -4.773  0.00  0.00     0.006 C 
HETATM    7  C   UNK N   1      28.728  23.930  -3.681  0.00  0.00     0.021 C 
HETATM    8  C   UNK N   1      32.390  20.882  -5.843  0.00  0.00     0.001 C 
HETATM    9  C   UNK N   1      30.797  22.865  -2.796  0.00  0.00     0.007 C 
HETATM   10  C   UNK N   1      29.920  21.308  -6.301  0.00  0.00     0.006 C 
HETATM   11  C   UNK N   1      29.369  23.309  -2.442  0.00  0.00     0.018 C 
HETATM   12  C   UNK N   1      31.047  20.260  -6.232  0.00  0.00     0.006 C 
HETATM   13  C   UNK N   1      27.692  23.494  -5.801  0.00  0.00     0.013 C 
HETATM   14  C   UNK N   1      33.053  20.864  -3.347  0.00  0.00     0.017 C 
HETATM   15  C   UNK N   1      27.297  24.306  -3.612  0.00  0.00     0.135 C 
HETATM   16  C   UNK N   1      33.046  22.993  -4.635  0.00  0.00     0.016 C 
HETATM   17  C   UNK N   1      33.450  19.771  -5.876  0.00  0.00     0.083 C 
HETATM   18  C   UNK N   1      26.601  24.138  -4.926  0.00  0.00     0.079 C 
HETATM   19  C   UNK N   1      29.509  25.178  -4.117  0.00  0.00     0.024 C 
HETATM   20  C   UNK N   1      34.532  20.651  -3.696  0.00  0.00     0.079 C 
HETATM   21  C   UNK N   1      34.674  20.156  -5.106  0.00  0.00     0.127 C 
ENDROOT
TORSDOF 0
ENDMDL
MODEL 3
REMARK VINA RESULT:      -7.2     16.177     18.207
REMARK  0 active torsions:
REMARK  status: ('A' for Active; 'I' for Inactive)
ROOT
HETATM    1  O   UNK N   1      26.592  20.961  -9.788  0.00  0.00    -0.297 OA
HETATM    2  O   UNK N   1      26.159  29.173  -3.201  0.00  0.00    -0.298 OA
HETATM    3  C   UNK N   1      26.140  24.637  -6.306  0.00  0.00    -0.002 C 
HETATM    4  C   UNK N   1      27.486  23.869  -6.157  0.00  0.00    -0.004 C 
HETATM    5  C   UNK N   1      26.275  26.037  -5.631  0.00  0.00    -0.036 C 
HETATM    6  C   UNK N   1      27.427  22.574  -6.982  0.00  0.00     0.006 C 
HETATM    7  C   UNK N   1      27.114  22.860  -8.449  0.00  0.00     0.021 C 
HETATM    8  C   UNK N   1      26.987  25.941  -4.221  0.00  0.00     0.001 C 
HETATM    9  C   UNK N   1      25.668  24.773  -7.779  0.00  0.00     0.007 C 
HETATM   10  C   UNK N   1      27.745  23.550  -4.669  0.00  0.00     0.006 C 
HETATM   11  C   UNK N   1      25.705  23.442  -8.546  0.00  0.00     0.018 C 
HETATM   12  C   UNK N   1      27.037  24.507  -3.691  0.00  0.00     0.006 C 
HETATM   13  C   UNK N   1      28.683  21.699  -7.053  0.00  0.00     0.013 C 
HETATM   14  C   UNK N   1      24.875  26.679  -5.513  0.00  0.00     0.017 C 
HETATM   15  C   UNK N   1      27.350  21.506  -9.000  0.00  0.00     0.135 C 
HETATM   16  C   UNK N   1      27.131  26.951  -6.525  0.00  0.00     0.016 C 
HETATM   17  C   UNK N   1      26.332  26.820  -3.144  0.00  0.00     0.083 C 
HETATM   18  C   UNK N   1      28.381  20.749  -8.227  0.00  0.00     0.079 C 
HETATM   19  C   UNK N   1      28.128  23.806  -9.108  0.00  0.00     0.024 C 
HETATM   20  C   UNK N   1      24.959  28.096  -4.929  0.00  0.00     0.079 C 
HETATM   21  C   UNK N   1      25.841  28.114  -3.714  0.00  0.00     0.127 C 
ENDROOT
TORSDOF 0
ENDMDL
MODEL 4
REMARK VINA RESULT:      -7.1     15.035     17.262
REMARK  0 active torsions:
REMARK  status: ('A' for Active; 'I' for Inactive)
ROOT
HETATM    1  O   UNK N   1      28.913  19.620  -8.124  0.00  0.00    -0.297 OA
HETATM    2  O   UNK N   1      25.563  28.777  -4.133  0.00  0.00    -0.298 OA
HETATM    3  C   UNK N   1      27.095  23.782  -5.842  0.00  0.00    -0.002 C 
HETATM    4  C   UNK N   1      28.559  23.481  -5.405  0.00  0.00    -0.004 C 
HETATM    5  C   UNK N   1      26.784  25.288  -5.578  0.00  0.00    -0.036 C 
HETATM    6  C   UNK N   1      28.937  22.057  -5.837  0.00  0.00     0.006 C 
HETATM    7  C   UNK N   1      28.760  21.864  -7.341  0.00  0.00     0.021 C 
HETATM    8  C   UNK N   1      27.304  25.754  -4.159  0.00  0.00     0.001 C 
HETATM    9  C   UNK N   1      26.804  23.404  -7.319  0.00  0.00     0.007 C 
HETATM   10  C   UNK N   1      28.690  23.636  -3.874  0.00  0.00     0.006 C 
HETATM   11  C   UNK N   1      27.275  21.987  -7.679  0.00  0.00     0.018 C 
HETATM   12  C   UNK N   1      27.642  24.573  -3.246  0.00  0.00     0.006 C 
HETATM   13  C   UNK N   1      30.370  21.577  -5.586  0.00  0.00     0.013 C 
HETATM   14  C   UNK N   1      25.264  25.524  -5.728  0.00  0.00     0.017 C 
HETATM   15  C   UNK N   1      29.398  20.535  -7.477  0.00  0.00     0.135 C 
HETATM   16  C   UNK N   1      27.494  26.146  -6.640  0.00  0.00     0.016 C 
HETATM   17  C   UNK N   1      26.313  26.659  -3.411  0.00  0.00     0.083 C 
HETATM   18  C   UNK N   1      30.476  20.315  -6.463  0.00  0.00     0.079 C 
HETATM   19  C   UNK N   1      29.581  22.855  -8.177  0.00  0.00     0.024 C 
HETATM   20  C   UNK N   1      24.912  27.009  -5.559  0.00  0.00     0.079 C 
HETATM   21  C   UNK N   1      25.592  27.577  -4.347  0.00  0.00     0.127 C 
ENDROOT
TORSDOF 0
ENDMDL
MODEL 5
REMARK VINA RESULT:      -7.1     16.921     19.173
REMARK  0 active torsions:
REMARK  status: ('A' for Active; 'I' for Inactive)
ROOT
HETATM    1  O   UNK N   1      25.926  27.357  -2.532  0.00  0.00    -0.297 OA
HETATM    2  O   UNK N   1      26.984  20.860 -10.759  0.00  0.00    -0.298 OA
HETATM    3  C   UNK N   1      25.987  24.343  -6.625  0.00  0.00    -0.002 C 
HETATM    4  C   UNK N   1      26.587  25.746  -6.936  0.00  0.00    -0.004 C 
HETATM    5  C   UNK N   1      26.508  23.320  -7.680  0.00  0.00    -0.036 C 
HETATM    6  C   UNK N   1      26.236  26.715  -5.797  0.00  0.00     0.006 C 
HETATM    7  C   UNK N   1      26.726  26.191  -4.449  0.00  0.00     0.021 C 
HETATM    8  C   UNK N   1      26.443  23.907  -9.148  0.00  0.00     0.001 C 
HETATM    9  C   UNK N   1      26.282  23.854  -5.182  0.00  0.00     0.007 C 
HETATM   10  C   UNK N   1      26.032  26.266  -8.280  0.00  0.00     0.006 C 
HETATM   11  C   UNK N   1      25.964  24.911  -4.113  0.00  0.00     0.018 C 
HETATM   12  C   UNK N   1      25.563  25.155  -9.237  0.00  0.00     0.006 C 
HETATM   13  C   UNK N   1      26.803  28.137  -5.851  0.00  0.00     0.013 C 
HETATM   14  C   UNK N   1      25.697  22.011  -7.560  0.00  0.00     0.017 C 
HETATM   15  C   UNK N   1      26.463  27.396  -3.629  0.00  0.00     0.135 C 
HETATM   16  C   UNK N   1      27.979  22.983  -7.377  0.00  0.00     0.016 C 
HETATM   17  C   UNK N   1      25.937  22.897 -10.189  0.00  0.00     0.083 C 
HETATM   18  C   UNK N   1      26.575  28.659  -4.421  0.00  0.00     0.079 C 
HETATM   19  C   UNK N   1      28.239  25.936  -4.416  0.00  0.00     0.024 C 
HETATM   20  C   UNK N   1      26.224  20.938  -8.523  0.00  0.00     0.079 C 
HETATM   21  C   UNK N   1      26.424  21.513  -9.895  0.00  0.00     0.127 C 
ENDROOT
TORSDOF 0
ENDMDL
MODEL 6
REMARK VINA RESULT:      -7.0     12.494     15.907
REMARK  0 active torsions:
REMARK  status: ('A' for Active; 'I' for Inactive)
ROOT
HETATM    1  O   UNK N   1      24.829  27.252  -5.943  0.00  0.00    -0.297 OA
HETATM    2  O   UNK N   1      32.725  21.248  -2.394  0.00  0.00    -0.298 OA
HETATM    3  C   UNK N   1      28.824  24.377  -4.675  0.00  0.00    -0.002 C 
HETATM    4  C   UNK N   1      29.075  25.880  -4.357  0.00  0.00    -0.004 C 
HETATM    5  C   UNK N   1      29.782  23.505  -3.806  0.00  0.00    -0.036 C 
HETATM    6  C   UNK N   1      28.011  26.735  -5.061  0.00  0.00     0.006 C 
HETATM    7  C   UNK N   1      26.600  26.313  -4.657  0.00  0.00     0.021 C 
HETATM    8  C   UNK N   1      31.255  24.083  -3.796  0.00  0.00     0.001 C 
HETATM    9  C   UNK N   1      27.347  23.944  -4.480  0.00  0.00     0.007 C 
HETATM   10  C   UNK N   1      30.490  26.285  -4.824  0.00  0.00     0.006 C 
HETATM   11  C   UNK N   1      26.349  24.894  -5.162  0.00  0.00     0.018 C 
HETATM   12  C   UNK N   1      31.484  25.111  -4.906  0.00  0.00     0.006 C 
HETATM   13  C   UNK N   1      28.011  28.247  -4.814  0.00  0.00     0.013 C 
HETATM   14  C   UNK N   1      29.751  22.049  -4.323  0.00  0.00     0.017 C 
HETATM   15  C   UNK N   1      25.843  27.421  -5.284  0.00  0.00     0.135 C 
HETATM   16  C   UNK N   1      29.276  23.492  -2.352  0.00  0.00     0.016 C 
HETATM   17  C   UNK N   1      32.337  23.001  -3.925  0.00  0.00     0.083 C 
HETATM   18  C   UNK N   1      26.634  28.688  -5.342  0.00  0.00     0.079 C 
HETATM   19  C   UNK N   1      26.357  26.391  -3.143  0.00  0.00     0.024 C 
HETATM   20  C   UNK N   1      30.615  21.129  -3.449  0.00  0.00     0.079 C 
HETATM   21  C   UNK N   1      31.957  21.752  -3.194  0.00  0.00     0.127 C 
ENDROOT
TORSDOF 0
ENDMDL
MODEL 7
REMARK VINA RESULT:      -7.0      6.558      9.983
REMARK  0 active torsions:
REMARK  status: ('A' for Active; 'I' for Inactive)
ROOT
HETATM    1  O   UNK N   1      38.045  12.297  11.381  0.00  0.00    -0.297 OA
HETATM    2  O   UNK N   1      34.150  10.030  20.904  0.00  0.00    -0.298 OA
HETATM    3  C   UNK N   1      36.490  11.512  16.156  0.00  0.00    -0.002 C 
HETATM    4  C   UNK N   1      35.643  12.612  15.451  0.00  0.00    -0.004 C 
HETATM    5  C   UNK N   1      35.674  10.930  17.351  0.00  0.00    -0.036 C 
HETATM    6  C   UNK N   1      36.353  13.054  14.162  0.00  0.00     0.006 C 
HETATM    7  C   UNK N   1      36.607  11.871  13.231  0.00  0.00     0.021 C 
HETATM    8  C   UNK N   1      34.984  12.072  18.201  0.00  0.00     0.001 C 
HETATM    9  C   UNK N   1      36.954  10.383  15.197  0.00  0.00     0.007 C 
HETATM   10  C   UNK N   1      35.450  13.813  16.401  0.00  0.00     0.006 C 
HETATM   11  C   UNK N   1      37.592  10.918  13.905  0.00  0.00     0.018 C 
HETATM   12  C   UNK N   1      35.562  13.455  17.895  0.00  0.00     0.006 C 
HETATM   13  C   UNK N   1      35.652  14.072  13.257  0.00  0.00     0.013 C 
HETATM   14  C   UNK N   1      36.607  10.062  18.226  0.00  0.00     0.017 C 
HETATM   15  C   UNK N   1      37.065  12.616  12.036  0.00  0.00     0.135 C 
HETATM   16  C   UNK N   1      34.562  10.014  16.809  0.00  0.00     0.016 C 
HETATM   17  C   UNK N   1      35.077  11.847  19.718  0.00  0.00     0.083 C 
HETATM   18  C   UNK N   1      36.444  13.973  11.940  0.00  0.00     0.079 C 
HETATM   19  C   UNK N   1      35.324  11.124  12.842  0.00  0.00     0.024 C 
HETATM   20  C   UNK N   1      35.835   9.397  19.374  0.00  0.00     0.079 C 
HETATM   21  C   UNK N   1      34.957  10.397  20.068  0.00  0.00     0.127 C 
ENDROOT
TORSDOF 0
ENDMDL
MODEL 8
REMARK VINA RESULT:      -6.9     13.130     16.831
REMARK  0 active torsions:
REMARK  status: ('A' for Active; 'I' for Inactive)
ROOT
HETATM    1  O   UNK N   1      33.087  22.108  -4.048  0.00  0.00    -0.297 OA
HETATM    2  O   UNK N   1      24.053  27.313  -5.563  0.00  0.00    -0.298 OA
HETATM    3  C   UNK N   1      28.877  24.699  -5.231  0.00  0.00    -0.002 C 
HETATM    4  C   UNK N   1      28.682  23.167  -5.429  0.00  0.00    -0.004 C 
HETATM    5  C   UNK N   1      27.480  25.373  -5.067  0.00  0.00    -0.036 C 
HETATM    6  C   UNK N   1      30.051  22.471  -5.398  0.00  0.00     0.006 C 
HETATM    7  C   UNK N   1      30.800  22.770  -4.101  0.00  0.00     0.021 C 
HETATM    8  C   UNK N   1      26.440  24.833  -6.129  0.00  0.00     0.001 C 
HETATM    9  C   UNK N   1      29.809  25.053  -4.041  0.00  0.00     0.007 C 
HETATM   10  C   UNK N   1      27.969  22.899  -6.771  0.00  0.00     0.006 C 
HETATM   11  C   UNK N   1      31.126  24.261  -4.055  0.00  0.00     0.018 C 
HETATM   12  C   UNK N   1      27.117  24.079  -7.275  0.00  0.00     0.006 C 
HETATM   13  C   UNK N   1      30.092  20.942  -5.485  0.00  0.00     0.013 C 
HETATM   14  C   UNK N   1      27.643  26.907  -5.168  0.00  0.00     0.017 C 
HETATM   15  C   UNK N   1      31.921  21.815  -4.261  0.00  0.00     0.135 C 
HETATM   16  C   UNK N   1      26.925  25.057  -3.666  0.00  0.00     0.016 C 
HETATM   17  C   UNK N   1      25.563  25.935  -6.742  0.00  0.00     0.083 C 
HETATM   18  C   UNK N   1      31.529  20.605  -5.047  0.00  0.00     0.079 C 
HETATM   19  C   UNK N   1      30.020  22.355  -2.846  0.00  0.00     0.024 C 
HETATM   20  C   UNK N   1      26.308  27.626  -4.930  0.00  0.00     0.079 C 
HETATM   21  C   UNK N   1      25.214  26.985  -5.735  0.00  0.00     0.127 C 
ENDROOT
TORSDOF 0
ENDMDL
MODEL 9
REMARK VINA RESULT:      -6.7     12.146     15.247
REMARK  0 active torsions:
REMARK  status: ('A' for Active; 'I' for Inactive)
ROOT
HETATM    1  O   UNK N   1      26.125  26.046  -7.173  0.00  0.00    -0.297 OA
HETATM    2  O   UNK N   1      33.775  19.733  -3.618  0.00  0.00    -0.298 OA
HETATM    3  C   UNK N   1      29.985  23.381  -5.215  0.00  0.00    -0.002 C 
HETATM    4  C   UNK N   1      28.696  23.241  -4.353  0.00  0.00    -0.004 C 
HETATM    5  C   UNK N   1      30.929  22.174  -4.920  0.00  0.00    -0.036 C 
HETATM    6  C   UNK N   1      27.681  24.314  -4.775  0.00  0.00     0.006 C 
HETATM    7  C   UNK N   1      27.362  24.224  -6.266  0.00  0.00     0.021 C 
HETATM    8  C   UNK N   1      31.035  21.877  -3.369  0.00  0.00     0.001 C 
HETATM    9  C   UNK N   1      29.699  23.505  -6.735  0.00  0.00     0.007 C 
HETATM   10  C   UNK N   1      29.048  23.388  -2.857  0.00  0.00     0.006 C 
HETATM   11  C   UNK N   1      28.624  24.555  -7.059  0.00  0.00     0.018 C 
HETATM   12  C   UNK N   1      30.509  23.035  -2.518  0.00  0.00     0.006 C 
HETATM   13  C   UNK N   1      26.298  24.307  -4.117  0.00  0.00     0.013 C 
HETATM   14  C   UNK N   1      32.318  22.455  -5.536  0.00  0.00     0.017 C 
HETATM   15  C   UNK N   1      26.235  25.183  -6.315  0.00  0.00     0.135 C 
HETATM   16  C   UNK N   1      30.366  20.912  -5.599  0.00  0.00     0.016 C 
HETATM   17  C   UNK N   1      32.463  21.560  -2.903  0.00  0.00     0.083 C 
HETATM   18  C   UNK N   1      25.471  25.229  -5.031  0.00  0.00     0.079 C 
HETATM   19  C   UNK N   1      26.814  22.852  -6.683  0.00  0.00     0.024 C 
HETATM   20  C   UNK N   1      33.263  21.261  -5.346  0.00  0.00     0.079 C 
HETATM   21  C   UNK N   1      33.214  20.770  -3.928  0.00  0.00     0.127 C 
ENDROOT
TORSDOF 0
ENDMDL
