REMARK  0 active torsions:
REMARK  status: ('A' for Active; 'I' for Inactive)
ROOT
HETATM    1  O   UNK N   1       8.357   2.981  -0.568  0.00  0.00    -0.297 OA
HETATM    2  O   UNK N   1       0.005  -3.318   0.687  0.00  0.00    -0.298 OA
HETATM    3  C   UNK N   1       4.377  -0.178  -0.427  0.00  0.00    -0.002 C 
HETATM    4  C   UNK N   1       5.687  -0.885   0.029  0.00  0.00    -0.004 C 
HETATM    5  C   UNK N   1       3.152  -0.963   0.135  0.00  0.00    -0.036 C 
HETATM    6  C   UNK N   1       6.895  -0.017  -0.354  0.00  0.00     0.006 C 
HETATM    7  C   UNK N   1       6.787   1.384   0.243  0.00  0.00     0.021 C 
HETATM    8  C   UNK N   1       3.321  -2.525  -0.051  0.00  0.00     0.001 C 
HETATM    9  C   UNK N   1       4.312   1.319  -0.022  0.00  0.00     0.007 C 
HETATM   10  C   UNK N   1       5.789  -2.276  -0.633  0.00  0.00     0.006 C 
HETATM   11  C   UNK N   1       5.589   2.094  -0.384  0.00  0.00     0.018 C 
HETATM   12  C   UNK N   1       4.431  -2.876  -1.044  0.00  0.00     0.006 C 
HETATM   13  C   UNK N   1       8.290  -0.479   0.079  0.00  0.00     0.013 C 
HETATM   14  C   UNK N   1       1.865  -0.450  -0.549  0.00  0.00     0.017 C 
HETATM   15  C   UNK N   1       8.143   1.878  -0.089  0.00  0.00     0.135 C 
HETATM   16  C   UNK N   1       3.019  -0.684   1.643  0.00  0.00     0.016 C 
HETATM   17  C   UNK N   1       2.036  -3.229  -0.512  0.00  0.00     0.083 C 
HETATM   18  C   UNK N   1       9.155   0.778  -0.128  0.00  0.00     0.079 C 
HETATM   19  C   UNK N   1       6.663   1.379   1.773  0.00  0.00     0.024 C 
HETATM   20  C   UNK N   1       0.617  -1.133   0.028  0.00  0.00     0.079 C 
HETATM   21  C   UNK N   1       0.820  -2.618   0.111  0.00  0.00     0.127 C 
ENDROOT
TORSDOF 0
