REMARK  1 active torsions:
REMARK  status: ('A' for Active; 'I' for Inactive)
REMARK    1  A    between atoms: C_7  and  O_1 
ROOT
HETATM    1  O   UNK N   1      -0.401  -3.243  -0.089  0.00  0.00    -0.293 OA
HETATM    2  C   UNK N   1       6.784  -0.114  -0.041  0.00  0.00     0.001 C 
HETATM    3  C   UNK N   1       6.691   1.341  -0.505  0.00  0.00    -0.009 C 
HETATM    4  C   UNK N   1       5.535  -0.937  -0.453  0.00  0.00    -0.001 C 
HETATM    5  C   UNK N   1       4.275  -0.244   0.158  0.00  0.00     0.003 C 
HETATM    6  C   UNK N   1       8.078   1.872  -0.109  0.00  0.00     0.062 C 
HETATM    7  C   UNK N   1       2.970  -0.956  -0.292  0.00  0.00    -0.016 C 
HETATM    8  C   UNK N   1       5.494   2.021   0.160  0.00  0.00     0.013 C 
HETATM    9  C   UNK N   1       4.209   1.263  -0.199  0.00  0.00     0.007 C 
HETATM   10  C   UNK N   1       8.148  -0.540  -0.584  0.00  0.00     0.009 C 
HETATM   11  C   UNK N   1       5.590  -2.390   0.081  0.00  0.00    -0.010 C 
HETATM   12  C   UNK N   1       9.009   0.740  -0.559  0.00  0.00     0.038 C 
HETATM   13  C   UNK N   1       4.337  -3.189  -0.272  0.00  0.00     0.039 C 
HETATM   14  C   UNK N   1       3.054  -2.451  -0.024  0.00  0.00    -0.067 C 
HETATM   15  C   UNK N   1       6.526   1.439  -2.038  0.00  0.00     0.018 C 
HETATM   16  C   UNK N   1       1.776  -0.368   0.482  0.00  0.00     0.022 C 
HETATM   17  C   UNK N   1       8.238   2.062   1.398  0.00  0.00     0.046 C 
HETATM   18  C   UNK N   1       2.746  -0.751  -1.793  0.00  0.00     0.020 C 
HETATM   19  C   UNK N   1       6.780  -3.169  -0.454  0.00  0.00     0.010 C 
HETATM   20  C   UNK N   1       0.448  -1.057   0.151  0.00  0.00     0.084 C 
HETATM   21  C   UNK N   1       1.929  -3.184   0.023  0.00  0.00     0.053 C 
HETATM   22  C   UNK N   1       0.595  -2.549   0.036  0.00  0.00     0.149 C 
ENDROOT
BRANCH   6  23
HETATM   23  O   UNK N   1       8.389   3.075  -0.749  0.00  0.00    -0.389 OA
HETATM   24  H   UNK N   1       9.220   3.306  -1.192  0.00  0.00     0.210 HD
ENDBRANCH   6  23
TORSDOF 1
