MODEL 1
REMARK VINA RESULT:      -7.7      0.000      0.000
REMARK  1 active torsions:
REMARK  status: ('A' for Active; 'I' for Inactive)
REMARK    1  A    between atoms: C_7  and  O_1 
ROOT
HETATM    1  O   UNK N   1      34.421   8.855  22.188  0.00  0.00    -0.293 OA
HETATM    2  C   UNK N   1      35.584  12.502  15.349  0.00  0.00     0.001 C 
HETATM    3  C   UNK N   1      36.176  11.504  14.352  0.00  0.00    -0.009 C 
HETATM    4  C   UNK N   1      35.753  12.028  16.817  0.00  0.00    -0.001 C 
HETATM    5  C   UNK N   1      35.061  10.635  16.958  0.00  0.00     0.003 C 
HETATM    6  C   UNK N   1      36.011  12.267  13.029  0.00  0.00     0.062 C 
HETATM    7  C   UNK N   1      35.271  10.046  18.380  0.00  0.00    -0.016 C 
HETATM    8  C   UNK N   1      35.437  10.169  14.457  0.00  0.00     0.013 C 
HETATM    9  C   UNK N   1      35.555   9.628  15.888  0.00  0.00     0.007 C 
HETATM   10  C   UNK N   1      36.249  13.813  14.927  0.00  0.00     0.009 C 
HETATM   11  C   UNK N   1      35.088  12.999  17.825  0.00  0.00    -0.010 C 
HETATM   12  C   UNK N   1      36.459  13.685  13.404  0.00  0.00     0.038 C 
HETATM   13  C   UNK N   1      35.200  12.509  19.267  0.00  0.00     0.039 C 
HETATM   14  C   UNK N   1      34.868  11.056  19.444  0.00  0.00    -0.067 C 
HETATM   15  C   UNK N   1      37.678  11.259  14.617  0.00  0.00     0.018 C 
HETATM   16  C   UNK N   1      34.416   8.776  18.537  0.00  0.00     0.022 C 
HETATM   17  C   UNK N   1      34.562  12.327  12.548  0.00  0.00     0.046 C 
HETATM   18  C   UNK N   1      36.745   9.690  18.593  0.00  0.00     0.020 C 
HETATM   19  C   UNK N   1      35.687  14.395  17.781  0.00  0.00     0.010 C 
HETATM   20  C   UNK N   1      34.508   8.159  19.937  0.00  0.00     0.084 C 
HETATM   21  C   UNK N   1      34.608  10.639  20.695  0.00  0.00     0.053 C 
HETATM   22  C   UNK N   1      34.491   9.202  21.020  0.00  0.00     0.149 C 
ENDROOT
BRANCH   6  23
HETATM   23  O   UNK N   1      36.802  11.735  12.006  0.00  0.00    -0.389 OA
HETATM   24  H   UNK N   1      37.707  11.395  12.081  0.00  0.00     0.210 HD
ENDBRANCH   6  23
TORSDOF 1
ENDMDL
MODEL 2
REMARK VINA RESULT:      -7.6     11.568     13.959
REMARK  1 active torsions:
REMARK  status: ('A' for Active; 'I' for Inactive)
REMARK    1  A    between atoms: C_7  and  O_1 
ROOT
HETATM    1  O   UNK N   1      33.742  13.964   1.718  0.00  0.00    -0.293 OA
HETATM    2  C   UNK N   1      30.627  17.369   8.052  0.00  0.00     0.001 C 
HETATM    3  C   UNK N   1      29.121  17.525   7.837  0.00  0.00    -0.009 C 
HETATM    4  C   UNK N   1      31.386  17.150   6.716  0.00  0.00    -0.001 C 
HETATM    5  C   UNK N   1      30.794  15.879   6.027  0.00  0.00     0.003 C 
HETATM    6  C   UNK N   1      28.648  17.868   9.259  0.00  0.00     0.062 C 
HETATM    7  C   UNK N   1      31.438  15.647   4.632  0.00  0.00    -0.016 C 
HETATM    8  C   UNK N   1      28.550  16.244   7.228  0.00  0.00     0.013 C 
HETATM    9  C   UNK N   1      29.252  15.952   5.895  0.00  0.00     0.007 C 
HETATM   10  C   UNK N   1      30.964  18.605   8.886  0.00  0.00     0.009 C 
HETATM   11  C   UNK N   1      32.901  16.915   6.936  0.00  0.00    -0.010 C 
HETATM   12  C   UNK N   1      29.699  18.884   9.723  0.00  0.00     0.038 C 
HETATM   13  C   UNK N   1      33.645  16.641   5.630  0.00  0.00     0.039 C 
HETATM   14  C   UNK N   1      32.956  15.656   4.732  0.00  0.00    -0.067 C 
HETATM   15  C   UNK N   1      28.800  18.705   6.894  0.00  0.00     0.018 C 
HETATM   16  C   UNK N   1      30.974  14.288   4.076  0.00  0.00     0.022 C 
HETATM   17  C   UNK N   1      28.680  16.670  10.206  0.00  0.00     0.046 C 
HETATM   18  C   UNK N   1      31.016  16.756   3.664  0.00  0.00     0.020 C 
HETATM   19  C   UNK N   1      33.589  18.096   7.601  0.00  0.00     0.010 C 
HETATM   20  C   UNK N   1      31.612  13.942   2.727  0.00  0.00     0.084 C 
HETATM   21  C   UNK N   1      33.692  15.108   3.751  0.00  0.00     0.053 C 
HETATM   22  C   UNK N   1      33.070  14.304   2.678  0.00  0.00     0.149 C 
ENDROOT
BRANCH   6  23
HETATM   23  O   UNK N   1      27.363  18.418   9.273  0.00  0.00    -0.389 OA
HETATM   24  H   UNK N   1      27.023  19.099   9.874  0.00  0.00     0.210 HD
ENDBRANCH   6  23
TORSDOF 1
ENDMDL
MODEL 3
REMARK VINA RESULT:      -7.3     23.294     26.211
REMARK  1 active torsions:
REMARK  status: ('A' for Active; 'I' for Inactive)
REMARK    1  A    between atoms: C_7  and  O_1 
ROOT
HETATM    1  O   UNK N   1      33.661  19.259  -4.528  0.00  0.00    -0.293 OA
HETATM    2  C   UNK N   1      27.766  24.248  -5.861  0.00  0.00     0.001 C 
HETATM    3  C   UNK N   1      27.547  25.099  -4.608  0.00  0.00    -0.009 C 
HETATM    4  C   UNK N   1      28.563  22.953  -5.553  0.00  0.00    -0.001 C 
HETATM    5  C   UNK N   1      29.931  23.365  -4.922  0.00  0.00     0.003 C 
HETATM    6  C   UNK N   1      26.634  26.208  -5.154  0.00  0.00     0.062 C 
HETATM    7  C   UNK N   1      30.750  22.116  -4.494  0.00  0.00    -0.016 C 
HETATM    8  C   UNK N   1      28.896  25.551  -4.048  0.00  0.00     0.013 C 
HETATM    9  C   UNK N   1      29.751  24.322  -3.715  0.00  0.00     0.007 C 
HETATM   10  C   UNK N   1      26.346  24.116  -6.413  0.00  0.00     0.009 C 
HETATM   11  C   UNK N   1      28.852  22.127  -6.831  0.00  0.00    -0.010 C 
HETATM   12  C   UNK N   1      25.635  25.425  -6.013  0.00  0.00     0.038 C 
HETATM   13  C   UNK N   1      29.686  20.880  -6.543  0.00  0.00     0.039 C 
HETATM   14  C   UNK N   1      30.863  21.128  -5.646  0.00  0.00    -0.067 C 
HETATM   15  C   UNK N   1      26.795  24.312  -3.511  0.00  0.00     0.018 C 
HETATM   16  C   UNK N   1      32.161  22.555  -4.062  0.00  0.00     0.022 C 
HETATM   17  C   UNK N   1      27.370  27.202  -6.050  0.00  0.00     0.046 C 
HETATM   18  C   UNK N   1      30.062  21.408  -3.323  0.00  0.00     0.020 C 
HETATM   19  C   UNK N   1      27.586  21.664  -7.532  0.00  0.00     0.010 C 
HETATM   20  C   UNK N   1      33.066  21.379  -3.684  0.00  0.00     0.084 C 
HETATM   21  C   UNK N   1      31.822  20.187  -5.625  0.00  0.00     0.053 C 
HETATM   22  C   UNK N   1      32.907  20.215  -4.622  0.00  0.00     0.149 C 
ENDROOT
BRANCH   6  23
HETATM   23  O   UNK N   1      25.988  26.914  -4.135  0.00  0.00    -0.389 OA
HETATM   24  H   UNK N   1      25.370  27.654  -4.235  0.00  0.00     0.210 HD
ENDBRANCH   6  23
TORSDOF 1
ENDMDL
MODEL 4
REMARK VINA RESULT:      -7.3     22.716     26.546
REMARK  1 active torsions:
REMARK  status: ('A' for Active; 'I' for Inactive)
REMARK    1  A    between atoms: C_7  and  O_1 
ROOT
HETATM    1  O   UNK N   1      33.184  21.406  -2.149  0.00  0.00    -0.293 OA
HETATM    2  C   UNK N   1      27.056  23.224  -6.684  0.00  0.00     0.001 C 
HETATM    3  C   UNK N   1      27.324  22.715  -8.101  0.00  0.00    -0.009 C 
HETATM    4  C   UNK N   1      28.359  23.334  -5.849  0.00  0.00    -0.001 C 
HETATM    5  C   UNK N   1      29.031  21.924  -5.810  0.00  0.00     0.003 C 
HETATM    6  C   UNK N   1      25.929  22.840  -8.734  0.00  0.00     0.062 C 
HETATM    7  C   UNK N   1      30.396  21.974  -5.072  0.00  0.00    -0.016 C 
HETATM    8  C   UNK N   1      27.914  21.306  -8.043  0.00  0.00     0.013 C 
HETATM    9  C   UNK N   1      29.214  21.327  -7.229  0.00  0.00     0.007 C 
HETATM   10  C   UNK N   1      26.248  24.495  -6.944  0.00  0.00     0.009 C 
HETATM   11  C   UNK N   1      28.084  23.775  -4.390  0.00  0.00    -0.010 C 
HETATM   12  C   UNK N   1      25.461  24.214  -8.240  0.00  0.00     0.038 C 
HETATM   13  C   UNK N   1      29.356  23.831  -3.547  0.00  0.00     0.039 C 
HETATM   14  C   UNK N   1      30.247  22.634  -3.709  0.00  0.00    -0.067 C 
HETATM   15  C   UNK N   1      28.311  23.632  -8.857  0.00  0.00     0.018 C 
HETATM   16  C   UNK N   1      30.927  20.541  -4.885  0.00  0.00     0.022 C 
HETATM   17  C   UNK N   1      24.947  21.783  -8.232  0.00  0.00     0.046 C 
HETATM   18  C   UNK N   1      31.409  22.783  -5.887  0.00  0.00     0.020 C 
HETATM   19  C   UNK N   1      27.432  25.145  -4.302  0.00  0.00     0.010 C 
HETATM   20  C   UNK N   1      32.245  20.485  -4.105  0.00  0.00     0.084 C 
HETATM   21  C   UNK N   1      31.187  22.443  -2.769  0.00  0.00     0.053 C 
HETATM   22  C   UNK N   1      32.256  21.437  -2.941  0.00  0.00     0.149 C 
ENDROOT
BRANCH   6  23
HETATM   23  O   UNK N   1      25.972  22.786 -10.130  0.00  0.00    -0.389 OA
HETATM   24  H   UNK N   1      26.185  23.509 -10.739  0.00  0.00     0.210 HD
ENDBRANCH   6  23
TORSDOF 1
ENDMDL
MODEL 5
REMARK VINA RESULT:      -7.1      1.237      6.257
REMARK  1 active torsions:
REMARK  status: ('A' for Active; 'I' for Inactive)
REMARK    1  A    between atoms: C_7  and  O_1 
ROOT
HETATM    1  O   UNK N   1      35.417  12.368  10.786  0.00  0.00    -0.293 OA
HETATM    2  C   UNK N   1      35.776  10.785  18.453  0.00  0.00     0.001 C 
HETATM    3  C   UNK N   1      35.412   9.315  18.670  0.00  0.00    -0.009 C 
HETATM    4  C   UNK N   1      35.292  11.307  17.074  0.00  0.00    -0.001 C 
HETATM    5  C   UNK N   1      35.932  10.412  15.965  0.00  0.00     0.003 C 
HETATM    6  C   UNK N   1      35.862   9.106  20.125  0.00  0.00     0.062 C 
HETATM    7  C   UNK N   1      35.417  10.811  14.556  0.00  0.00    -0.016 C 
HETATM    8  C   UNK N   1      36.106   8.449  17.619  0.00  0.00     0.013 C 
HETATM    9  C   UNK N   1      35.679   8.903  16.217  0.00  0.00     0.007 C 
HETATM   10  C   UNK N   1      35.223  11.446  19.716  0.00  0.00     0.009 C 
HETATM   11  C   UNK N   1      35.725  12.772  16.818  0.00  0.00    -0.010 C 
HETATM   12  C   UNK N   1      35.348  10.373  20.818  0.00  0.00     0.038 C 
HETATM   13  C   UNK N   1      35.301  13.273  15.439  0.00  0.00     0.039 C 
HETATM   14  C   UNK N   1      35.582  12.306  14.327  0.00  0.00    -0.067 C 
HETATM   15  C   UNK N   1      33.888   9.087  18.570  0.00  0.00     0.018 C 
HETATM   16  C   UNK N   1      36.214  10.043  13.486  0.00  0.00     0.022 C 
HETATM   17  C   UNK N   1      37.381   9.051  20.279  0.00  0.00     0.046 C 
HETATM   18  C   UNK N   1      33.931  10.468  14.419  0.00  0.00     0.020 C 
HETATM   19  C   UNK N   1      35.154  13.742  17.839  0.00  0.00     0.010 C 
HETATM   20  C   UNK N   1      35.818  10.422  12.055  0.00  0.00     0.084 C 
HETATM   21  C   UNK N   1      35.564  12.795  13.075  0.00  0.00     0.053 C 
HETATM   22  C   UNK N   1      35.603  11.902  11.898  0.00  0.00     0.149 C 
ENDROOT
BRANCH   6  23
HETATM   23  O   UNK N   1      35.311   7.953  20.691  0.00  0.00    -0.389 OA
HETATM   24  H   UNK N   1      34.847   7.237  20.230  0.00  0.00     0.210 HD
ENDBRANCH   6  23
TORSDOF 1
ENDMDL
MODEL 6
REMARK VINA RESULT:      -7.1      9.600     13.557
REMARK  1 active torsions:
REMARK  status: ('A' for Active; 'I' for Inactive)
REMARK    1  A    between atoms: C_7  and  O_1 
ROOT
HETATM    1  O   UNK N   1      36.129  14.950   8.545  0.00  0.00    -0.293 OA
HETATM    2  C   UNK N   1      29.670  17.780   5.125  0.00  0.00     0.001 C 
HETATM    3  C   UNK N   1      28.490  17.608   6.083  0.00  0.00    -0.009 C 
HETATM    4  C   UNK N   1      30.860  16.856   5.496  0.00  0.00    -0.001 C 
HETATM    5  C   UNK N   1      31.289  17.184   6.962  0.00  0.00     0.003 C 
HETATM    6  C   UNK N   1      27.430  18.500   5.417  0.00  0.00     0.062 C 
HETATM    7  C   UNK N   1      32.416  16.230   7.444  0.00  0.00    -0.016 C 
HETATM    8  C   UNK N   1      28.910  18.003   7.498  0.00  0.00     0.013 C 
HETATM    9  C   UNK N   1      30.091  17.130   7.945  0.00  0.00     0.007 C 
HETATM   10  C   UNK N   1      29.008  17.599   3.759  0.00  0.00     0.009 C 
HETATM   11  C   UNK N   1      32.086  17.082   4.576  0.00  0.00    -0.010 C 
HETATM   12  C   UNK N   1      27.572  18.136   3.934  0.00  0.00     0.038 C 
HETATM   13  C   UNK N   1      33.280  16.217   4.972  0.00  0.00     0.039 C 
HETATM   14  C   UNK N   1      33.564  16.208   6.446  0.00  0.00    -0.067 C 
HETATM   15  C   UNK N   1      27.985  16.148   6.106  0.00  0.00     0.018 C 
HETATM   16  C   UNK N   1      32.940  16.709   8.810  0.00  0.00     0.022 C 
HETATM   17  C   UNK N   1      27.716  19.992   5.580  0.00  0.00     0.046 C 
HETATM   18  C   UNK N   1      31.878  14.803   7.584  0.00  0.00     0.020 C 
HETATM   19  C   UNK N   1      31.787  16.787   3.115  0.00  0.00     0.010 C 
HETATM   20  C   UNK N   1      34.105  15.864   9.336  0.00  0.00     0.084 C 
HETATM   21  C   UNK N   1      34.774  15.768   6.831  0.00  0.00     0.053 C 
HETATM   22  C   UNK N   1      35.082  15.505   8.251  0.00  0.00     0.149 C 
ENDROOT
BRANCH   6  23
HETATM   23  O   UNK N   1      26.141  18.236   5.887  0.00  0.00    -0.389 OA
HETATM   24  H   UNK N   1      25.407  18.863   5.970  0.00  0.00     0.210 HD
ENDBRANCH   6  23
TORSDOF 1
ENDMDL
MODEL 7
REMARK VINA RESULT:      -7.0     10.632     14.700
REMARK  1 active torsions:
REMARK  status: ('A' for Active; 'I' for Inactive)
REMARK    1  A    between atoms: C_7  and  O_1 
ROOT
HETATM    1  O   UNK N   1      24.891  20.837   4.591  0.00  0.00    -0.293 OA
HETATM    2  C   UNK N   1      31.237  17.188   7.389  0.00  0.00     0.001 C 
HETATM    3  C   UNK N   1      31.769  16.233   6.319  0.00  0.00    -0.009 C 
HETATM    4  C   UNK N   1      29.763  17.593   7.127  0.00  0.00    -0.001 C 
HETATM    5  C   UNK N   1      29.686  18.253   5.713  0.00  0.00     0.003 C 
HETATM    6  C   UNK N   1      33.155  15.886   6.886  0.00  0.00     0.062 C 
HETATM    7  C   UNK N   1      28.220  18.600   5.335  0.00  0.00    -0.016 C 
HETATM    8  C   UNK N   1      31.752  16.923   4.955  0.00  0.00     0.013 C 
HETATM    9  C   UNK N   1      30.320  17.359   4.618  0.00  0.00     0.007 C 
HETATM   10  C   UNK N   1      31.568  16.441   8.682  0.00  0.00     0.009 C 
HETATM   11  C   UNK N   1      29.245  18.619   8.165  0.00  0.00    -0.010 C 
HETATM   12  C   UNK N   1      32.857  15.652   8.372  0.00  0.00     0.038 C 
HETATM   13  C   UNK N   1      27.812  19.066   7.879  0.00  0.00     0.039 C 
HETATM   14  C   UNK N   1      27.557  19.408   6.441  0.00  0.00    -0.067 C 
HETATM   15  C   UNK N   1      30.918  14.946   6.231  0.00  0.00     0.018 C 
HETATM   16  C   UNK N   1      28.209  19.419   4.032  0.00  0.00     0.022 C 
HETATM   17  C   UNK N   1      34.154  17.035   6.767  0.00  0.00     0.046 C 
HETATM   18  C   UNK N   1      27.409  17.317   5.129  0.00  0.00     0.020 C 
HETATM   19  C   UNK N   1      29.268  18.082   9.586  0.00  0.00     0.010 C 
HETATM   20  C   UNK N   1      26.804  19.865   3.614  0.00  0.00     0.084 C 
HETATM   21  C   UNK N   1      26.452  20.124   6.172  0.00  0.00     0.053 C 
HETATM   22  C   UNK N   1      25.982  20.325   4.786  0.00  0.00     0.149 C 
ENDROOT
BRANCH   6  23
HETATM   23  O   UNK N   1      33.704  14.749   6.289  0.00  0.00    -0.389 OA
HETATM   24  H   UNK N   1      33.609  13.829   6.580  0.00  0.00     0.210 HD
ENDBRANCH   6  23
TORSDOF 1
ENDMDL
MODEL 8
REMARK VINA RESULT:      -7.0     23.386     26.683
REMARK  1 active torsions:
REMARK  status: ('A' for Active; 'I' for Inactive)
REMARK    1  A    between atoms: C_7  and  O_1 
ROOT
HETATM    1  O   UNK N   1      33.082  20.697  -3.890  0.00  0.00    -0.293 OA
HETATM    2  C   UNK N   1      28.182  26.747  -4.794  0.00  0.00     0.001 C 
HETATM    3  C   UNK N   1      26.777  26.207  -5.068  0.00  0.00    -0.009 C 
HETATM    4  C   UNK N   1      29.278  25.682  -5.062  0.00  0.00    -0.001 C 
HETATM    5  C   UNK N   1      28.979  24.442  -4.160  0.00  0.00     0.003 C 
HETATM    6  C   UNK N   1      25.926  27.471  -4.873  0.00  0.00     0.062 C 
HETATM    7  C   UNK N   1      29.981  23.289  -4.443  0.00  0.00    -0.016 C 
HETATM    8  C   UNK N   1      26.478  25.040  -4.126  0.00  0.00     0.013 C 
HETATM    9  C   UNK N   1      27.524  23.936  -4.329  0.00  0.00     0.007 C 
HETATM   10  C   UNK N   1      28.200  28.034  -5.618  0.00  0.00     0.009 C 
HETATM   11  C   UNK N   1      30.695  26.200  -4.712  0.00  0.00    -0.010 C 
HETATM   12  C   UNK N   1      26.743  28.540  -5.607  0.00  0.00     0.038 C 
HETATM   13  C   UNK N   1      31.772  25.137  -4.920  0.00  0.00     0.039 C 
HETATM   14  C   UNK N   1      31.414  23.790  -4.363  0.00  0.00    -0.067 C 
HETATM   15  C   UNK N   1      26.632  25.714  -6.525  0.00  0.00     0.018 C 
HETATM   16  C   UNK N   1      29.776  22.170  -3.405  0.00  0.00     0.022 C 
HETATM   17  C   UNK N   1      25.793  27.883  -3.408  0.00  0.00     0.046 C 
HETATM   18  C   UNK N   1      29.750  22.720  -5.847  0.00  0.00     0.020 C 
HETATM   19  C   UNK N   1      31.099  27.411  -5.537  0.00  0.00     0.010 C 
HETATM   20  C   UNK N   1      30.768  21.013  -3.566  0.00  0.00     0.084 C 
HETATM   21  C   UNK N   1      32.419  22.914  -4.196  0.00  0.00     0.053 C 
HETATM   22  C   UNK N   1      32.159  21.496  -3.871  0.00  0.00     0.149 C 
ENDROOT
BRANCH   6  23
HETATM   23  O   UNK N   1      24.646  27.340  -5.420  0.00  0.00    -0.389 OA
HETATM   24  H   UNK N   1      24.353  26.688  -6.075  0.00  0.00     0.210 HD
ENDBRANCH   6  23
TORSDOF 1
ENDMDL
MODEL 9
REMARK VINA RESULT:      -6.8     23.784     27.340
REMARK  1 active torsions:
REMARK  status: ('A' for Active; 'I' for Inactive)
REMARK    1  A    between atoms: C_7  and  O_1 
ROOT
HETATM    1  O   UNK N   1      25.969  31.062  -3.590  0.00  0.00    -0.293 OA
HETATM    2  C   UNK N   1      28.768  23.846  -4.824  0.00  0.00     0.001 C 
HETATM    3  C   UNK N   1      30.296  23.909  -4.852  0.00  0.00    -0.009 C 
HETATM    4  C   UNK N   1      28.124  25.239  -5.053  0.00  0.00    -0.001 C 
HETATM    5  C   UNK N   1      28.656  26.207  -3.948  0.00  0.00     0.003 C 
HETATM    6  C   UNK N   1      30.660  22.419  -4.753  0.00  0.00     0.062 C 
HETATM    7  C   UNK N   1      28.131  27.652  -4.167  0.00  0.00    -0.016 C 
HETATM    8  C   UNK N   1      30.799  24.802  -3.718  0.00  0.00     0.013 C 
HETATM    9  C   UNK N   1      30.204  26.209  -3.872  0.00  0.00     0.007 C 
HETATM   10  C   UNK N   1      28.471  22.733  -5.829  0.00  0.00     0.009 C 
HETATM   11  C   UNK N   1      26.579  25.194  -4.949  0.00  0.00    -0.010 C 
HETATM   12  C   UNK N   1      29.671  21.769  -5.727  0.00  0.00     0.038 C 
HETATM   13  C   UNK N   1      25.943  26.572  -5.117  0.00  0.00     0.039 C 
HETATM   14  C   UNK N   1      26.618  27.655  -4.327  0.00  0.00    -0.067 C 
HETATM   15  C   UNK N   1      30.817  24.472  -6.193  0.00  0.00     0.018 C 
HETATM   16  C   UNK N   1      28.515  28.523  -2.957  0.00  0.00     0.022 C 
HETATM   17  C   UNK N   1      30.423  21.837  -3.360  0.00  0.00     0.046 C 
HETATM   18  C   UNK N   1      28.748  28.252  -5.434  0.00  0.00     0.020 C 
HETATM   19  C   UNK N   1      25.946  24.282  -5.987  0.00  0.00     0.010 C 
HETATM   20  C   UNK N   1      27.980  29.955  -3.054  0.00  0.00     0.084 C 
HETATM   21  C   UNK N   1      25.931  28.796  -4.146  0.00  0.00     0.053 C 
HETATM   22  C   UNK N   1      26.574  30.002  -3.585  0.00  0.00     0.149 C 
ENDROOT
BRANCH   6  23
HETATM   23  O   UNK N   1      31.983  22.169  -5.125  0.00  0.00    -0.389 OA
HETATM   24  H   UNK N   1      32.368  21.319  -5.388  0.00  0.00     0.210 HD
ENDBRANCH   6  23
TORSDOF 1
ENDMDL
