MODEL 1
REMARK VINA RESULT:      -6.9      0.000      0.000
REMARK  2 active torsions:
REMARK  status: ('A' for Active; 'I' for Inactive)
REMARK    1  A    between atoms: C_12  and  O_2 
REMARK    2  A    between atoms: O_3  and  C_20 
ROOT
HETATM    1  O   UNK N   1      31.884  16.751   7.816  0.00  0.00    -0.339 OA
HETATM    2  N   UNK N   1      29.170  15.089   3.812  0.00  0.00     0.089 N 
HETATM    3  C   UNK N   1      31.150  16.172   5.681  0.00  0.00     0.026 C 
HETATM    4  C   UNK N   1      31.231  16.465   4.181  0.00  0.00     0.035 C 
HETATM    5  C   UNK N   1      32.420  16.369   6.575  0.00  0.00     0.171 C 
HETATM    6  C   UNK N   1      29.754  16.441   3.651  0.00  0.00     0.232 C 
HETATM    7  C   UNK N   1      30.587  14.749   5.858  0.00  0.00     0.048 C 
HETATM    8  C   UNK N   1      30.244  17.094   6.368  0.00  0.00    -0.004 A 
HETATM    9  C   UNK N   1      31.979  17.773   3.931  0.00  0.00     0.010 C 
HETATM   10  C   UNK N   1      33.256  17.568   6.061  0.00  0.00     0.148 C 
HETATM   11  C   UNK N   1      28.815  17.474   4.364  0.00  0.00     0.075 C 
HETATM   12  C   UNK N   1      33.379  17.644   4.541  0.00  0.00     0.035 C 
HETATM   13  C   UNK N   1      29.207  14.592   5.197  0.00  0.00     0.273 C 
HETATM   14  C   UNK N   1      29.101  17.657   5.839  0.00  0.00    -0.046 A 
HETATM   15  C   UNK N   1      30.676  17.308   7.624  0.00  0.00     0.110 A 
HETATM   16  C   UNK N   1      29.807  14.115   2.933  0.00  0.00     0.310 C 
HETATM   17  C   UNK N   1      28.311  18.454   6.687  0.00  0.00     0.011 A 
HETATM   18  C   UNK N   1      29.912  18.073   8.511  0.00  0.00     0.099 A 
HETATM   19  C   UNK N   1      28.706  18.638   8.039  0.00  0.00     0.040 A 
ENDROOT
BRANCH  10  20
HETATM   20  O   UNK N   1      34.519  17.575   6.658  0.00  0.00    -0.393 OA
HETATM   21  H   UNK N   1      35.054  16.768   6.693  0.00  0.00     0.210 HD
ENDBRANCH  10  20
BRANCH  18  22
HETATM   22  O   UNK N   1      30.321  18.282   9.773  0.00  0.00    -0.358 OA
HETATM   23  H   UNK N   1      30.396  19.144  10.134  0.00  0.00     0.217 HD
ENDBRANCH  18  22
TORSDOF 2
ENDMDL
MODEL 2
REMARK VINA RESULT:      -6.8      2.507      5.009
REMARK  2 active torsions:
REMARK  status: ('A' for Active; 'I' for Inactive)
REMARK    1  A    between atoms: C_12  and  O_2 
REMARK    2  A    between atoms: O_3  and  C_20 
ROOT
HETATM    1  O   UNK N   1      29.633  16.285   5.789  0.00  0.00    -0.339 OA
HETATM    2  N   UNK N   1      33.937  15.698   8.488  0.00  0.00     0.089 N 
HETATM    3  C   UNK N   1      31.288  16.363   7.427  0.00  0.00     0.026 C 
HETATM    4  C   UNK N   1      31.902  17.157   8.583  0.00  0.00     0.035 C 
HETATM    5  C   UNK N   1      29.744  16.431   7.181  0.00  0.00     0.171 C 
HETATM    6  C   UNK N   1      33.458  17.095   8.376  0.00  0.00     0.232 C 
HETATM    7  C   UNK N   1      31.744  14.898   7.562  0.00  0.00     0.048 C 
HETATM    8  C   UNK N   1      31.746  16.852   6.126  0.00  0.00    -0.004 A 
HETATM    9  C   UNK N   1      31.320  18.567   8.632  0.00  0.00     0.010 C 
HETATM   10  C   UNK N   1      29.207  17.843   7.526  0.00  0.00     0.148 C 
HETATM   11  C   UNK N   1      33.930  17.672   6.998  0.00  0.00     0.075 C 
HETATM   12  C   UNK N   1      29.801  18.449   8.797  0.00  0.00     0.035 C 
HETATM   13  C   UNK N   1      33.277  14.771   7.554  0.00  0.00     0.273 C 
HETATM   14  C   UNK N   1      32.988  17.384   5.849  0.00  0.00    -0.046 A 
HETATM   15  C   UNK N   1      30.777  16.688   5.208  0.00  0.00     0.110 A 
HETATM   16  C   UNK N   1      33.807  15.186   9.848  0.00  0.00     0.310 C 
HETATM   17  C   UNK N   1      33.273  17.719   4.512  0.00  0.00     0.011 A 
HETATM   18  C   UNK N   1      31.021  16.984   3.864  0.00  0.00     0.099 A 
HETATM   19  C   UNK N   1      32.293  17.490   3.512  0.00  0.00     0.040 A 
ENDROOT
BRANCH  10  20
HETATM   20  O   UNK N   1      27.812  17.835   7.590  0.00  0.00    -0.393 OA
HETATM   21  H   UNK N   1      27.292  18.531   7.161  0.00  0.00     0.210 HD
ENDBRANCH  10  20
BRANCH  18  22
HETATM   22  O   UNK N   1      30.068  16.810   2.933  0.00  0.00    -0.358 OA
HETATM   23  H   UNK N   1      29.553  17.524   2.610  0.00  0.00     0.217 HD
ENDBRANCH  18  22
TORSDOF 2
ENDMDL
MODEL 3
REMARK VINA RESULT:      -6.7      2.254      3.650
REMARK  2 active torsions:
REMARK  status: ('A' for Active; 'I' for Inactive)
REMARK    1  A    between atoms: C_12  and  O_2 
REMARK    2  A    between atoms: O_3  and  C_20 
ROOT
HETATM    1  O   UNK N   1      27.522  18.937   8.450  0.00  0.00    -0.339 OA
HETATM    2  N   UNK N   1      28.442  15.509   4.768  0.00  0.00     0.089 N 
HETATM    3  C   UNK N   1      28.455  17.282   7.101  0.00  0.00     0.026 C 
HETATM    4  C   UNK N   1      29.740  16.617   6.603  0.00  0.00     0.035 C 
HETATM    5  C   UNK N   1      28.393  17.841   8.562  0.00  0.00     0.171 C 
HETATM    6  C   UNK N   1      29.564  16.433   5.053  0.00  0.00     0.232 C 
HETATM    7  C   UNK N   1      27.288  16.308   6.851  0.00  0.00     0.048 C 
HETATM    8  C   UNK N   1      28.163  18.518   6.373  0.00  0.00    -0.004 A 
HETATM    9  C   UNK N   1      30.960  17.437   7.014  0.00  0.00     0.010 C 
HETATM   10  C   UNK N   1      29.773  18.408   8.978  0.00  0.00     0.148 C 
HETATM   11  C   UNK N   1      29.305  17.776   4.288  0.00  0.00     0.075 C 
HETATM   12  C   UNK N   1      30.962  17.554   8.542  0.00  0.00     0.035 C 
HETATM   13  C   UNK N   1      27.164  15.931   5.365  0.00  0.00     0.273 C 
HETATM   14  C   UNK N   1      28.453  18.769   5.048  0.00  0.00    -0.046 A 
HETATM   15  C   UNK N   1      27.540  19.391   7.185  0.00  0.00     0.110 A 
HETATM   16  C   UNK N   1      28.743  14.144   5.188  0.00  0.00     0.310 C 
HETATM   17  C   UNK N   1      28.014  19.989   4.502  0.00  0.00     0.011 A 
HETATM   18  C   UNK N   1      27.064  20.606   6.682  0.00  0.00     0.099 A 
HETATM   19  C   UNK N   1      27.290  20.898   5.318  0.00  0.00     0.040 A 
ENDROOT
BRANCH  10  20
HETATM   20  O   UNK N   1      29.812  18.640  10.355  0.00  0.00    -0.393 OA
HETATM   21  H   UNK N   1      29.441  17.995  10.976  0.00  0.00     0.210 HD
ENDBRANCH  10  20
BRANCH  18  22
HETATM   22  O   UNK N   1      26.425  21.481   7.476  0.00  0.00    -0.358 OA
HETATM   23  H   UNK N   1      26.353  21.350   8.401  0.00  0.00     0.217 HD
ENDBRANCH  18  22
TORSDOF 2
ENDMDL
MODEL 4
REMARK VINA RESULT:      -6.7      8.204      9.705
REMARK  2 active torsions:
REMARK  status: ('A' for Active; 'I' for Inactive)
REMARK    1  A    between atoms: C_12  and  O_2 
REMARK    2  A    between atoms: O_3  and  C_20 
ROOT
HETATM    1  O   UNK N   1      20.863  12.637   9.754  0.00  0.00    -0.339 OA
HETATM    2  N   UNK N   1      24.007  12.393   5.727  0.00  0.00     0.089 N 
HETATM    3  C   UNK N   1      22.708  12.382   8.354  0.00  0.00     0.026 C 
HETATM    4  C   UNK N   1      24.231  12.469   8.221  0.00  0.00     0.035 C 
HETATM    5  C   UNK N   1      22.078  11.933   9.714  0.00  0.00     0.171 C 
HETATM    6  C   UNK N   1      24.509  13.203   6.862  0.00  0.00     0.232 C 
HETATM    7  C   UNK N   1      22.181  11.502   7.205  0.00  0.00     0.048 C 
HETATM    8  C   UNK N   1      22.074  13.695   8.233  0.00  0.00    -0.004 A 
HETATM    9  C   UNK N   1      24.836  13.147   9.449  0.00  0.00     0.010 C 
HETATM   10  C   UNK N   1      22.932  12.451  10.899  0.00  0.00     0.148 C 
HETATM   11  C   UNK N   1      23.865  14.629   6.775  0.00  0.00     0.075 C 
HETATM   12  C   UNK N   1      24.441  12.333  10.686  0.00  0.00     0.035 C 
HETATM   13  C   UNK N   1      22.576  12.062   5.827  0.00  0.00     0.273 C 
HETATM   14  C   UNK N   1      22.515  14.742   7.449  0.00  0.00    -0.046 A 
HETATM   15  C   UNK N   1      20.964  13.739   8.992  0.00  0.00     0.110 A 
HETATM   16  C   UNK N   1      24.775  11.165   5.554  0.00  0.00     0.310 C 
HETATM   17  C   UNK N   1      21.718  15.900   7.397  0.00  0.00     0.011 A 
HETATM   18  C   UNK N   1      20.129  14.860   8.955  0.00  0.00     0.099 A 
HETATM   19  C   UNK N   1      20.505  15.946   8.133  0.00  0.00     0.040 A 
ENDROOT
BRANCH  10  20
HETATM   20  O   UNK N   1      22.553  11.824  12.087  0.00  0.00    -0.393 OA
HETATM   21  H   UNK N   1      23.113  11.142  12.488  0.00  0.00     0.210 HD
ENDBRANCH  10  20
BRANCH  18  22
HETATM   22  O   UNK N   1      19.009  14.912   9.694  0.00  0.00    -0.358 OA
HETATM   23  H   UNK N   1      18.567  15.721   9.869  0.00  0.00     0.217 HD
ENDBRANCH  18  22
TORSDOF 2
ENDMDL
MODEL 5
REMARK VINA RESULT:      -6.5      1.874      4.391
REMARK  2 active torsions:
REMARK  status: ('A' for Active; 'I' for Inactive)
REMARK    1  A    between atoms: C_12  and  O_2 
REMARK    2  A    between atoms: O_3  and  C_20 
ROOT
HETATM    1  O   UNK N   1      34.631  17.189   5.991  0.00  0.00    -0.339 OA
HETATM    2  N   UNK N   1      29.948  16.172   4.206  0.00  0.00     0.089 N 
HETATM    3  C   UNK N   1      32.327  17.013   5.697  0.00  0.00     0.026 C 
HETATM    4  C   UNK N   1      30.957  16.918   6.375  0.00  0.00     0.035 C 
HETATM    5  C   UNK N   1      33.457  17.867   6.360  0.00  0.00     0.171 C 
HETATM    6  C   UNK N   1      30.173  15.787   5.619  0.00  0.00     0.232 C 
HETATM    7  C   UNK N   1      32.105  17.458   4.239  0.00  0.00     0.048 C 
HETATM    8  C   UNK N   1      33.010  15.718   5.665  0.00  0.00    -0.004 A 
HETATM    9  C   UNK N   1      31.118  16.690   7.876  0.00  0.00     0.010 C 
HETATM   10  C   UNK N   1      33.359  17.781   7.904  0.00  0.00     0.148 C 
HETATM   11  C   UNK N   1      30.898  14.398   5.643  0.00  0.00     0.075 C 
HETATM   12  C   UNK N   1      31.934  17.854   8.449  0.00  0.00     0.035 C 
HETATM   13  C   UNK N   1      31.186  16.488   3.476  0.00  0.00     0.273 C 
HETATM   14  C   UNK N   1      32.406  14.483   5.552  0.00  0.00    -0.046 A 
HETATM   15  C   UNK N   1      34.340  15.901   5.742  0.00  0.00     0.110 A 
HETATM   16  C   UNK N   1      29.020  17.293   4.090  0.00  0.00     0.310 C 
HETATM   17  C   UNK N   1      33.240  13.354   5.450  0.00  0.00     0.011 A 
HETATM   18  C   UNK N   1      35.209  14.813   5.623  0.00  0.00     0.099 A 
HETATM   19  C   UNK N   1      34.649  13.525   5.457  0.00  0.00     0.040 A 
ENDROOT
BRANCH  10  20
HETATM   20  O   UNK N   1      34.164  18.753   8.501  0.00  0.00    -0.393 OA
HETATM   21  H   UNK N   1      33.800  19.618   8.742  0.00  0.00     0.210 HD
ENDBRANCH  10  20
BRANCH  18  22
HETATM   22  O   UNK N   1      36.540  14.981   5.681  0.00  0.00    -0.358 OA
HETATM   23  H   UNK N   1      36.968  15.705   5.266  0.00  0.00     0.217 HD
ENDBRANCH  18  22
TORSDOF 2
ENDMDL
MODEL 6
REMARK VINA RESULT:      -6.3     10.905     12.400
REMARK  2 active torsions:
REMARK  status: ('A' for Active; 'I' for Inactive)
REMARK    1  A    between atoms: C_12  and  O_2 
REMARK    2  A    between atoms: O_3  and  C_20 
ROOT
HETATM    1  O   UNK N   1      37.055  12.680  13.620  0.00  0.00    -0.339 OA
HETATM    2  N   UNK N   1      36.077   8.784  16.786  0.00  0.00     0.089 N 
HETATM    3  C   UNK N   1      36.208  10.753  14.620  0.00  0.00     0.026 C 
HETATM    4  C   UNK N   1      35.006   9.815  14.770  0.00  0.00     0.035 C 
HETATM    5  C   UNK N   1      36.467  11.459  13.248  0.00  0.00     0.171 C 
HETATM    6  C   UNK N   1      34.880   9.510  16.305  0.00  0.00     0.232 C 
HETATM    7  C   UNK N   1      37.466   9.989  15.075  0.00  0.00     0.048 C 
HETATM    8  C   UNK N   1      36.081  11.941  15.466  0.00  0.00    -0.004 A 
HETATM    9  C   UNK N   1      33.763  10.435  14.137  0.00  0.00     0.010 C 
HETATM   10  C   UNK N   1      35.123  11.803  12.558  0.00  0.00     0.148 C 
HETATM   11  C   UNK N   1      34.692  10.793  17.186  0.00  0.00     0.075 C 
HETATM   12  C   UNK N   1      34.065  10.705  12.659  0.00  0.00     0.035 C 
HETATM   13  C   UNK N   1      37.341   9.491  16.525  0.00  0.00     0.273 C 
HETATM   14  C   UNK N   1      35.469  11.998  16.701  0.00  0.00    -0.046 A 
HETATM   15  C   UNK N   1      36.675  12.991  14.871  0.00  0.00     0.110 A 
HETATM   16  C   UNK N   1      36.155   7.437  16.231  0.00  0.00     0.310 C 
HETATM   17  C   UNK N   1      35.526  13.216  17.403  0.00  0.00     0.011 A 
HETATM   18  C   UNK N   1      36.776  14.215  15.540  0.00  0.00     0.099 A 
HETATM   19  C   UNK N   1      36.209  14.321  16.830  0.00  0.00     0.040 A 
ENDROOT
BRANCH  10  20
HETATM   20  O   UNK N   1      35.334  12.162  11.226  0.00  0.00    -0.393 OA
HETATM   21  H   UNK N   1      36.196  12.496  10.933  0.00  0.00     0.210 HD
ENDBRANCH  10  20
BRANCH  18  22
HETATM   22  O   UNK N   1      37.381  15.268  14.966  0.00  0.00    -0.358 OA
HETATM   23  H   UNK N   1      38.263  15.508  15.175  0.00  0.00     0.217 HD
ENDBRANCH  18  22
TORSDOF 2
ENDMDL
MODEL 7
REMARK VINA RESULT:      -6.2      7.389      9.028
REMARK  2 active torsions:
REMARK  status: ('A' for Active; 'I' for Inactive)
REMARK    1  A    between atoms: C_12  and  O_2 
REMARK    2  A    between atoms: O_3  and  C_20 
ROOT
HETATM    1  O   UNK N   1      23.473  19.650   4.298  0.00  0.00    -0.339 OA
HETATM    2  N   UNK N   1      20.842  15.412   5.430  0.00  0.00     0.089 N 
HETATM    3  C   UNK N   1      22.818  17.450   4.700  0.00  0.00     0.026 C 
HETATM    4  C   UNK N   1      23.046  15.971   4.376  0.00  0.00     0.035 C 
HETATM    5  C   UNK N   1      24.036  18.432   4.715  0.00  0.00     0.171 C 
HETATM    6  C   UNK N   1      21.621  15.345   4.171  0.00  0.00     0.232 C 
HETATM    7  C   UNK N   1      22.049  17.531   6.032  0.00  0.00     0.048 C 
HETATM    8  C   UNK N   1      22.005  18.113   3.679  0.00  0.00    -0.004 A 
HETATM    9  C   UNK N   1      23.986  15.825   3.182  0.00  0.00     0.010 C 
HETATM   10  C   UNK N   1      25.068  18.024   3.633  0.00  0.00     0.148 C 
HETATM   11  C   UNK N   1      20.789  16.036   3.037  0.00  0.00     0.075 C 
HETATM   12  C   UNK N   1      25.308  16.519   3.528  0.00  0.00     0.035 C 
HETATM   13  C   UNK N   1      20.710  16.775   5.969  0.00  0.00     0.273 C 
HETATM   14  C   UNK N   1      20.994  17.533   2.942  0.00  0.00    -0.046 A 
HETATM   15  C   UNK N   1      22.372  19.402   3.567  0.00  0.00     0.110 A 
HETATM   16  C   UNK N   1      21.396  14.538   6.458  0.00  0.00     0.310 C 
HETATM   17  C   UNK N   1      20.266  18.359   2.066  0.00  0.00     0.011 A 
HETATM   18  C   UNK N   1      21.664  20.267   2.728  0.00  0.00     0.099 A 
HETATM   19  C   UNK N   1      20.585  19.739   1.982  0.00  0.00     0.040 A 
ENDROOT
BRANCH  10  20
HETATM   20  O   UNK N   1      26.274  18.702   3.826  0.00  0.00    -0.393 OA
HETATM   21  H   UNK N   1      27.069  18.227   4.111  0.00  0.00     0.210 HD
ENDBRANCH  10  20
BRANCH  18  22
HETATM   22  O   UNK N   1      22.007  21.561   2.619  0.00  0.00    -0.358 OA
HETATM   23  H   UNK N   1      21.402  22.211   2.319  0.00  0.00     0.217 HD
ENDBRANCH  18  22
TORSDOF 2
ENDMDL
MODEL 8
REMARK VINA RESULT:      -6.1      8.179      9.918
REMARK  2 active torsions:
REMARK  status: ('A' for Active; 'I' for Inactive)
REMARK    1  A    between atoms: C_12  and  O_2 
REMARK    2  A    between atoms: O_3  and  C_20 
ROOT
HETATM    1  O   UNK N   1      21.738  19.173   5.411  0.00  0.00    -0.339 OA
HETATM    2  N   UNK N   1      22.703  14.692   3.144  0.00  0.00     0.089 N 
HETATM    3  C   UNK N   1      21.955  17.427   3.885  0.00  0.00     0.026 C 
HETATM    4  C   UNK N   1      21.421  16.776   2.605  0.00  0.00     0.035 C 
HETATM    5  C   UNK N   1      21.916  18.984   4.031  0.00  0.00     0.171 C 
HETATM    6  C   UNK N   1      21.347  15.235   2.898  0.00  0.00     0.232 C 
HETATM    7  C   UNK N   1      23.383  16.903   4.123  0.00  0.00     0.048 C 
HETATM    8  C   UNK N   1      21.151  17.069   5.054  0.00  0.00    -0.004 A 
HETATM    9  C   UNK N   1      20.096  17.413   2.195  0.00  0.00     0.010 C 
HETATM   10  C   UNK N   1      20.655  19.557   3.335  0.00  0.00     0.148 C 
HETATM   11  C   UNK N   1      20.439  14.872   4.122  0.00  0.00     0.075 C 
HETATM   12  C   UNK N   1      20.332  18.913   1.988  0.00  0.00     0.035 C 
HETATM   13  C   UNK N   1      23.420  15.368   4.237  0.00  0.00     0.273 C 
HETATM   14  C   UNK N   1      20.501  15.869   5.258  0.00  0.00    -0.046 A 
HETATM   15  C   UNK N   1      21.148  18.085   5.935  0.00  0.00     0.110 A 
HETATM   16  C   UNK N   1      23.525  14.717   1.939  0.00  0.00     0.310 C 
HETATM   17  C   UNK N   1      19.848  15.681   6.490  0.00  0.00     0.011 A 
HETATM   18  C   UNK N   1      20.533  17.936   7.182  0.00  0.00     0.099 A 
HETATM   19  C   UNK N   1      19.890  16.710   7.467  0.00  0.00     0.040 A 
ENDROOT
BRANCH  10  20
HETATM   20  O   UNK N   1      20.755  20.944   3.206  0.00  0.00    -0.393 OA
HETATM   21  H   UNK N   1      19.959  21.494   3.140  0.00  0.00     0.210 HD
ENDBRANCH  10  20
BRANCH  18  22
HETATM   22  O   UNK N   1      20.536  18.935   8.079  0.00  0.00    -0.358 OA
HETATM   23  H   UNK N   1      20.061  19.731   7.938  0.00  0.00     0.217 HD
ENDBRANCH  18  22
TORSDOF 2
ENDMDL
MODEL 9
REMARK VINA RESULT:      -6.0      8.469     10.339
REMARK  2 active torsions:
REMARK  status: ('A' for Active; 'I' for Inactive)
REMARK    1  A    between atoms: C_12  and  O_2 
REMARK    2  A    between atoms: O_3  and  C_20 
ROOT
HETATM    1  O   UNK N   1      20.005  18.212   2.950  0.00  0.00    -0.339 OA
HETATM    2  N   UNK N   1      22.329  14.657   5.800  0.00  0.00     0.089 N 
HETATM    3  C   UNK N   1      21.477  17.043   4.328  0.00  0.00     0.026 C 
HETATM    4  C   UNK N   1      22.925  16.873   4.795  0.00  0.00     0.035 C 
HETATM    5  C   UNK N   1      20.949  18.469   3.958  0.00  0.00     0.171 C 
HETATM    6  C   UNK N   1      23.201  15.328   4.808  0.00  0.00     0.232 C 
HETATM    7  C   UNK N   1      20.559  16.389   5.378  0.00  0.00     0.048 C 
HETATM    8  C   UNK N   1      21.234  16.374   3.049  0.00  0.00    -0.004 A 
HETATM    9  C   UNK N   1      23.870  17.684   3.911  0.00  0.00     0.010 C 
HETATM   10  C   UNK N   1      22.079  19.308   3.308  0.00  0.00     0.148 C 
HETATM   11  C   UNK N   1      22.986  14.641   3.415  0.00  0.00     0.075 C 
HETATM   12  C   UNK N   1      23.442  19.154   3.979  0.00  0.00     0.035 C 
HETATM   13  C   UNK N   1      20.894  14.901   5.584  0.00  0.00     0.273 C 
HETATM   14  C   UNK N   1      21.837  15.212   2.613  0.00  0.00    -0.046 A 
HETATM   15  C   UNK N   1      20.306  17.048   2.348  0.00  0.00     0.110 A 
HETATM   16  C   UNK N   1      22.680  15.023   7.167  0.00  0.00     0.310 C 
HETATM   17  C   UNK N   1      21.407  14.673   1.386  0.00  0.00     0.011 A 
HETATM   18  C   UNK N   1      19.830  16.539   1.136  0.00  0.00     0.099 A 
HETATM   19  C   UNK N   1      20.377  15.326   0.660  0.00  0.00     0.040 A 
ENDROOT
BRANCH  10  20
HETATM   20  O   UNK N   1      21.712  20.654   3.241  0.00  0.00    -0.393 OA
HETATM   21  H   UNK N   1      20.782  20.918   3.310  0.00  0.00     0.210 HD
ENDBRANCH  10  20
BRANCH  18  22
HETATM   22  O   UNK N   1      18.891  17.193   0.432  0.00  0.00    -0.358 OA
HETATM   23  H   UNK N   1      18.144  17.582   0.843  0.00  0.00     0.217 HD
ENDBRANCH  18  22
TORSDOF 2
ENDMDL
