REMARK  2 active torsions:
REMARK  status: ('A' for Active; 'I' for Inactive)
REMARK    1  A    between atoms: C_12  and  O_2 
REMARK    2  A    between atoms: O_3  and  C_20 
ROOT
HETATM    1  O   UNK N   1       0.969   0.173  -0.835  0.00  0.00    -0.339 OA
HETATM    2  N   UNK N   1       5.994  -0.776  -0.752  0.00  0.00     0.089 N 
HETATM    3  C   UNK N   1       3.075  -0.763  -0.492  0.00  0.00     0.026 C 
HETATM    4  C   UNK N   1       3.948  -1.648   0.402  0.00  0.00     0.035 C 
HETATM    5  C   UNK N   1       1.553  -1.091  -0.650  0.00  0.00     0.171 C 
HETATM    6  C   UNK N   1       5.316  -0.894   0.560  0.00  0.00     0.232 C 
HETATM    7  C   UNK N   1       3.749  -0.673  -1.874  0.00  0.00     0.048 C 
HETATM    8  C   UNK N   1       2.960   0.598   0.034  0.00  0.00    -0.004 A 
HETATM    9  C   UNK N   1       3.231  -1.953   1.715  0.00  0.00     0.010 C 
HETATM   10  C   UNK N   1       0.985  -1.655   0.677  0.00  0.00     0.148 C 
HETATM   11  C   UNK N   1       5.174   0.541   1.174  0.00  0.00     0.075 C 
HETATM   12  C   UNK N   1       1.906  -2.648   1.384  0.00  0.00     0.035 C 
HETATM   13  C   UNK N   1       5.178  -0.110  -1.780  0.00  0.00     0.273 C 
HETATM   14  C   UNK N   1       3.931   1.284   0.734  0.00  0.00    -0.046 A 
HETATM   15  C   UNK N   1       1.758   1.111  -0.283  0.00  0.00     0.110 A 
HETATM   16  C   UNK N   1       6.436  -2.073  -1.253  0.00  0.00     0.310 C 
HETATM   17  C   UNK N   1       3.665   2.621   1.082  0.00  0.00     0.011 A 
HETATM   18  C   UNK N   1       1.457   2.442   0.021  0.00  0.00     0.099 A 
HETATM   19  C   UNK N   1       2.432   3.210   0.697  0.00  0.00     0.040 A 
ENDROOT
BRANCH  10  20
HETATM   20  O   UNK N   1      -0.277  -2.216   0.470  0.00  0.00    -0.393 OA
HETATM   21  H   UNK N   1      -1.052  -1.652   0.327  0.00  0.00     0.210 HD
ENDBRANCH  10  20
BRANCH  18  22
HETATM   22  O   UNK N   1       0.267   2.974  -0.304  0.00  0.00    -0.358 OA
HETATM   23  H   UNK N   1       0.173   3.879  -0.530  0.00  0.00     0.217 HD
ENDBRANCH  18  22
TORSDOF 2
