MODEL 1
REMARK VINA RESULT:      -5.3      0.000      0.000
REMARK  4 active torsions:
REMARK  status: ('A' for Active; 'I' for Inactive)
REMARK    1  A    between atoms: N_3  and  C_4 
REMARK    2  A    between atoms: N_3  and  C_9 
REMARK    3  A    between atoms: C_4  and  C_5 
REMARK    4  A    between atoms: C_5  and  C_6 
ROOT
HETATM    1  O   UNK N   1      33.232  17.582   8.571  0.00  0.00    -0.323 OA
HETATM    2  O   UNK N   1      34.679  17.774   6.905  0.00  0.00    -0.323 OA
HETATM    3  C   UNK N   1      30.770  17.194   5.865  0.00  0.00    -0.053 A 
HETATM    4  C   UNK N   1      31.225  17.269   7.197  0.00  0.00     0.047 A 
HETATM    5  C   UNK N   1      31.701  17.329   4.801  0.00  0.00     0.010 A 
HETATM    6  C   UNK N   1      32.584  17.475   7.411  0.00  0.00     0.105 A 
HETATM    7  C   UNK N   1      33.458  17.593   6.407  0.00  0.00     0.105 A 
HETATM    8  C   UNK N   1      33.068  17.529   5.071  0.00  0.00     0.040 A 
HETATM    9  C   UNK N   1      34.590  17.776   8.303  0.00  0.00     0.352 A 
ENDROOT
BRANCH   3  10
HETATM   10  C   UNK N   1      29.304  16.942   5.635  0.00  0.00     0.063 C 
BRANCH  10  11
HETATM   11  C   UNK N   1      28.347  18.138   5.632  0.00  0.00     0.076 C 
HETATM   12  C   UNK N   1      27.460  18.143   4.392  0.00  0.00     0.032 C 
BRANCH  11  13
HETATM   13  N   UNK N   1      27.510  18.027   6.821  0.00  0.00    -0.417 N 
HETATM   14  H   UNK N   1      26.687  17.429   6.908  0.00  0.00     0.153 HD
BRANCH  13  15
HETATM   15  C   UNK N   1      28.029  18.897   7.862  0.00  0.00     0.110 C 
HETATM   16  C   UNK N   1      28.212  18.095   9.134  0.00  0.00     0.026 C 
ENDBRANCH  13  15
ENDBRANCH  11  13
ENDBRANCH  10  11
ENDBRANCH   3  10
TORSDOF 4
ENDMDL
MODEL 2
REMARK VINA RESULT:      -5.2      1.817      2.672
REMARK  4 active torsions:
REMARK  status: ('A' for Active; 'I' for Inactive)
REMARK    1  A    between atoms: N_3  and  C_4 
REMARK    2  A    between atoms: N_3  and  C_9 
REMARK    3  A    between atoms: C_4  and  C_5 
REMARK    4  A    between atoms: C_5  and  C_6 
ROOT
HETATM    1  O   UNK N   1      34.360  15.648  10.547  0.00  0.00    -0.323 OA
HETATM    2  O   UNK N   1      35.650  17.402  10.138  0.00  0.00    -0.323 OA
HETATM    3  C   UNK N   1      32.491  16.834   7.610  0.00  0.00    -0.053 A 
HETATM    4  C   UNK N   1      32.790  15.985   8.694  0.00  0.00     0.047 A 
HETATM    5  C   UNK N   1      33.314  17.963   7.359  0.00  0.00     0.010 A 
HETATM    6  C   UNK N   1      33.894  16.297   9.480  0.00  0.00     0.105 A 
HETATM    7  C   UNK N   1      34.672  17.356   9.236  0.00  0.00     0.105 A 
HETATM    8  C   UNK N   1      34.426  18.231   8.181  0.00  0.00     0.040 A 
HETATM    9  C   UNK N   1      35.495  16.319  11.012  0.00  0.00     0.352 A 
ENDROOT
BRANCH   3  10
HETATM   10  C   UNK N   1      31.312  16.479   6.743  0.00  0.00     0.063 C 
BRANCH  10  11
HETATM   11  C   UNK N   1      30.109  17.427   6.717  0.00  0.00     0.076 C 
HETATM   12  C   UNK N   1      29.344  17.327   5.403  0.00  0.00     0.032 C 
BRANCH  11  13
HETATM   13  N   UNK N   1      29.231  17.043   7.816  0.00  0.00    -0.417 N 
HETATM   14  H   UNK N   1      28.967  16.086   8.051  0.00  0.00     0.153 HD
BRANCH  13  15
HETATM   15  C   UNK N   1      28.791  18.233   8.523  0.00  0.00     0.110 C 
HETATM   16  C   UNK N   1      29.953  18.796   9.318  0.00  0.00     0.026 C 
ENDBRANCH  13  15
ENDBRANCH  11  13
ENDBRANCH  10  11
ENDBRANCH   3  10
TORSDOF 4
ENDMDL
MODEL 3
REMARK VINA RESULT:      -5.0      5.381      7.722
REMARK  4 active torsions:
REMARK  status: ('A' for Active; 'I' for Inactive)
REMARK    1  A    between atoms: N_3  and  C_4 
REMARK    2  A    between atoms: N_3  and  C_9 
REMARK    3  A    between atoms: C_4  and  C_5 
REMARK    4  A    between atoms: C_5  and  C_6 
ROOT
HETATM    1  O   UNK N   1      22.642  19.357   3.775  0.00  0.00    -0.323 OA
HETATM    2  O   UNK N   1      23.289  20.805   2.228  0.00  0.00    -0.323 OA
HETATM    3  C   UNK N   1      26.225  19.229   4.593  0.00  0.00    -0.053 A 
HETATM    4  C   UNK N   1      24.860  18.906   4.718  0.00  0.00     0.047 A 
HETATM    5  C   UNK N   1      26.636  20.149   3.592  0.00  0.00     0.010 A 
HETATM    6  C   UNK N   1      23.964  19.512   3.844  0.00  0.00     0.105 A 
HETATM    7  C   UNK N   1      24.352  20.384   2.909  0.00  0.00     0.105 A 
HETATM    8  C   UNK N   1      25.688  20.741   2.737  0.00  0.00     0.040 A 
HETATM    9  C   UNK N   1      22.154  20.170   2.748  0.00  0.00     0.352 A 
ENDROOT
BRANCH   3  10
HETATM   10  C   UNK N   1      27.191  18.594   5.559  0.00  0.00     0.063 C 
BRANCH  10  11
HETATM   11  C   UNK N   1      27.795  19.460   6.668  0.00  0.00     0.076 C 
HETATM   12  C   UNK N   1      26.979  20.728   6.896  0.00  0.00     0.032 C 
BRANCH  11  13
HETATM   13  N   UNK N   1      27.795  18.663   7.888  0.00  0.00    -0.417 N 
HETATM   14  H   UNK N   1      26.971  18.444   8.449  0.00  0.00     0.153 HD
BRANCH  13  15
HETATM   15  C   UNK N   1      29.150  18.229   8.183  0.00  0.00     0.110 C 
HETATM   16  C   UNK N   1      29.469  18.548   9.630  0.00  0.00     0.026 C 
ENDBRANCH  13  15
ENDBRANCH  11  13
ENDBRANCH  10  11
ENDBRANCH   3  10
TORSDOF 4
ENDMDL
MODEL 4
REMARK VINA RESULT:      -5.0     14.550     16.607
REMARK  4 active torsions:
REMARK  status: ('A' for Active; 'I' for Inactive)
REMARK    1  A    between atoms: N_3  and  C_4 
REMARK    2  A    between atoms: N_3  and  C_9 
REMARK    3  A    between atoms: C_4  and  C_5 
REMARK    4  A    between atoms: C_5  and  C_6 
ROOT
HETATM    1  O   UNK N   1      28.500  29.843  -6.492  0.00  0.00    -0.323 OA
HETATM    2  O   UNK N   1      27.948  30.983  -4.675  0.00  0.00    -0.323 OA
HETATM    3  C   UNK N   1      25.941  27.481  -5.307  0.00  0.00    -0.053 A 
HETATM    4  C   UNK N   1      26.934  27.983  -6.171  0.00  0.00     0.047 A 
HETATM    5  C   UNK N   1      25.599  28.211  -4.137  0.00  0.00     0.010 A 
HETATM    6  C   UNK N   1      27.543  29.187  -5.834  0.00  0.00     0.105 A 
HETATM    7  C   UNK N   1      27.214  29.876  -4.738  0.00  0.00     0.105 A 
HETATM    8  C   UNK N   1      26.241  29.429  -3.846  0.00  0.00     0.040 A 
HETATM    9  C   UNK N   1      28.799  31.012  -5.787  0.00  0.00     0.352 A 
ENDROOT
BRANCH   3  10
HETATM   10  C   UNK N   1      25.262  26.192  -5.687  0.00  0.00     0.063 C 
BRANCH  10  11
HETATM   11  C   UNK N   1      26.055  24.886  -5.580  0.00  0.00     0.076 C 
HETATM   12  C   UNK N   1      26.404  24.560  -4.133  0.00  0.00     0.032 C 
BRANCH  11  13
HETATM   13  N   UNK N   1      25.217  23.824  -6.124  0.00  0.00    -0.417 N 
HETATM   14  H   UNK N   1      24.197  23.809  -6.101  0.00  0.00     0.153 HD
BRANCH  13  15
HETATM   15  C   UNK N   1      26.059  22.791  -6.703  0.00  0.00     0.110 C 
HETATM   16  C   UNK N   1      25.182  21.764  -7.389  0.00  0.00     0.026 C 
ENDBRANCH  13  15
ENDBRANCH  11  13
ENDBRANCH  10  11
ENDBRANCH   3  10
TORSDOF 4
ENDMDL
MODEL 5
REMARK VINA RESULT:      -4.9     11.049     12.635
REMARK  4 active torsions:
REMARK  status: ('A' for Active; 'I' for Inactive)
REMARK    1  A    between atoms: N_3  and  C_4 
REMARK    2  A    between atoms: N_3  and  C_9 
REMARK    3  A    between atoms: C_4  and  C_5 
REMARK    4  A    between atoms: C_5  and  C_6 
ROOT
HETATM    1  O   UNK N   1      31.416  22.166  -2.118  0.00  0.00    -0.323 OA
HETATM    2  O   UNK N   1      31.919  21.649  -4.212  0.00  0.00    -0.323 OA
HETATM    3  C   UNK N   1      28.446  23.722  -3.630  0.00  0.00    -0.053 A 
HETATM    4  C   UNK N   1      29.309  23.328  -2.588  0.00  0.00     0.047 A 
HETATM    5  C   UNK N   1      28.779  23.398  -4.972  0.00  0.00     0.010 A 
HETATM    6  C   UNK N   1      30.463  22.630  -2.926  0.00  0.00     0.105 A 
HETATM    7  C   UNK N   1      30.769  22.319  -4.189  0.00  0.00     0.105 A 
HETATM    8  C   UNK N   1      29.956  22.682  -5.261  0.00  0.00     0.040 A 
HETATM    9  C   UNK N   1      32.382  21.522  -2.897  0.00  0.00     0.352 A 
ENDROOT
BRANCH   3  10
HETATM   10  C   UNK N   1      27.182  24.452  -3.260  0.00  0.00     0.063 C 
BRANCH  10  11
HETATM   11  C   UNK N   1      26.783  25.685  -4.075  0.00  0.00     0.076 C 
HETATM   12  C   UNK N   1      25.692  25.359  -5.089  0.00  0.00     0.032 C 
BRANCH  11  13
HETATM   13  N   UNK N   1      26.284  26.683  -3.136  0.00  0.00    -0.417 N 
HETATM   14  H   UNK N   1      26.413  26.655  -2.124  0.00  0.00     0.153 HD
BRANCH  13  15
HETATM   15  C   UNK N   1      25.575  27.722  -3.863  0.00  0.00     0.110 C 
HETATM   16  C   UNK N   1      26.451  28.956  -3.943  0.00  0.00     0.026 C 
ENDBRANCH  13  15
ENDBRANCH  11  13
ENDBRANCH  10  11
ENDBRANCH   3  10
TORSDOF 4
ENDMDL
MODEL 6
REMARK VINA RESULT:      -4.9      2.063      3.183
REMARK  4 active torsions:
REMARK  status: ('A' for Active; 'I' for Inactive)
REMARK    1  A    between atoms: N_3  and  C_4 
REMARK    2  A    between atoms: N_3  and  C_9 
REMARK    3  A    between atoms: C_4  and  C_5 
REMARK    4  A    between atoms: C_5  and  C_6 
ROOT
HETATM    1  O   UNK N   1      34.400  15.512  10.334  0.00  0.00    -0.323 OA
HETATM    2  O   UNK N   1      35.488  17.441  10.282  0.00  0.00    -0.323 OA
HETATM    3  C   UNK N   1      32.947  16.697   7.170  0.00  0.00    -0.053 A 
HETATM    4  C   UNK N   1      33.160  15.805   8.239  0.00  0.00     0.047 A 
HETATM    5  C   UNK N   1      33.638  17.937   7.147  0.00  0.00     0.010 A 
HETATM    6  C   UNK N   1      34.050  16.185   9.238  0.00  0.00     0.105 A 
HETATM    7  C   UNK N   1      34.705  17.349   9.210  0.00  0.00     0.105 A 
HETATM    8  C   UNK N   1      34.535  18.271   8.179  0.00  0.00     0.040 A 
HETATM    9  C   UNK N   1      35.328  16.278  11.045  0.00  0.00     0.352 A 
ENDROOT
BRANCH   3  10
HETATM   10  C   UNK N   1      32.005  16.272   6.074  0.00  0.00     0.063 C 
BRANCH  10  11
HETATM   11  C   UNK N   1      31.459  17.339   5.121  0.00  0.00     0.076 C 
HETATM   12  C   UNK N   1      32.157  17.291   3.767  0.00  0.00     0.032 C 
BRANCH  11  13
HETATM   13  N   UNK N   1      30.037  17.072   4.940  0.00  0.00    -0.417 N 
HETATM   14  H   UNK N   1      29.627  16.587   4.141  0.00  0.00     0.153 HD
BRANCH  13  15
HETATM   15  C   UNK N   1      29.296  17.604   6.071  0.00  0.00     0.110 C 
HETATM   16  C   UNK N   1      28.182  16.640   6.430  0.00  0.00     0.026 C 
ENDBRANCH  13  15
ENDBRANCH  11  13
ENDBRANCH  10  11
ENDBRANCH   3  10
TORSDOF 4
ENDMDL
MODEL 7
REMARK VINA RESULT:      -4.9      1.468      2.446
REMARK  4 active torsions:
REMARK  status: ('A' for Active; 'I' for Inactive)
REMARK    1  A    between atoms: N_3  and  C_4 
REMARK    2  A    between atoms: N_3  and  C_9 
REMARK    3  A    between atoms: C_4  and  C_5 
REMARK    4  A    between atoms: C_5  and  C_6 
ROOT
HETATM    1  O   UNK N   1      34.306  17.864   6.820  0.00  0.00    -0.323 OA
HETATM    2  O   UNK N   1      33.580  18.399   8.843  0.00  0.00    -0.323 OA
HETATM    3  C   UNK N   1      30.836  16.765   6.293  0.00  0.00    -0.053 A 
HETATM    4  C   UNK N   1      32.182  17.002   5.951  0.00  0.00     0.047 A 
HETATM    5  C   UNK N   1      30.378  17.099   7.596  0.00  0.00     0.010 A 
HETATM    6  C   UNK N   1      33.012  17.560   6.917  0.00  0.00     0.105 A 
HETATM    7  C   UNK N   1      32.576  17.881   8.139  0.00  0.00     0.105 A 
HETATM    8  C   UNK N   1      31.258  17.669   8.535  0.00  0.00     0.040 A 
HETATM    9  C   UNK N   1      34.724  18.411   8.037  0.00  0.00     0.352 A 
ENDROOT
BRANCH   3  10
HETATM   10  C   UNK N   1      29.931  16.188   5.237  0.00  0.00     0.063 C 
BRANCH  10  11
HETATM   11  C   UNK N   1      29.760  16.952   3.921  0.00  0.00     0.076 C 
HETATM   12  C   UNK N   1      28.691  16.318   3.039  0.00  0.00     0.032 C 
BRANCH  11  13
HETATM   13  N   UNK N   1      29.360  18.313   4.259  0.00  0.00    -0.417 N 
HETATM   14  H   UNK N   1      29.973  19.128   4.238  0.00  0.00     0.153 HD
BRANCH  13  15
HETATM   15  C   UNK N   1      27.955  18.327   4.628  0.00  0.00     0.110 C 
HETATM   16  C   UNK N   1      27.764  19.248   5.817  0.00  0.00     0.026 C 
ENDBRANCH  13  15
ENDBRANCH  11  13
ENDBRANCH  10  11
ENDBRANCH   3  10
TORSDOF 4
ENDMDL
MODEL 8
REMARK VINA RESULT:      -4.8      9.533     10.736
REMARK  4 active torsions:
REMARK  status: ('A' for Active; 'I' for Inactive)
REMARK    1  A    between atoms: N_3  and  C_4 
REMARK    2  A    between atoms: N_3  and  C_9 
REMARK    3  A    between atoms: C_4  and  C_5 
REMARK    4  A    between atoms: C_5  and  C_6 
ROOT
HETATM    1  O   UNK N   1      22.179  12.054  12.433  0.00  0.00    -0.323 OA
HETATM    2  O   UNK N   1      24.388  11.950  12.302  0.00  0.00    -0.323 OA
HETATM    3  C   UNK N   1      22.380  12.520   8.790  0.00  0.00    -0.053 A 
HETATM    4  C   UNK N   1      21.748  12.385  10.042  0.00  0.00     0.047 A 
HETATM    5  C   UNK N   1      23.797  12.464   8.713  0.00  0.00     0.010 A 
HETATM    6  C   UNK N   1      22.552  12.200  11.161  0.00  0.00     0.105 A 
HETATM    7  C   UNK N   1      23.885  12.139  11.085  0.00  0.00     0.105 A 
HETATM    8  C   UNK N   1      24.565  12.267   9.876  0.00  0.00     0.040 A 
HETATM    9  C   UNK N   1      23.327  11.888  13.214  0.00  0.00     0.352 A 
ENDROOT
BRANCH   3  10
HETATM   10  C   UNK N   1      21.507  12.692   7.575  0.00  0.00     0.063 C 
BRANCH  10  11
HETATM   11  C   UNK N   1      20.759  14.015   7.390  0.00  0.00     0.076 C 
HETATM   12  C   UNK N   1      21.693  15.212   7.537  0.00  0.00     0.032 C 
BRANCH  11  13
HETATM   13  N   UNK N   1      20.193  14.010   6.047  0.00  0.00    -0.417 N 
HETATM   14  H   UNK N   1      19.881  13.179   5.543  0.00  0.00     0.153 HD
BRANCH  13  15
HETATM   15  C   UNK N   1      20.142  15.369   5.536  0.00  0.00     0.110 C 
HETATM   16  C   UNK N   1      18.703  15.729   5.227  0.00  0.00     0.026 C 
ENDBRANCH  13  15
ENDBRANCH  11  13
ENDBRANCH  10  11
ENDBRANCH   3  10
TORSDOF 4
ENDMDL
MODEL 9
REMARK VINA RESULT:      -4.8      3.267      4.819
REMARK  4 active torsions:
REMARK  status: ('A' for Active; 'I' for Inactive)
REMARK    1  A    between atoms: N_3  and  C_4 
REMARK    2  A    between atoms: N_3  and  C_9 
REMARK    3  A    between atoms: C_4  and  C_5 
REMARK    4  A    between atoms: C_5  and  C_6 
ROOT
HETATM    1  O   UNK N   1      34.695  14.050   3.877  0.00  0.00    -0.323 OA
HETATM    2  O   UNK N   1      33.488  14.898   2.224  0.00  0.00    -0.323 OA
HETATM    3  C   UNK N   1      33.650  17.086   5.672  0.00  0.00    -0.053 A 
HETATM    4  C   UNK N   1      34.304  15.850   5.495  0.00  0.00     0.047 A 
HETATM    5  C   UNK N   1      32.887  17.631   4.605  0.00  0.00     0.010 A 
HETATM    6  C   UNK N   1      34.169  15.211   4.268  0.00  0.00     0.105 A 
HETATM    7  C   UNK N   1      33.443  15.722   3.268  0.00  0.00     0.105 A 
HETATM    8  C   UNK N   1      32.776  16.940   3.384  0.00  0.00     0.040 A 
HETATM    9  C   UNK N   1      34.286  13.799   2.564  0.00  0.00     0.352 A 
ENDROOT
BRANCH   3  10
HETATM   10  C   UNK N   1      33.773  17.763   7.012  0.00  0.00     0.063 C 
BRANCH  10  11
HETATM   11  C   UNK N   1      33.348  16.991   8.264  0.00  0.00     0.076 C 
HETATM   12  C   UNK N   1      34.519  16.781   9.217  0.00  0.00     0.032 C 
BRANCH  11  13
HETATM   13  N   UNK N   1      32.320  17.781   8.932  0.00  0.00    -0.417 N 
HETATM   14  H   UNK N   1      32.480  18.405   9.724  0.00  0.00     0.153 HD
BRANCH  13  15
HETATM   15  C   UNK N   1      31.036  17.540   8.298  0.00  0.00     0.110 C 
HETATM   16  C   UNK N   1      29.997  18.452   8.920  0.00  0.00     0.026 C 
ENDBRANCH  13  15
ENDBRANCH  11  13
ENDBRANCH  10  11
ENDBRANCH   3  10
TORSDOF 4
ENDMDL
