REMARK  4 active torsions:
REMARK  status: ('A' for Active; 'I' for Inactive)
REMARK    1  A    between atoms: N_3  and  C_4 
REMARK    2  A    between atoms: N_3  and  C_9 
REMARK    3  A    between atoms: C_4  and  C_5 
REMARK    4  A    between atoms: C_5  and  C_6 
ROOT
HETATM    1  O   UNK N   1       8.950   0.799   0.113  0.00  0.00    -0.323 OA
HETATM    2  O   UNK N   1       8.991  -1.401  -0.142  0.00  0.00    -0.323 OA
HETATM    3  C   UNK N   1       5.301   0.347   0.017  0.00  0.00    -0.053 A 
HETATM    4  C   UNK N   1       6.512   1.060   0.120  0.00  0.00     0.047 A 
HETATM    5  C   UNK N   1       5.333  -1.062  -0.158  0.00  0.00     0.010 A 
HETATM    6  C   UNK N   1       7.700   0.341   0.045  0.00  0.00     0.105 A 
HETATM    7  C   UNK N   1       7.727  -0.986  -0.111  0.00  0.00     0.105 A 
HETATM    8  C   UNK N   1       6.563  -1.744  -0.220  0.00  0.00     0.040 A 
HETATM    9  C   UNK N   1       9.825  -0.285  -0.002  0.00  0.00     0.352 A 
ENDROOT
BRANCH   3  10
HETATM   10  C   UNK N   1       4.015   1.123   0.127  0.00  0.00     0.063 C 
BRANCH  10  11
HETATM   11  C   UNK N   1       2.694   0.393  -0.132  0.00  0.00     0.076 C 
HETATM   12  C   UNK N   1       2.517  -0.796   0.805  0.00  0.00     0.032 C 
BRANCH  11  13
HETATM   13  N   UNK N   1       1.618   1.350   0.097  0.00  0.00    -0.417 N 
HETATM   14  H   UNK N   1       1.713   2.233   0.600  0.00  0.00     0.153 HD
BRANCH  13  15
HETATM   15  C   UNK N   1       0.391   0.852  -0.501  0.00  0.00     0.110 C 
HETATM   16  C   UNK N   1      -0.766   1.725  -0.058  0.00  0.00     0.026 C 
ENDBRANCH  13  15
ENDBRANCH  11  13
ENDBRANCH  10  11
ENDBRANCH   3  10
TORSDOF 4
