MODEL 1
REMARK VINA RESULT:      -6.8      0.000      0.000
REMARK  2 active torsions:
REMARK  status: ('A' for Active; 'I' for Inactive)
REMARK    1  A    between atoms: C_15  and  O_3 
REMARK    2  A    between atoms: O_4  and  C_21 
ROOT
HETATM    1  O   UNK N   1      31.647  16.274   8.771  0.00  0.00    -0.338 OA
HETATM    2  O   UNK N   1      34.224  13.771   4.243  0.00  0.00    -0.064 OA
HETATM    3  N   UNK N   1      33.030  14.401   4.106  0.00  0.00     0.015 N 
HETATM    4  C   UNK N   1      32.664  15.510   6.780  0.00  0.00     0.031 C 
HETATM    5  C   UNK N   1      33.739  16.069   5.834  0.00  0.00     0.063 C 
HETATM    6  C   UNK N   1      33.192  15.856   4.372  0.00  0.00     0.267 C 
HETATM    7  C   UNK N   1      32.865  15.743   8.324  0.00  0.00     0.175 C 
HETATM    8  C   UNK N   1      32.403  14.022   6.484  0.00  0.00     0.054 C 
HETATM    9  C   UNK N   1      31.433  16.294   6.569  0.00  0.00    -0.003 A 
HETATM   10  C   UNK N   1      32.061  13.770   5.012  0.00  0.00     0.313 C 
HETATM   11  C   UNK N   1      31.822  16.595   4.122  0.00  0.00     0.082 C 
HETATM   12  C   UNK N   1      30.950  16.736   5.349  0.00  0.00    -0.045 A 
HETATM   13  C   UNK N   1      34.043  16.725   8.554  0.00  0.00     0.171 C 
HETATM   14  C   UNK N   1      34.004  17.515   6.214  0.00  0.00    -0.020 C 
HETATM   15  C   UNK N   1      30.871  16.630   7.742  0.00  0.00     0.110 A 
HETATM   16  C   UNK N   1      34.132  17.827   7.519  0.00  0.00     0.004 C 
HETATM   17  C   UNK N   1      32.585  14.164   2.738  0.00  0.00     0.357 C 
HETATM   18  C   UNK N   1      29.748  17.462   5.337  0.00  0.00     0.011 A 
HETATM   19  C   UNK N   1      29.661  17.329   7.789  0.00  0.00     0.102 A 
HETATM   20  C   UNK N   1      29.079  17.722   6.556  0.00  0.00     0.040 A 
ENDROOT
BRANCH  13  21
HETATM   21  O   UNK N   1      34.057  17.233   9.854  0.00  0.00    -0.389 OA
HETATM   22  H   UNK N   1      34.871  17.202  10.380  0.00  0.00     0.210 HD
ENDBRANCH  13  21
BRANCH  19  23
HETATM   23  O   UNK N   1      29.091  17.618   8.982  0.00  0.00    -0.353 OA
HETATM   24  C   UNK N   1      29.530  18.641   9.793  0.00  0.00     0.210 C 
ENDBRANCH  19  23
TORSDOF 2
ENDMDL
MODEL 2
REMARK VINA RESULT:      -6.7      2.161      4.613
REMARK  2 active torsions:
REMARK  status: ('A' for Active; 'I' for Inactive)
REMARK    1  A    between atoms: C_15  and  O_3 
REMARK    2  A    between atoms: O_4  and  C_21 
ROOT
HETATM    1  O   UNK N   1      34.854  16.815   6.362  0.00  0.00    -0.338 OA
HETATM    2  O   UNK N   1      29.466  17.958   4.609  0.00  0.00    -0.064 OA
HETATM    3  N   UNK N   1      29.973  16.700   4.534  0.00  0.00     0.015 N 
HETATM    4  C   UNK N   1      32.567  17.058   5.821  0.00  0.00     0.031 C 
HETATM    5  C   UNK N   1      31.266  17.124   6.637  0.00  0.00     0.063 C 
HETATM    6  C   UNK N   1      30.240  16.181   5.903  0.00  0.00     0.267 C 
HETATM    7  C   UNK N   1      33.835  17.776   6.417  0.00  0.00     0.175 C 
HETATM    8  C   UNK N   1      32.320  17.510   4.369  0.00  0.00     0.054 C 
HETATM    9  C   UNK N   1      33.039  15.661   5.845  0.00  0.00    -0.003 A 
HETATM   10  C   UNK N   1      31.182  16.731   3.701  0.00  0.00     0.313 C 
HETATM   11  C   UNK N   1      30.741  14.689   5.814  0.00  0.00     0.082 C 
HETATM   12  C   UNK N   1      32.243  14.533   5.747  0.00  0.00    -0.045 A 
HETATM   13  C   UNK N   1      33.543  18.224   7.873  0.00  0.00     0.171 C 
HETATM   14  C   UNK N   1      31.582  16.736   8.070  0.00  0.00    -0.020 C 
HETATM   15  C   UNK N   1      34.360  15.605   6.085  0.00  0.00     0.110 A 
HETATM   16  C   UNK N   1      32.682  17.252   8.652  0.00  0.00     0.004 C 
HETATM   17  C   UNK N   1      28.976  15.886   3.849  0.00  0.00     0.357 C 
HETATM   18  C   UNK N   1      32.869  13.277   5.775  0.00  0.00     0.011 A 
HETATM   19  C   UNK N   1      35.039  14.383   6.098  0.00  0.00     0.102 A 
HETATM   20  C   UNK N   1      34.276  13.202   5.908  0.00  0.00     0.040 A 
ENDROOT
BRANCH  13  21
HETATM   21  O   UNK N   1      34.709  18.554   8.565  0.00  0.00    -0.389 OA
HETATM   22  H   UNK N   1      35.467  17.950   8.557  0.00  0.00     0.210 HD
ENDBRANCH  13  21
BRANCH  19  23
HETATM   23  O   UNK N   1      36.378  14.354   6.297  0.00  0.00    -0.353 OA
HETATM   24  C   UNK N   1      37.281  14.125   5.282  0.00  0.00     0.210 C 
ENDBRANCH  19  23
TORSDOF 2
ENDMDL
MODEL 3
REMARK VINA RESULT:      -6.7      2.011      2.588
REMARK  2 active torsions:
REMARK  status: ('A' for Active; 'I' for Inactive)
REMARK    1  A    between atoms: C_15  and  O_3 
REMARK    2  A    between atoms: O_4  and  C_21 
ROOT
HETATM    1  O   UNK N   1      32.035  16.336   7.208  0.00  0.00    -0.338 OA
HETATM    2  O   UNK N   1      30.569  13.625   2.319  0.00  0.00    -0.064 OA
HETATM    3  N   UNK N   1      29.671  14.393   2.988  0.00  0.00     0.015 N 
HETATM    4  C   UNK N   1      31.339  15.492   5.114  0.00  0.00     0.031 C 
HETATM    5  C   UNK N   1      31.527  15.936   3.655  0.00  0.00     0.063 C 
HETATM    6  C   UNK N   1      30.111  15.814   2.973  0.00  0.00     0.267 C 
HETATM    7  C   UNK N   1      32.561  15.673   6.091  0.00  0.00     0.175 C 
HETATM    8  C   UNK N   1      30.803  14.049   5.176  0.00  0.00     0.054 C 
HETATM    9  C   UNK N   1      30.380  16.418   5.744  0.00  0.00    -0.003 A 
HETATM   10  C   UNK N   1      29.526  13.865   4.350  0.00  0.00     0.313 C 
HETATM   11  C   UNK N   1      29.021  16.713   3.671  0.00  0.00     0.082 C 
HETATM   12  C   UNK N   1      29.240  16.934   5.150  0.00  0.00    -0.045 A 
HETATM   13  C   UNK N   1      33.667  16.506   5.392  0.00  0.00     0.171 C 
HETATM   14  C   UNK N   1      32.119  17.334   3.655  0.00  0.00    -0.020 C 
HETATM   15  C   UNK N   1      30.806  16.797   6.960  0.00  0.00     0.110 A 
HETATM   16  C   UNK N   1      33.132  17.607   4.500  0.00  0.00     0.004 C 
HETATM   17  C   UNK N   1      28.392  14.233   2.305  0.00  0.00     0.357 C 
HETATM   18  C   UNK N   1      28.432  17.796   5.909  0.00  0.00     0.011 A 
HETATM   19  C   UNK N   1      30.029  17.633   7.769  0.00  0.00     0.102 A 
HETATM   20  C   UNK N   1      28.804  18.113   7.236  0.00  0.00     0.040 A 
ENDROOT
BRANCH  13  21
HETATM   21  O   UNK N   1      34.613  16.986   6.298  0.00  0.00    -0.389 OA
HETATM   22  H   UNK N   1      34.929  17.900   6.233  0.00  0.00     0.210 HD
ENDBRANCH  13  21
BRANCH  19  23
HETATM   23  O   UNK N   1      30.458  17.966   9.009  0.00  0.00    -0.353 OA
HETATM   24  C   UNK N   1      29.689  18.684   9.898  0.00  0.00     0.210 C 
ENDBRANCH  19  23
TORSDOF 2
ENDMDL
MODEL 4
REMARK VINA RESULT:      -6.6      2.199      4.219
REMARK  2 active torsions:
REMARK  status: ('A' for Active; 'I' for Inactive)
REMARK    1  A    between atoms: C_15  and  O_3 
REMARK    2  A    between atoms: O_4  and  C_21 
ROOT
HETATM    1  O   UNK N   1      29.807  17.535   4.452  0.00  0.00    -0.338 OA
HETATM    2  O   UNK N   1      35.038  15.768   6.161  0.00  0.00    -0.064 OA
HETATM    3  N   UNK N   1      34.143  16.266   7.053  0.00  0.00     0.015 N 
HETATM    4  C   UNK N   1      31.803  16.648   5.353  0.00  0.00     0.031 C 
HETATM    5  C   UNK N   1      32.286  15.237   5.723  0.00  0.00     0.063 C 
HETATM    6  C   UNK N   1      32.963  15.364   7.141  0.00  0.00     0.267 C 
HETATM    7  C   UNK N   1      30.930  16.798   4.051  0.00  0.00     0.175 C 
HETATM    8  C   UNK N   1      32.984  17.637   5.331  0.00  0.00     0.054 C 
HETATM    9  C   UNK N   1      30.813  17.062   6.364  0.00  0.00    -0.003 A 
HETATM   10  C   UNK N   1      33.779  17.627   6.641  0.00  0.00     0.313 C 
HETATM   11  C   UNK N   1      31.970  15.897   8.243  0.00  0.00     0.082 C 
HETATM   12  C   UNK N   1      30.894  16.823   7.725  0.00  0.00    -0.045 A 
HETATM   13  C   UNK N   1      30.540  15.393   3.522  0.00  0.00     0.171 C 
HETATM   14  C   UNK N   1      31.098  14.295   5.663  0.00  0.00    -0.020 C 
HETATM   15  C   UNK N   1      29.739  17.623   5.783  0.00  0.00     0.110 A 
HETATM   16  C   UNK N   1      30.255  14.384   4.615  0.00  0.00     0.004 C 
HETATM   17  C   UNK N   1      34.833  16.354   8.335  0.00  0.00     0.357 C 
HETATM   18  C   UNK N   1      29.859  17.304   8.544  0.00  0.00     0.011 A 
HETATM   19  C   UNK N   1      28.693  18.143   6.551  0.00  0.00     0.102 A 
HETATM   20  C   UNK N   1      28.777  18.004   7.960  0.00  0.00     0.040 A 
ENDROOT
BRANCH  13  21
HETATM   21  O   UNK N   1      29.504  15.452   2.589  0.00  0.00    -0.389 OA
HETATM   22  H   UNK N   1      29.219  14.650   2.126  0.00  0.00     0.210 HD
ENDBRANCH  13  21
BRANCH  19  23
HETATM   23  O   UNK N   1      27.642  18.744   5.946  0.00  0.00    -0.353 OA
HETATM   24  C   UNK N   1      27.399  20.097   6.039  0.00  0.00     0.210 C 
ENDBRANCH  19  23
TORSDOF 2
ENDMDL
MODEL 5
REMARK VINA RESULT:      -6.6     14.598     16.698
REMARK  2 active torsions:
REMARK  status: ('A' for Active; 'I' for Inactive)
REMARK    1  A    between atoms: C_15  and  O_3 
REMARK    2  A    between atoms: O_4  and  C_21 
ROOT
HETATM    1  O   UNK N   1      26.841  24.880  -4.244  0.00  0.00    -0.338 OA
HETATM    2  O   UNK N   1      26.375  30.638  -4.050  0.00  0.00    -0.064 OA
HETATM    3  N   UNK N   1      27.551  30.022  -3.762  0.00  0.00     0.015 N 
HETATM    4  C   UNK N   1      26.889  27.240  -4.341  0.00  0.00     0.031 C 
HETATM    5  C   UNK N   1      27.022  28.271  -5.473  0.00  0.00     0.063 C 
HETATM    6  C   UNK N   1      28.072  29.336  -4.976  0.00  0.00     0.267 C 
HETATM    7  C   UNK N   1      26.027  25.954  -4.628  0.00  0.00     0.175 C 
HETATM    8  C   UNK N   1      26.430  27.922  -3.039  0.00  0.00     0.054 C 
HETATM    9  C   UNK N   1      28.210  26.614  -4.149  0.00  0.00    -0.003 A 
HETATM   10  C   UNK N   1      27.333  29.096  -2.644  0.00  0.00     0.313 C 
HETATM   11  C   UNK N   1      29.480  28.701  -4.661  0.00  0.00     0.082 C 
HETATM   12  C   UNK N   1      29.431  27.265  -4.190  0.00  0.00    -0.045 A 
HETATM   13  C   UNK N   1      25.666  25.895  -6.136  0.00  0.00     0.171 C 
HETATM   14  C   UNK N   1      27.409  27.536  -6.744  0.00  0.00    -0.020 C 
HETATM   15  C   UNK N   1      28.097  25.281  -4.028  0.00  0.00     0.110 A 
HETATM   16  C   UNK N   1      26.769  26.390  -7.049  0.00  0.00     0.004 C 
HETATM   17  C   UNK N   1      28.470  31.061  -3.313  0.00  0.00     0.357 C 
HETATM   18  C   UNK N   1      30.593  26.508  -3.971  0.00  0.00     0.011 A 
HETATM   19  C   UNK N   1      29.217  24.481  -3.782  0.00  0.00     0.102 A 
HETATM   20  C   UNK N   1      30.483  25.119  -3.723  0.00  0.00     0.040 A 
ENDROOT
BRANCH  13  21
HETATM   21  O   UNK N   1      25.205  24.635  -6.516  0.00  0.00    -0.389 OA
HETATM   22  H   UNK N   1      24.344  24.542  -6.953  0.00  0.00     0.210 HD
ENDBRANCH  13  21
BRANCH  19  23
HETATM   23  O   UNK N   1      29.073  23.145  -3.620  0.00  0.00    -0.353 OA
HETATM   24  C   UNK N   1      29.973  22.376  -2.913  0.00  0.00     0.210 C 
ENDBRANCH  19  23
TORSDOF 2
ENDMDL
MODEL 6
REMARK VINA RESULT:      -6.5     13.844     15.770
REMARK  2 active torsions:
REMARK  status: ('A' for Active; 'I' for Inactive)
REMARK    1  A    between atoms: C_15  and  O_3 
REMARK    2  A    between atoms: O_4  and  C_21 
ROOT
HETATM    1  O   UNK N   1      25.369  24.182  -5.413  0.00  0.00    -0.338 OA
HETATM    2  O   UNK N   1      30.505  25.511  -3.119  0.00  0.00    -0.064 OA
HETATM    3  N   UNK N   1      30.386  24.515  -4.034  0.00  0.00     0.015 N 
HETATM    4  C   UNK N   1      27.568  24.743  -4.754  0.00  0.00     0.031 C 
HETATM    5  C   UNK N   1      28.580  25.818  -5.180  0.00  0.00     0.063 C 
HETATM    6  C   UNK N   1      29.962  25.080  -5.344  0.00  0.00     0.267 C 
HETATM    7  C   UNK N   1      26.052  25.162  -4.680  0.00  0.00     0.175 C 
HETATM    8  C   UNK N   1      28.011  24.071  -3.441  0.00  0.00     0.054 C 
HETATM    9  C   UNK N   1      27.495  23.745  -5.837  0.00  0.00    -0.003 A 
HETATM   10  C   UNK N   1      29.438  23.518  -3.520  0.00  0.00     0.313 C 
HETATM   11  C   UNK N   1      29.914  23.933  -6.424  0.00  0.00     0.082 C 
HETATM   12  C   UNK N   1      28.566  23.265  -6.573  0.00  0.00    -0.045 A 
HETATM   13  C   UNK N   1      25.872  26.574  -5.296  0.00  0.00     0.171 C 
HETATM   14  C   UNK N   1      28.061  26.492  -6.437  0.00  0.00    -0.020 C 
HETATM   15  C   UNK N   1      26.220  23.420  -6.106  0.00  0.00     0.110 A 
HETATM   16  C   UNK N   1      26.759  26.837  -6.495  0.00  0.00     0.004 C 
HETATM   17  C   UNK N   1      31.694  23.879  -4.136  0.00  0.00     0.357 C 
HETATM   18  C   UNK N   1      28.310  22.301  -7.562  0.00  0.00     0.011 A 
HETATM   19  C   UNK N   1      25.909  22.447  -7.061  0.00  0.00     0.102 A 
HETATM   20  C   UNK N   1      26.984  21.859  -7.777  0.00  0.00     0.040 A 
ENDROOT
BRANCH  13  21
HETATM   21  O   UNK N   1      24.534  26.860  -5.570  0.00  0.00    -0.389 OA
HETATM   22  H   UNK N   1      24.289  27.712  -5.963  0.00  0.00     0.210 HD
ENDBRANCH  13  21
BRANCH  19  23
HETATM   23  O   UNK N   1      24.619  22.104  -7.285  0.00  0.00    -0.353 OA
HETATM   24  C   UNK N   1      23.988  21.085  -6.605  0.00  0.00     0.210 C 
ENDBRANCH  19  23
TORSDOF 2
ENDMDL
MODEL 7
REMARK VINA RESULT:      -6.5     12.839     15.011
REMARK  2 active torsions:
REMARK  status: ('A' for Active; 'I' for Inactive)
REMARK    1  A    between atoms: C_15  and  O_3 
REMARK    2  A    between atoms: O_4  and  C_21 
ROOT
HETATM    1  O   UNK N   1      30.538  23.272  -4.884  0.00  0.00    -0.338 OA
HETATM    2  O   UNK N   1      26.899  27.577  -3.607  0.00  0.00    -0.064 OA
HETATM    3  N   UNK N   1      26.630  26.714  -4.619  0.00  0.00     0.015 N 
HETATM    4  C   UNK N   1      28.838  24.825  -4.351  0.00  0.00     0.031 C 
HETATM    5  C   UNK N   1      27.714  24.877  -3.305  0.00  0.00     0.063 C 
HETATM    6  C   UNK N   1      26.420  25.345  -4.073  0.00  0.00     0.267 C 
HETATM    7  C   UNK N   1      30.221  24.221  -3.902  0.00  0.00     0.175 C 
HETATM    8  C   UNK N   1      29.035  26.206  -5.004  0.00  0.00     0.054 C 
HETATM    9  C   UNK N   1      28.453  23.831  -5.370  0.00  0.00    -0.003 A 
HETATM   10  C   UNK N   1      27.734  26.768  -5.586  0.00  0.00     0.313 C 
HETATM   11  C   UNK N   1      26.019  24.366  -5.241  0.00  0.00     0.082 C 
HETATM   12  C   UNK N   1      27.182  23.646  -5.885  0.00  0.00    -0.045 A 
HETATM   13  C   UNK N   1      30.075  23.574  -2.500  0.00  0.00     0.171 C 
HETATM   14  C   UNK N   1      27.610  23.513  -2.648  0.00  0.00    -0.020 C 
HETATM   15  C   UNK N   1      29.489  23.031  -5.676  0.00  0.00     0.110 A 
HETATM   16  C   UNK N   1      28.744  22.885  -2.279  0.00  0.00     0.004 C 
HETATM   17  C   UNK N   1      25.427  27.204  -5.281  0.00  0.00     0.357 C 
HETATM   18  C   UNK N   1      27.002  22.655  -6.864  0.00  0.00     0.011 A 
HETATM   19  C   UNK N   1      29.374  22.047  -6.662  0.00  0.00     0.102 A 
HETATM   20  C   UNK N   1      28.110  21.882  -7.286  0.00  0.00     0.040 A 
ENDROOT
BRANCH  13  21
HETATM   21  O   UNK N   1      31.148  22.737  -2.194  0.00  0.00    -0.389 OA
HETATM   22  H   UNK N   1      31.070  22.086  -1.479  0.00  0.00     0.210 HD
ENDBRANCH  13  21
BRANCH  19  23
HETATM   23  O   UNK N   1      30.444  21.282  -6.985  0.00  0.00    -0.353 OA
HETATM   24  C   UNK N   1      30.704  20.069  -6.386  0.00  0.00     0.210 C 
ENDBRANCH  19  23
TORSDOF 2
ENDMDL
MODEL 8
REMARK VINA RESULT:      -6.4     10.268     11.803
REMARK  2 active torsions:
REMARK  status: ('A' for Active; 'I' for Inactive)
REMARK    1  A    between atoms: C_15  and  O_3 
REMARK    2  A    between atoms: O_4  and  C_21 
ROOT
HETATM    1  O   UNK N   1      21.706  18.828   5.132  0.00  0.00    -0.338 OA
HETATM    2  O   UNK N   1      22.210  14.978   0.850  0.00  0.00    -0.064 OA
HETATM    3  N   UNK N   1      21.651  14.632   2.038  0.00  0.00     0.015 N 
HETATM    4  C   UNK N   1      21.623  17.202   3.420  0.00  0.00     0.031 C 
HETATM    5  C   UNK N   1      20.690  16.937   2.228  0.00  0.00     0.063 C 
HETATM    6  C   UNK N   1      20.387  15.391   2.242  0.00  0.00     0.267 C 
HETATM    7  C   UNK N   1      21.959  18.702   3.759  0.00  0.00     0.175 C 
HETATM    8  C   UNK N   1      22.913  16.371   3.293  0.00  0.00     0.054 C 
HETATM    9  C   UNK N   1      20.896  16.828   4.647  0.00  0.00    -0.003 A 
HETATM   10  C   UNK N   1      22.630  14.877   3.105  0.00  0.00     0.313 C 
HETATM   11  C   UNK N   1      19.696  14.919   3.577  0.00  0.00     0.082 C 
HETATM   12  C   UNK N   1      20.070  15.727   4.799  0.00  0.00    -0.045 A 
HETATM   13  C   UNK N   1      21.057  19.641   2.916  0.00  0.00     0.171 C 
HETATM   14  C   UNK N   1      19.470  17.830   2.369  0.00  0.00    -0.020 C 
HETATM   15  C   UNK N   1      21.049  17.763   5.600  0.00  0.00     0.110 A 
HETATM   16  C   UNK N   1      19.649  19.119   2.716  0.00  0.00     0.004 C 
HETATM   17  C   UNK N   1      21.398  13.197   1.980  0.00  0.00     0.357 C 
HETATM   18  C   UNK N   1      19.468  15.519   6.050  0.00  0.00     0.011 A 
HETATM   19  C   UNK N   1      20.494  17.595   6.872  0.00  0.00     0.102 A 
HETATM   20  C   UNK N   1      19.714  16.432   7.103  0.00  0.00     0.040 A 
ENDROOT
BRANCH  13  21
HETATM   21  O   UNK N   1      21.060  20.949   3.404  0.00  0.00    -0.389 OA
HETATM   22  H   UNK N   1      21.876  21.472   3.387  0.00  0.00     0.210 HD
ENDBRANCH  13  21
BRANCH  19  23
HETATM   23  O   UNK N   1      20.699  18.529   7.830  0.00  0.00    -0.353 OA
HETATM   24  C   UNK N   1      19.939  18.603   8.977  0.00  0.00     0.210 C 
ENDBRANCH  19  23
TORSDOF 2
ENDMDL
MODEL 9
REMARK VINA RESULT:      -6.3      9.505     11.541
REMARK  2 active torsions:
REMARK  status: ('A' for Active; 'I' for Inactive)
REMARK    1  A    between atoms: C_15  and  O_3 
REMARK    2  A    between atoms: O_4  and  C_21 
ROOT
HETATM    1  O   UNK N   1      35.814  12.981  14.889  0.00  0.00    -0.338 OA
HETATM    2  O   UNK N   1      38.704   8.332  13.036  0.00  0.00    -0.064 OA
HETATM    3  N   UNK N   1      38.313   8.440  14.331  0.00  0.00     0.015 N 
HETATM    4  C   UNK N   1      36.778  10.920  14.253  0.00  0.00     0.031 C 
HETATM    5  C   UNK N   1      36.249   9.644  13.579  0.00  0.00     0.063 C 
HETATM    6  C   UNK N   1      36.827   8.437  14.411  0.00  0.00     0.267 C 
HETATM    7  C   UNK N   1      36.220  12.299  13.735  0.00  0.00     0.175 C 
HETATM    8  C   UNK N   1      38.318  10.927  14.267  0.00  0.00     0.054 C 
HETATM    9  C   UNK N   1      36.256  10.946  15.632  0.00  0.00    -0.003 A 
HETATM   10  C   UNK N   1      38.902   9.659  14.899  0.00  0.00     0.313 C 
HETATM   11  C   UNK N   1      36.378   8.470  15.922  0.00  0.00     0.082 C 
HETATM   12  C   UNK N   1      36.143   9.855  16.478  0.00  0.00    -0.045 A 
HETATM   13  C   UNK N   1      35.037  12.049  12.764  0.00  0.00     0.171 C 
HETATM   14  C   UNK N   1      34.734   9.722  13.532  0.00  0.00    -0.020 C 
HETATM   15  C   UNK N   1      35.794  12.166  15.948  0.00  0.00     0.110 A 
HETATM   16  C   UNK N   1      34.157  10.881  13.157  0.00  0.00     0.004 C 
HETATM   17  C   UNK N   1      38.878   7.296  15.037  0.00  0.00     0.357 C 
HETATM   18  C   UNK N   1      35.635  10.070  17.769  0.00  0.00     0.011 A 
HETATM   19  C   UNK N   1      35.301  12.443  17.227  0.00  0.00     0.102 A 
HETATM   20  C   UNK N   1      35.253  11.375  18.160  0.00  0.00     0.040 A 
ENDROOT
BRANCH  13  21
HETATM   21  O   UNK N   1      34.291  13.207  12.538  0.00  0.00    -0.389 OA
HETATM   22  H   UNK N   1      34.614  14.064  12.855  0.00  0.00     0.210 HD
ENDBRANCH  13  21
BRANCH  19  23
HETATM   23  O   UNK N   1      34.881  13.692  17.537  0.00  0.00    -0.353 OA
HETATM   24  C   UNK N   1      35.709  14.644  18.090  0.00  0.00     0.210 C 
ENDBRANCH  19  23
TORSDOF 2
ENDMDL
