MODEL 1
REMARK VINA RESULT:      -7.3      0.000      0.000
REMARK  3 active torsions:
REMARK  status: ('A' for Active; 'I' for Inactive)
REMARK    1  A    between atoms: C_9  and  O_1 
REMARK    2  A    between atoms: C_12  and  O_2 
REMARK    3  A    between atoms: C_23  and  C_25 
ROOT
HETATM    1  O   UNK N   1      34.810  13.184  14.070  0.00  0.00    -0.287 OA
HETATM    2  C   UNK N   1      33.595   8.277  20.520  0.00  0.00    -0.007 C 
HETATM    3  C   UNK N   1      34.338   9.575  20.817  0.00  0.00     0.001 C 
HETATM    4  C   UNK N   1      34.414  10.492  19.582  0.00  0.00    -0.002 C 
HETATM    5  C   UNK N   1      35.179   9.736  18.463  0.00  0.00     0.035 C 
HETATM    6  C   UNK N   1      33.575   7.645  21.921  0.00  0.00     0.062 C 
HETATM    7  C   UNK N   1      34.351   7.493  19.443  0.00  0.00     0.044 C 
HETATM    8  C   UNK N   1      33.634  10.102  22.061  0.00  0.00     0.009 C 
HETATM    9  C   UNK N   1      34.530   8.347  18.174  0.00  0.00     0.124 C 
HETATM   10  C   UNK N   1      35.370  10.620  17.175  0.00  0.00     0.005 C 
HETATM   11  C   UNK N   1      33.198   8.830  22.820  0.00  0.00     0.038 C 
HETATM   12  C   UNK N   1      35.215  11.745  19.939  0.00  0.00     0.010 C 
HETATM   13  C   UNK N   1      32.156   8.549  20.033  0.00  0.00     0.019 C 
HETATM   14  C   UNK N   1      35.271  12.747  18.795  0.00  0.00     0.036 C 
HETATM   15  C   UNK N   1      35.293  12.136  17.420  0.00  0.00    -0.064 C 
HETATM   16  C   UNK N   1      32.605   6.483  22.069  0.00  0.00     0.046 C 
HETATM   17  C   UNK N   1      36.787  10.354  16.660  0.00  0.00     0.025 C 
HETATM   18  C   UNK N   1      34.500  10.217  15.993  0.00  0.00     0.006 C 
HETATM   19  C   UNK N   1      35.132  12.971  16.379  0.00  0.00     0.059 C 
HETATM   20  C   UNK N   1      34.363  11.034  14.930  0.00  0.00     0.049 C 
HETATM   21  C   UNK N   1      34.838  12.435  15.036  0.00  0.00     0.185 C 
ENDROOT
BRANCH   6  22
HETATM   22  O   UNK N   1      34.854   7.202  22.281  0.00  0.00    -0.389 OA
HETATM   23  H   UNK N   1      35.737   7.043  22.651  0.00  0.00     0.210 HD
ENDBRANCH   6  22
BRANCH   9  24
HETATM   24  O   UNK N   1      35.284   7.626  17.247  0.00  0.00    -0.395 OA
HETATM   25  H   UNK N   1      35.578   7.815  16.341  0.00  0.00     0.210 HD
ENDBRANCH   9  24
BRANCH  20  26
HETATM   26  C   UNK N   1      33.715  10.560  13.691  0.00  0.00     0.273 C 
HETATM   27  O   UNK N   1      34.270   9.758  12.954  0.00  0.00    -0.301 OA
ENDBRANCH  20  26
TORSDOF 3
ENDMDL
MODEL 2
REMARK VINA RESULT:      -7.2     11.325     15.258
REMARK  3 active torsions:
REMARK  status: ('A' for Active; 'I' for Inactive)
REMARK    1  A    between atoms: C_9  and  O_1 
REMARK    2  A    between atoms: C_12  and  O_2 
REMARK    3  A    between atoms: C_23  and  C_25 
ROOT
HETATM    1  O   UNK N   1      26.471  20.197   3.860  0.00  0.00    -0.287 OA
HETATM    2  C   UNK N   1      32.595  16.886   8.182  0.00  0.00    -0.007 C 
HETATM    3  C   UNK N   1      32.240  16.161   6.889  0.00  0.00     0.001 C 
HETATM    4  C   UNK N   1      31.169  16.914   6.079  0.00  0.00    -0.002 C 
HETATM    5  C   UNK N   1      29.887  17.018   6.948  0.00  0.00     0.035 C 
HETATM    6  C   UNK N   1      33.733  15.991   8.697  0.00  0.00     0.062 C 
HETATM    7  C   UNK N   1      31.354  16.970   9.075  0.00  0.00     0.044 C 
HETATM    8  C   UNK N   1      33.599  15.923   6.240  0.00  0.00     0.009 C 
HETATM    9  C   UNK N   1      30.196  17.665   8.334  0.00  0.00     0.124 C 
HETATM   10  C   UNK N   1      28.706  17.716   6.178  0.00  0.00     0.005 C 
HETATM   11  C   UNK N   1      34.564  15.740   7.431  0.00  0.00     0.038 C 
HETATM   12  C   UNK N   1      30.828  16.104   4.827  0.00  0.00     0.010 C 
HETATM   13  C   UNK N   1      33.117  18.312   7.905  0.00  0.00     0.019 C 
HETATM   14  C   UNK N   1      29.832  16.818   3.924  0.00  0.00     0.036 C 
HETATM   15  C   UNK N   1      28.816  17.661   4.646  0.00  0.00    -0.064 C 
HETATM   16  C   UNK N   1      34.562  16.611   9.811  0.00  0.00     0.046 C 
HETATM   17  C   UNK N   1      27.430  16.947   6.532  0.00  0.00     0.025 C 
HETATM   18  C   UNK N   1      28.389  19.129   6.649  0.00  0.00     0.006 C 
HETATM   19  C   UNK N   1      28.052  18.471   3.894  0.00  0.00     0.059 C 
HETATM   20  C   UNK N   1      27.593  19.934   5.916  0.00  0.00     0.049 C 
HETATM   21  C   UNK N   1      27.255  19.539   4.527  0.00  0.00     0.185 C 
ENDROOT
BRANCH   6  22
HETATM   22  O   UNK N   1      33.231  14.764   9.150  0.00  0.00    -0.389 OA
HETATM   23  H   UNK N   1      32.998  13.841   9.332  0.00  0.00     0.210 HD
ENDBRANCH   6  22
BRANCH   9  24
HETATM   24  O   UNK N   1      29.065  17.655   9.152  0.00  0.00    -0.395 OA
HETATM   25  H   UNK N   1      28.333  18.280   9.277  0.00  0.00     0.210 HD
ENDBRANCH   9  24
BRANCH  20  26
HETATM   26  C   UNK N   1      27.097  21.210   6.469  0.00  0.00     0.273 C 
HETATM   27  O   UNK N   1      26.289  21.231   7.385  0.00  0.00    -0.301 OA
ENDBRANCH  20  26
TORSDOF 3
ENDMDL
MODEL 3
REMARK VINA RESULT:      -7.2     24.645     28.783
REMARK  3 active torsions:
REMARK  status: ('A' for Active; 'I' for Inactive)
REMARK    1  A    between atoms: C_9  and  O_1 
REMARK    2  A    between atoms: C_12  and  O_2 
REMARK    3  A    between atoms: C_23  and  C_25 
ROOT
HETATM    1  O   UNK N   1      31.492  19.663  -5.273  0.00  0.00    -0.287 OA
HETATM    2  C   UNK N   1      27.139  26.581  -4.696  0.00  0.00    -0.007 C 
HETATM    3  C   UNK N   1      26.939  25.789  -5.982  0.00  0.00     0.001 C 
HETATM    4  C   UNK N   1      27.694  24.446  -5.957  0.00  0.00    -0.002 C 
HETATM    5  C   UNK N   1      29.208  24.745  -5.797  0.00  0.00     0.035 C 
HETATM    6  C   UNK N   1      26.202  27.772  -4.957  0.00  0.00     0.062 C 
HETATM    7  C   UNK N   1      28.623  26.921  -4.532  0.00  0.00     0.044 C 
HETATM    8  C   UNK N   1      25.423  25.759  -6.140  0.00  0.00     0.009 C 
HETATM    9  C   UNK N   1      29.479  25.641  -4.548  0.00  0.00     0.124 C 
HETATM   10  C   UNK N   1      30.077  23.433  -5.829  0.00  0.00     0.005 C 
HETATM   11  C   UNK N   1      24.950  27.096  -5.531  0.00  0.00     0.038 C 
HETATM   12  C   UNK N   1      27.490  23.734  -7.295  0.00  0.00     0.010 C 
HETATM   13  C   UNK N   1      26.662  25.785  -3.461  0.00  0.00     0.019 C 
HETATM   14  C   UNK N   1      28.138  22.357  -7.327  0.00  0.00     0.036 C 
HETATM   15  C   UNK N   1      29.409  22.239  -6.531  0.00  0.00    -0.064 C 
HETATM   16  C   UNK N   1      25.889  28.604  -3.723  0.00  0.00     0.046 C 
HETATM   17  C   UNK N   1      31.330  23.749  -6.649  0.00  0.00     0.025 C 
HETATM   18  C   UNK N   1      30.651  23.019  -4.482  0.00  0.00     0.006 C 
HETATM   19  C   UNK N   1      29.905  21.002  -6.355  0.00  0.00     0.059 C 
HETATM   20  C   UNK N   1      31.183  21.792  -4.309  0.00  0.00     0.049 C 
HETATM   21  C   UNK N   1      30.958  20.760  -5.350  0.00  0.00     0.185 C 
ENDROOT
BRANCH   6  22
HETATM   22  O   UNK N   1      26.740  28.617  -5.936  0.00  0.00    -0.389 OA
HETATM   23  H   UNK N   1      27.238  29.063  -6.638  0.00  0.00     0.210 HD
ENDBRANCH   6  22
BRANCH   9  24
HETATM   24  O   UNK N   1      30.826  25.997  -4.472  0.00  0.00    -0.395 OA
HETATM   25  H   UNK N   1      31.467  26.012  -3.743  0.00  0.00     0.210 HD
ENDBRANCH   9  24
BRANCH  20  26
HETATM   26  C   UNK N   1      31.943  21.464  -3.087  0.00  0.00     0.273 C 
HETATM   27  O   UNK N   1      31.780  22.093  -2.053  0.00  0.00    -0.301 OA
ENDBRANCH  20  26
TORSDOF 3
ENDMDL
MODEL 4
REMARK VINA RESULT:      -7.2      2.323      6.941
REMARK  3 active torsions:
REMARK  status: ('A' for Active; 'I' for Inactive)
REMARK    1  A    between atoms: C_9  and  O_1 
REMARK    2  A    between atoms: C_12  and  O_2 
REMARK    3  A    between atoms: C_23  and  C_25 
ROOT
HETATM    1  O   UNK N   1      36.990   9.706  21.813  0.00  0.00    -0.287 OA
HETATM    2  C   UNK N   1      36.214  11.487  13.852  0.00  0.00    -0.007 C 
HETATM    3  C   UNK N   1      35.470  12.415  14.805  0.00  0.00     0.001 C 
HETATM    4  C   UNK N   1      35.768  12.088  16.281  0.00  0.00    -0.002 C 
HETATM    5  C   UNK N   1      35.307  10.632  16.557  0.00  0.00     0.035 C 
HETATM    6  C   UNK N   1      35.828  12.111  12.502  0.00  0.00     0.062 C 
HETATM    7  C   UNK N   1      35.750  10.046  14.079  0.00  0.00     0.044 C 
HETATM    8  C   UNK N   1      35.830  13.803  14.290  0.00  0.00     0.009 C 
HETATM    9  C   UNK N   1      35.956   9.632  15.549  0.00  0.00     0.124 C 
HETATM   10  C   UNK N   1      35.507  10.224  18.063  0.00  0.00     0.005 C 
HETATM   11  C   UNK N   1      35.993  13.614  12.766  0.00  0.00     0.038 C 
HETATM   12  C   UNK N   1      34.950  13.021  17.174  0.00  0.00     0.010 C 
HETATM   13  C   UNK N   1      37.742  11.566  14.064  0.00  0.00     0.019 C 
HETATM   14  C   UNK N   1      35.246  12.820  18.653  0.00  0.00     0.036 C 
HETATM   15  C   UNK N   1      35.575  11.405  19.045  0.00  0.00    -0.064 C 
HETATM   16  C   UNK N   1      36.675  11.641  11.330  0.00  0.00     0.046 C 
HETATM   17  C   UNK N   1      34.275   9.413  18.472  0.00  0.00     0.025 C 
HETATM   18  C   UNK N   1      36.650   9.248  18.310  0.00  0.00     0.006 C 
HETATM   19  C   UNK N   1      36.044  11.211  20.289  0.00  0.00     0.059 C 
HETATM   20  C   UNK N   1      37.102   9.021  19.560  0.00  0.00     0.049 C 
HETATM   21  C   UNK N   1      36.671   9.925  20.654  0.00  0.00     0.185 C 
ENDROOT
BRANCH   6  22
HETATM   22  O   UNK N   1      34.483  11.856  12.206  0.00  0.00    -0.389 OA
HETATM   23  H   UNK N   1      33.577  11.807  11.862  0.00  0.00     0.210 HD
ENDBRANCH   6  22
BRANCH   9  24
HETATM   24  O   UNK N   1      35.454   8.343  15.731  0.00  0.00    -0.395 OA
HETATM   25  H   UNK N   1      34.649   7.896  15.425  0.00  0.00     0.210 HD
ENDBRANCH   9  24
BRANCH  20  26
HETATM   26  C   UNK N   1      38.043   7.917  19.833  0.00  0.00     0.273 C 
HETATM   27  O   UNK N   1      39.245   8.118  19.919  0.00  0.00    -0.301 OA
ENDBRANCH  20  26
TORSDOF 3
ENDMDL
MODEL 5
REMARK VINA RESULT:      -6.9     25.156     27.895
REMARK  3 active torsions:
REMARK  status: ('A' for Active; 'I' for Inactive)
REMARK    1  A    between atoms: C_9  and  O_1 
REMARK    2  A    between atoms: C_12  and  O_2 
REMARK    3  A    between atoms: C_23  and  C_25 
ROOT
HETATM    1  O   UNK N   1      25.538  27.697  -5.552  0.00  0.00    -0.287 OA
HETATM    2  C   UNK N   1      31.499  22.170  -4.523  0.00  0.00    -0.007 C 
HETATM    3  C   UNK N   1      30.393  21.766  -5.491  0.00  0.00     0.001 C 
HETATM    4  C   UNK N   1      29.382  22.905  -5.722  0.00  0.00    -0.002 C 
HETATM    5  C   UNK N   1      28.733  23.261  -4.358  0.00  0.00     0.035 C 
HETATM    6  C   UNK N   1      32.388  20.917  -4.583  0.00  0.00     0.062 C 
HETATM    7  C   UNK N   1      30.887  22.491  -3.157  0.00  0.00     0.044 C 
HETATM    8  C   UNK N   1      31.161  21.231  -6.694  0.00  0.00     0.009 C 
HETATM    9  C   UNK N   1      29.816  23.591  -3.285  0.00  0.00     0.124 C 
HETATM   10  C   UNK N   1      27.630  24.375  -4.501  0.00  0.00     0.005 C 
HETATM   11  C   UNK N   1      32.437  20.610  -6.086  0.00  0.00     0.038 C 
HETATM   12  C   UNK N   1      28.278  22.412  -6.658  0.00  0.00     0.010 C 
HETATM   13  C   UNK N   1      32.274  23.403  -5.034  0.00  0.00     0.019 C 
HETATM   14  C   UNK N   1      27.277  23.503  -7.005  0.00  0.00     0.036 C 
HETATM   15  C   UNK N   1      27.023  24.500  -5.908  0.00  0.00    -0.064 C 
HETATM   16  C   UNK N   1      33.776  21.107  -3.992  0.00  0.00     0.046 C 
HETATM   17  C   UNK N   1      26.473  23.974  -3.582  0.00  0.00     0.025 C 
HETATM   18  C   UNK N   1      28.033  25.739  -3.960  0.00  0.00     0.006 C 
HETATM   19  C   UNK N   1      26.313  25.595  -6.231  0.00  0.00     0.059 C 
HETATM   20  C   UNK N   1      27.305  26.836  -4.250  0.00  0.00     0.049 C 
HETATM   21  C   UNK N   1      26.276  26.753  -5.316  0.00  0.00     0.185 C 
ENDROOT
BRANCH   6  22
HETATM   22  O   UNK N   1      31.772  19.842  -3.929  0.00  0.00    -0.389 OA
HETATM   23  H   UNK N   1      31.385  19.197  -3.317  0.00  0.00     0.210 HD
ENDBRANCH   6  22
BRANCH   9  24
HETATM   24  O   UNK N   1      29.233  23.802  -2.035  0.00  0.00    -0.395 OA
HETATM   25  H   UNK N   1      28.692  24.520  -1.669  0.00  0.00     0.210 HD
ENDBRANCH   9  24
BRANCH  20  26
HETATM   26  C   UNK N   1      27.550  28.113  -3.551  0.00  0.00     0.273 C 
HETATM   27  O   UNK N   1      26.843  28.470  -2.621  0.00  0.00    -0.301 OA
ENDBRANCH  20  26
TORSDOF 3
ENDMDL
MODEL 6
REMARK VINA RESULT:      -6.7      1.986      6.943
REMARK  3 active torsions:
REMARK  status: ('A' for Active; 'I' for Inactive)
REMARK    1  A    between atoms: C_9  and  O_1 
REMARK    2  A    between atoms: C_12  and  O_2 
REMARK    3  A    between atoms: C_23  and  C_25 
ROOT
HETATM    1  O   UNK N   1      33.794   7.177  21.825  0.00  0.00    -0.287 OA
HETATM    2  C   UNK N   1      35.693  12.107  15.562  0.00  0.00    -0.007 C 
HETATM    3  C   UNK N   1      36.632  10.926  15.772  0.00  0.00     0.001 C 
HETATM    4  C   UNK N   1      36.137   9.984  16.885  0.00  0.00    -0.002 C 
HETATM    5  C   UNK N   1      36.065  10.792  18.208  0.00  0.00     0.035 C 
HETATM    6  C   UNK N   1      36.362  12.779  14.352  0.00  0.00     0.062 C 
HETATM    7  C   UNK N   1      35.632  12.943  16.843  0.00  0.00     0.044 C 
HETATM    8  C   UNK N   1      36.795  10.356  14.367  0.00  0.00     0.009 C 
HETATM    9  C   UNK N   1      35.195  12.077  18.039  0.00  0.00     0.124 C 
HETATM   10  C   UNK N   1      35.631   9.896  19.426  0.00  0.00     0.005 C 
HETATM   11  C   UNK N   1      36.688  11.587  13.442  0.00  0.00     0.038 C 
HETATM   12  C   UNK N   1      37.152   8.856  17.074  0.00  0.00     0.010 C 
HETATM   13  C   UNK N   1      34.268  11.637  15.195  0.00  0.00     0.019 C 
HETATM   14  C   UNK N   1      36.700   7.831  18.104  0.00  0.00     0.036 C 
HETATM   15  C   UNK N   1      35.891   8.392  19.241  0.00  0.00    -0.064 C 
HETATM   16  C   UNK N   1      35.493  13.813  13.651  0.00  0.00     0.046 C 
HETATM   17  C   UNK N   1      36.489  10.323  20.620  0.00  0.00     0.025 C 
HETATM   18  C   UNK N   1      34.214  10.144  19.924  0.00  0.00     0.006 C 
HETATM   19  C   UNK N   1      35.294   7.508  20.059  0.00  0.00     0.059 C 
HETATM   20  C   UNK N   1      33.623   9.280  20.774  0.00  0.00     0.049 C 
HETATM   21  C   UNK N   1      34.250   7.955  21.001  0.00  0.00     0.185 C 
ENDROOT
BRANCH   6  22
HETATM   22  O   UNK N   1      37.562  13.394  14.730  0.00  0.00    -0.389 OA
HETATM   23  H   UNK N   1      38.298  13.866  15.149  0.00  0.00     0.210 HD
ENDBRANCH   6  22
BRANCH   9  24
HETATM   24  O   UNK N   1      35.223  12.855  19.196  0.00  0.00    -0.395 OA
HETATM   25  H   UNK N   1      35.097  12.650  20.136  0.00  0.00     0.210 HD
ENDBRANCH   9  24
BRANCH  20  26
HETATM   26  C   UNK N   1      32.350   9.625  21.437  0.00  0.00     0.273 C 
HETATM   27  O   UNK N   1      32.313  10.437  22.349  0.00  0.00    -0.301 OA
ENDBRANCH  20  26
TORSDOF 3
ENDMDL
MODEL 7
REMARK VINA RESULT:      -6.7     25.504     28.351
REMARK  3 active torsions:
REMARK  status: ('A' for Active; 'I' for Inactive)
REMARK    1  A    between atoms: C_9  and  O_1 
REMARK    2  A    between atoms: C_12  and  O_2 
REMARK    3  A    between atoms: C_23  and  C_25 
ROOT
HETATM    1  O   UNK N   1      33.237  21.496  -5.360  0.00  0.00    -0.287 OA
HETATM    2  C   UNK N   1      26.929  26.685  -4.713  0.00  0.00    -0.007 C 
HETATM    3  C   UNK N   1      28.288  27.257  -4.327  0.00  0.00     0.001 C 
HETATM    4  C   UNK N   1      29.431  26.260  -4.595  0.00  0.00    -0.002 C 
HETATM    5  C   UNK N   1      29.175  24.989  -3.742  0.00  0.00     0.035 C 
HETATM    6  C   UNK N   1      26.033  27.907  -4.455  0.00  0.00     0.062 C 
HETATM    7  C   UNK N   1      26.635  25.449  -3.860  0.00  0.00     0.044 C 
HETATM    8  C   UNK N   1      28.319  28.599  -5.049  0.00  0.00     0.009 C 
HETATM    9  C   UNK N   1      27.755  24.402  -4.014  0.00  0.00     0.124 C 
HETATM   10  C   UNK N   1      30.331  23.932  -3.895  0.00  0.00     0.005 C 
HETATM   11  C   UNK N   1      26.845  29.056  -5.068  0.00  0.00     0.038 C 
HETATM   12  C   UNK N   1      30.752  26.881  -4.136  0.00  0.00     0.010 C 
HETATM   13  C   UNK N   1      26.885  26.293  -6.206  0.00  0.00     0.019 C 
HETATM   14  C   UNK N   1      31.949  25.992  -4.439  0.00  0.00     0.036 C 
HETATM   15  C   UNK N   1      31.677  24.515  -4.359  0.00  0.00    -0.064 C 
HETATM   16  C   UNK N   1      24.642  27.803  -5.063  0.00  0.00     0.046 C 
HETATM   17  C   UNK N   1      30.587  23.349  -2.504  0.00  0.00     0.025 C 
HETATM   18  C   UNK N   1      29.963  22.702  -4.713  0.00  0.00     0.006 C 
HETATM   19  C   UNK N   1      32.636  23.692  -4.817  0.00  0.00     0.059 C 
HETATM   20  C   UNK N   1      30.917  21.853  -5.146  0.00  0.00     0.049 C 
HETATM   21  C   UNK N   1      32.338  22.267  -5.058  0.00  0.00     0.185 C 
ENDROOT
BRANCH   6  22
HETATM   22  O   UNK N   1      25.898  28.140  -3.080  0.00  0.00    -0.389 OA
HETATM   23  H   UNK N   1      25.751  28.118  -2.122  0.00  0.00     0.210 HD
ENDBRANCH   6  22
BRANCH   9  24
HETATM   24  O   UNK N   1      27.489  23.326  -3.167  0.00  0.00    -0.395 OA
HETATM   25  H   UNK N   1      27.140  22.433  -3.320  0.00  0.00     0.210 HD
ENDBRANCH   9  24
BRANCH  20  26
HETATM   26  C   UNK N   1      30.556  20.549  -5.735  0.00  0.00     0.273 C 
HETATM   27  O   UNK N   1      29.708  20.464  -6.612  0.00  0.00    -0.301 OA
ENDBRANCH  20  26
TORSDOF 3
ENDMDL
MODEL 8
REMARK VINA RESULT:      -6.7     28.221     30.248
REMARK  3 active torsions:
REMARK  status: ('A' for Active; 'I' for Inactive)
REMARK    1  A    between atoms: C_9  and  O_1 
REMARK    2  A    between atoms: C_12  and  O_2 
REMARK    3  A    between atoms: C_23  and  C_25 
ROOT
HETATM    1  O   UNK N   1      27.714  21.420  -8.753  0.00  0.00    -0.287 OA
HETATM    2  C   UNK N   1      27.276  28.559  -4.754  0.00  0.00    -0.007 C 
HETATM    3  C   UNK N   1      28.105  27.478  -4.072  0.00  0.00     0.001 C 
HETATM    4  C   UNK N   1      28.239  26.216  -4.945  0.00  0.00    -0.002 C 
HETATM    5  C   UNK N   1      26.816  25.651  -5.202  0.00  0.00     0.035 C 
HETATM    6  C   UNK N   1      27.415  29.699  -3.732  0.00  0.00     0.062 C 
HETATM    7  C   UNK N   1      25.854  28.039  -4.986  0.00  0.00     0.044 C 
HETATM    8  C   UNK N   1      29.379  28.215  -3.674  0.00  0.00     0.009 C 
HETATM    9  C   UNK N   1      25.878  26.738  -5.811  0.00  0.00     0.124 C 
HETATM   10  C   UNK N   1      26.852  24.315  -6.032  0.00  0.00     0.005 C 
HETATM   11  C   UNK N   1      28.909  29.657  -3.382  0.00  0.00     0.038 C 
HETATM   12  C   UNK N   1      29.037  25.160  -4.177  0.00  0.00     0.010 C 
HETATM   13  C   UNK N   1      27.891  28.974  -6.108  0.00  0.00     0.019 C 
HETATM   14  C   UNK N   1      29.286  23.905  -5.001  0.00  0.00     0.036 C 
HETATM   15  C   UNK N   1      28.183  23.549  -5.960  0.00  0.00    -0.064 C 
HETATM   16  C   UNK N   1      26.989  31.062  -4.254  0.00  0.00     0.046 C 
HETATM   17  C   UNK N   1      25.802  23.384  -5.420  0.00  0.00     0.025 C 
HETATM   18  C   UNK N   1      26.382  24.451  -7.474  0.00  0.00     0.006 C 
HETATM   19  C   UNK N   1      28.441  22.577  -6.853  0.00  0.00     0.059 C 
HETATM   20  C   UNK N   1      26.606  23.465  -8.365  0.00  0.00     0.049 C 
HETATM   21  C   UNK N   1      27.547  22.375  -8.009  0.00  0.00     0.185 C 
ENDROOT
BRANCH   6  22
HETATM   22  O   UNK N   1      26.678  29.418  -2.575  0.00  0.00    -0.389 OA
HETATM   23  H   UNK N   1      26.334  29.162  -1.705  0.00  0.00     0.210 HD
ENDBRANCH   6  22
BRANCH   9  24
HETATM   24  O   UNK N   1      24.574  26.259  -5.937  0.00  0.00    -0.395 OA
HETATM   25  H   UNK N   1      23.777  26.355  -5.392  0.00  0.00     0.210 HD
ENDBRANCH   9  24
BRANCH  20  26
HETATM   26  C   UNK N   1      25.960  23.486  -9.692  0.00  0.00     0.273 C 
HETATM   27  O   UNK N   1      25.090  24.302  -9.960  0.00  0.00    -0.301 OA
ENDBRANCH  20  26
TORSDOF 3
ENDMDL
MODEL 9
REMARK VINA RESULT:      -6.7      9.365     12.351
REMARK  3 active torsions:
REMARK  status: ('A' for Active; 'I' for Inactive)
REMARK    1  A    between atoms: C_9  and  O_1 
REMARK    2  A    between atoms: C_12  and  O_2 
REMARK    3  A    between atoms: C_23  and  C_25 
ROOT
HETATM    1  O   UNK N   1      29.423  16.316   4.644  0.00  0.00    -0.287 OA
HETATM    2  C   UNK N   1      35.671  14.345   9.566  0.00  0.00    -0.007 C 
HETATM    3  C   UNK N   1      35.220  15.799   9.632  0.00  0.00     0.001 C 
HETATM    4  C   UNK N   1      33.967  16.056   8.774  0.00  0.00    -0.002 C 
HETATM    5  C   UNK N   1      34.313  15.718   7.299  0.00  0.00     0.035 C 
HETATM    6  C   UNK N   1      36.826  14.368  10.580  0.00  0.00     0.062 C 
HETATM    7  C   UNK N   1      36.053  13.996   8.125  0.00  0.00     0.044 C 
HETATM    8  C   UNK N   1      35.134  16.069  11.130  0.00  0.00     0.009 C 
HETATM    9  C   UNK N   1      34.877  14.269   7.169  0.00  0.00     0.124 C 
HETATM   10  C   UNK N   1      33.111  16.013   6.327  0.00  0.00     0.005 C 
HETATM   11  C   UNK N   1      36.238  15.181  11.742  0.00  0.00     0.038 C 
HETATM   12  C   UNK N   1      33.607  17.540   8.848  0.00  0.00     0.010 C 
HETATM   13  C   UNK N   1      34.557  13.386  10.042  0.00  0.00     0.019 C 
HETATM   14  C   UNK N   1      32.328  17.868   8.090  0.00  0.00     0.036 C 
HETATM   15  C   UNK N   1      32.093  17.037   6.858  0.00  0.00    -0.064 C 
HETATM   16  C   UNK N   1      37.295  12.992  11.026  0.00  0.00     0.046 C 
HETATM   17  C   UNK N   1      33.705  16.635   5.062  0.00  0.00     0.025 C 
HETATM   18  C   UNK N   1      32.405  14.774   5.795  0.00  0.00     0.006 C 
HETATM   19  C   UNK N   1      30.887  17.141   6.274  0.00  0.00     0.059 C 
HETATM   20  C   UNK N   1      31.212  14.875   5.175  0.00  0.00     0.049 C 
HETATM   21  C   UNK N   1      30.466  16.154   5.260  0.00  0.00     0.185 C 
ENDROOT
BRANCH   6  22
HETATM   22  O   UNK N   1      37.925  15.063  10.061  0.00  0.00    -0.389 OA
HETATM   23  H   UNK N   1      38.686  15.408   9.569  0.00  0.00     0.210 HD
ENDBRANCH   6  22
BRANCH   9  24
HETATM   24  O   UNK N   1      35.288  14.008   5.861  0.00  0.00    -0.395 OA
HETATM   25  H   UNK N   1      35.421  13.188   5.359  0.00  0.00     0.210 HD
ENDBRANCH   9  24
BRANCH  20  26
HETATM   26  C   UNK N   1      30.634  13.722   4.458  0.00  0.00     0.273 C 
HETATM   27  O   UNK N   1      29.908  12.922   5.028  0.00  0.00    -0.301 OA
ENDBRANCH  20  26
TORSDOF 3
ENDMDL
