REMARK  3 active torsions:
REMARK  status: ('A' for Active; 'I' for Inactive)
REMARK    1  A    between atoms: C_9  and  O_1 
REMARK    2  A    between atoms: C_12  and  O_2 
REMARK    3  A    between atoms: C_23  and  C_25 
ROOT
HETATM    1  O   UNK N   1       0.383  -3.144  -0.878  0.00  0.00    -0.287 OA
HETATM    2  C   UNK N   1       7.266   1.262  -0.281  0.00  0.00    -0.007 C 
HETATM    3  C   UNK N   1       7.391  -0.203   0.120  0.00  0.00     0.001 C 
HETATM    4  C   UNK N   1       6.090  -0.986  -0.139  0.00  0.00    -0.002 C 
HETATM    5  C   UNK N   1       4.960  -0.342   0.708  0.00  0.00     0.035 C 
HETATM    6  C   UNK N   1       8.705   1.740  -0.029  0.00  0.00     0.062 C 
HETATM    7  C   UNK N   1       6.181   1.931   0.567  0.00  0.00     0.044 C 
HETATM    8  C   UNK N   1       8.657  -0.654  -0.599  0.00  0.00     0.009 C 
HETATM    9  C   UNK N   1       4.840   1.187   0.421  0.00  0.00     0.124 C 
HETATM   10  C   UNK N   1       3.598  -1.117   0.564  0.00  0.00     0.005 C 
HETATM   11  C   UNK N   1       9.547   0.607  -0.631  0.00  0.00     0.038 C 
HETATM   12  C   UNK N   1       6.273  -2.429   0.334  0.00  0.00     0.010 C 
HETATM   13  C   UNK N   1       6.905   1.410  -1.775  0.00  0.00     0.019 C 
HETATM   14  C   UNK N   1       5.058  -3.297   0.041  0.00  0.00     0.036 C 
HETATM   15  C   UNK N   1       3.737  -2.581   0.115  0.00  0.00    -0.064 C 
HETATM   16  C   UNK N   1       9.034   3.089  -0.650  0.00  0.00     0.046 C 
HETATM   17  C   UNK N   1       2.966  -1.167   1.957  0.00  0.00     0.025 C 
HETATM   18  C   UNK N   1       2.541  -0.395  -0.260  0.00  0.00     0.006 C 
HETATM   19  C   UNK N   1       2.658  -3.244  -0.336  0.00  0.00     0.059 C 
HETATM   20  C   UNK N   1       1.439  -1.045  -0.685  0.00  0.00     0.049 C 
HETATM   21  C   UNK N   1       1.394  -2.524  -0.583  0.00  0.00     0.185 C 
ENDROOT
BRANCH   6  22
HETATM   22  O   UNK N   1       8.969   1.810   1.345  0.00  0.00    -0.389 OA
HETATM   23  H   UNK N   1       9.102   1.675   2.296  0.00  0.00     0.210 HD
ENDBRANCH   6  22
BRANCH   9  24
HETATM   24  O   UNK N   1       3.899   1.781   1.263  0.00  0.00    -0.395 OA
HETATM   25  H   UNK N   1       3.929   2.554   1.849  0.00  0.00     0.210 HD
ENDBRANCH   9  24
BRANCH  20  26
HETATM   26  C   UNK N   1       0.309  -0.305  -1.281  0.00  0.00     0.273 C 
HETATM   27  O   UNK N   1       0.306   0.916  -1.326  0.00  0.00    -0.301 OA
ENDBRANCH  20  26
TORSDOF 3
