MODEL 1
REMARK VINA RESULT:      -7.5      0.000      0.000
REMARK  4 active torsions:
REMARK  status: ('A' for Active; 'I' for Inactive)
REMARK    1  A    between atoms: C_14  and  O_2 
REMARK    2  A    between atoms: O_3  and  C_20 
REMARK    3  A    between atoms: O_3  and  C_22 
REMARK    4  A    between atoms: C_22  and  C_23 
ROOT
HETATM    1  O   UNK N   1      28.080  24.847  -4.134  0.00  0.00    -0.338 OA
HETATM    2  N   UNK N   1      31.785  21.137  -4.487  0.00  0.00     0.089 N 
HETATM    3  C   UNK N   1      29.979  23.426  -4.155  0.00  0.00     0.030 C 
HETATM    4  C   UNK N   1      31.321  23.566  -4.888  0.00  0.00     0.057 C 
HETATM    5  C   UNK N   1      31.617  22.161  -5.539  0.00  0.00     0.235 C 
HETATM    6  C   UNK N   1      29.353  24.751  -3.563  0.00  0.00     0.175 C 
HETATM    7  C   UNK N   1      30.074  22.325  -3.085  0.00  0.00     0.048 C 
HETATM    8  C   UNK N   1      28.970  23.116  -5.189  0.00  0.00    -0.003 A 
HETATM    9  C   UNK N   1      30.501  21.655  -6.514  0.00  0.00     0.075 C 
HETATM   10  C   UNK N   1      30.589  20.989  -3.642  0.00  0.00     0.273 C 
HETATM   11  C   UNK N   1      29.134  22.234  -6.249  0.00  0.00    -0.046 A 
HETATM   12  C   UNK N   1      30.231  25.965  -3.958  0.00  0.00     0.171 C 
HETATM   13  C   UNK N   1      31.227  24.736  -5.851  0.00  0.00    -0.020 C 
HETATM   14  C   UNK N   1      27.909  23.934  -5.094  0.00  0.00     0.110 A 
HETATM   15  C   UNK N   1      30.698  25.891  -5.398  0.00  0.00     0.004 C 
HETATM   16  C   UNK N   1      28.084  22.096  -7.170  0.00  0.00     0.011 A 
HETATM   17  C   UNK N   1      32.960  21.388  -3.657  0.00  0.00     0.310 C 
HETATM   18  C   UNK N   1      26.846  23.853  -5.993  0.00  0.00     0.103 A 
HETATM   19  C   UNK N   1      26.922  22.882  -7.024  0.00  0.00     0.040 A 
ENDROOT
BRANCH  18  20
HETATM   20  O   UNK N   1      25.810  24.711  -5.889  0.00  0.00    -0.344 OA
BRANCH  20  21
HETATM   21  C   UNK N   1      25.625  25.769  -6.750  0.00  0.00     0.214 C 
BRANCH  21  22
HETATM   22  C   UNK N   1      26.071  27.016  -6.083  0.00  0.00    -0.034 A 
HETATM   23  C   UNK N   1      27.136  27.758  -6.610  0.00  0.00     0.009 A 
HETATM   24  C   UNK N   1      27.570  28.915  -5.957  0.00  0.00     0.001 A 
HETATM   25  C   UNK N   1      26.941  29.330  -4.779  0.00  0.00     0.000 A 
HETATM   26  C   UNK N   1      25.874  28.590  -4.256  0.00  0.00     0.001 A 
HETATM   27  C   UNK N   1      25.440  27.434  -4.909  0.00  0.00     0.009 A 
ENDBRANCH  21  22
ENDBRANCH  20  21
ENDBRANCH  18  20
BRANCH  12  28
HETATM   28  O   UNK N   1      29.592  27.175  -3.685  0.00  0.00    -0.389 OA
HETATM   29  H   UNK N   1      28.778  27.193  -3.158  0.00  0.00     0.210 HD
ENDBRANCH  12  28
TORSDOF 4
ENDMDL
MODEL 2
REMARK VINA RESULT:      -7.4      2.658      7.047
REMARK  4 active torsions:
REMARK  status: ('A' for Active; 'I' for Inactive)
REMARK    1  A    between atoms: C_14  and  O_2 
REMARK    2  A    between atoms: O_3  and  C_20 
REMARK    3  A    between atoms: O_3  and  C_22 
REMARK    4  A    between atoms: C_22  and  C_23 
ROOT
HETATM    1  O   UNK N   1      27.049  25.051  -4.269  0.00  0.00    -0.338 OA
HETATM    2  N   UNK N   1      27.731  30.233  -3.715  0.00  0.00     0.089 N 
HETATM    3  C   UNK N   1      27.065  27.423  -4.239  0.00  0.00     0.030 C 
HETATM    4  C   UNK N   1      27.225  28.434  -5.384  0.00  0.00     0.057 C 
HETATM    5  C   UNK N   1      28.267  29.506  -4.884  0.00  0.00     0.235 C 
HETATM    6  C   UNK N   1      26.206  26.132  -4.548  0.00  0.00     0.175 C 
HETATM    7  C   UNK N   1      26.566  28.137  -2.971  0.00  0.00     0.048 C 
HETATM    8  C   UNK N   1      28.390  26.799  -4.046  0.00  0.00    -0.003 A 
HETATM    9  C   UNK N   1      29.656  28.910  -4.471  0.00  0.00     0.075 C 
HETATM   10  C   UNK N   1      27.432  29.343  -2.581  0.00  0.00     0.273 C 
HETATM   11  C   UNK N   1      29.611  27.460  -4.054  0.00  0.00    -0.046 A 
HETATM   12  C   UNK N   1      25.780  26.133  -6.037  0.00  0.00     0.171 C 
HETATM   13  C   UNK N   1      27.602  27.679  -6.646  0.00  0.00    -0.020 C 
HETATM   14  C   UNK N   1      28.300  25.459  -4.037  0.00  0.00     0.110 A 
HETATM   15  C   UNK N   1      26.904  26.568  -6.956  0.00  0.00     0.004 C 
HETATM   16  C   UNK N   1      30.782  26.701  -3.903  0.00  0.00     0.011 A 
HETATM   17  C   UNK N   1      26.554  31.027  -4.055  0.00  0.00     0.310 C 
HETATM   18  C   UNK N   1      29.432  24.656  -3.907  0.00  0.00     0.103 A 
HETATM   19  C   UNK N   1      30.692  25.298  -3.795  0.00  0.00     0.040 A 
ENDROOT
BRANCH  18  20
HETATM   20  O   UNK N   1      29.311  23.312  -3.935  0.00  0.00    -0.344 OA
BRANCH  20  21
HETATM   21  C   UNK N   1      29.743  22.499  -2.913  0.00  0.00     0.214 C 
BRANCH  21  22
HETATM   22  C   UNK N   1      30.884  21.684  -3.395  0.00  0.00    -0.034 A 
HETATM   23  C   UNK N   1      30.706  20.759  -4.432  0.00  0.00     0.009 A 
HETATM   24  C   UNK N   1      31.780  19.973  -4.857  0.00  0.00     0.001 A 
HETATM   25  C   UNK N   1      33.031  20.110  -4.246  0.00  0.00     0.000 A 
HETATM   26  C   UNK N   1      33.209  21.038  -3.214  0.00  0.00     0.001 A 
HETATM   27  C   UNK N   1      32.135  21.824  -2.789  0.00  0.00     0.009 A 
ENDBRANCH  21  22
ENDBRANCH  20  21
ENDBRANCH  18  20
BRANCH  12  28
HETATM   28  O   UNK N   1      25.247  24.902  -6.423  0.00  0.00    -0.389 OA
HETATM   29  H   UNK N   1      24.982  24.748  -7.343  0.00  0.00     0.210 HD
ENDBRANCH  12  28
TORSDOF 4
ENDMDL
MODEL 3
REMARK VINA RESULT:      -7.4     18.803     22.452
REMARK  4 active torsions:
REMARK  status: ('A' for Active; 'I' for Inactive)
REMARK    1  A    between atoms: C_14  and  O_2 
REMARK    2  A    between atoms: O_3  and  C_20 
REMARK    3  A    between atoms: O_3  and  C_22 
REMARK    4  A    between atoms: C_22  and  C_23 
ROOT
HETATM    1  O   UNK N   1      36.036  14.853  12.182  0.00  0.00    -0.338 OA
HETATM    2  N   UNK N   1      37.393  12.291   7.799  0.00  0.00     0.089 N 
HETATM    3  C   UNK N   1      36.594  14.017  10.034  0.00  0.00     0.030 C 
HETATM    4  C   UNK N   1      35.761  13.940   8.746  0.00  0.00     0.057 C 
HETATM    5  C   UNK N   1      35.976  12.489   8.168  0.00  0.00     0.235 C 
HETATM    6  C   UNK N   1      36.414  15.315  10.918  0.00  0.00     0.175 C 
HETATM    7  C   UNK N   1      38.078  13.756   9.719  0.00  0.00     0.048 C 
HETATM    8  C   UNK N   1      36.032  13.009  10.955  0.00  0.00    -0.003 A 
HETATM    9  C   UNK N   1      35.582  11.338   9.156  0.00  0.00     0.075 C 
HETATM   10  C   UNK N   1      38.306  12.451   8.942  0.00  0.00     0.273 C 
HETATM   11  C   UNK N   1      35.633  11.724  10.613  0.00  0.00    -0.046 A 
HETATM   12  C   UNK N   1      35.313  16.216  10.304  0.00  0.00     0.171 C 
HETATM   13  C   UNK N   1      34.328  14.318   9.074  0.00  0.00    -0.020 C 
HETATM   14  C   UNK N   1      35.775  13.543  12.161  0.00  0.00     0.110 A 
HETATM   15  C   UNK N   1      34.117  15.416   9.828  0.00  0.00     0.004 C 
HETATM   16  C   UNK N   1      35.072  10.912  11.610  0.00  0.00     0.011 A 
HETATM   17  C   UNK N   1      37.802  13.164   6.702  0.00  0.00     0.310 C 
HETATM   18  C   UNK N   1      35.202  12.787  13.183  0.00  0.00     0.103 A 
HETATM   19  C   UNK N   1      34.886  11.431  12.908  0.00  0.00     0.040 A 
ENDROOT
BRANCH  18  20
HETATM   20  O   UNK N   1      34.925  13.362  14.372  0.00  0.00    -0.344 OA
BRANCH  20  21
HETATM   21  C   UNK N   1      35.898  13.704  15.283  0.00  0.00     0.214 C 
BRANCH  21  22
HETATM   22  C   UNK N   1      35.668  12.949  16.539  0.00  0.00    -0.034 A 
HETATM   23  C   UNK N   1      35.321  13.624  17.717  0.00  0.00     0.009 A 
HETATM   24  C   UNK N   1      35.138  12.908  18.902  0.00  0.00     0.001 A 
HETATM   25  C   UNK N   1      35.303  11.519  18.911  0.00  0.00     0.000 A 
HETATM   26  C   UNK N   1      35.645  10.846  17.734  0.00  0.00     0.001 A 
HETATM   27  C   UNK N   1      35.828  11.562  16.548  0.00  0.00     0.009 A 
ENDBRANCH  21  22
ENDBRANCH  20  21
ENDBRANCH  18  20
BRANCH  12  28
HETATM   28  O   UNK N   1      34.935  17.237  11.176  0.00  0.00    -0.389 OA
HETATM   29  H   UNK N   1      34.370  17.962  10.868  0.00  0.00     0.210 HD
ENDBRANCH  12  28
TORSDOF 4
ENDMDL
MODEL 4
REMARK VINA RESULT:      -7.3     11.098     13.669
REMARK  4 active torsions:
REMARK  status: ('A' for Active; 'I' for Inactive)
REMARK    1  A    between atoms: C_14  and  O_2 
REMARK    2  A    between atoms: O_3  and  C_20 
REMARK    3  A    between atoms: O_3  and  C_22 
REMARK    4  A    between atoms: C_22  and  C_23 
ROOT
HETATM    1  O   UNK N   1      31.007  17.351   4.472  0.00  0.00    -0.338 OA
HETATM    2  N   UNK N   1      33.660  16.550   8.936  0.00  0.00     0.089 N 
HETATM    3  C   UNK N   1      32.402  16.750   6.292  0.00  0.00     0.030 C 
HETATM    4  C   UNK N   1      32.626  15.391   6.971  0.00  0.00     0.057 C 
HETATM    5  C   UNK N   1      32.558  15.656   8.523  0.00  0.00     0.235 C 
HETATM    6  C   UNK N   1      32.239  16.739   4.720  0.00  0.00     0.175 C 
HETATM    7  C   UNK N   1      33.488  17.746   6.735  0.00  0.00     0.048 C 
HETATM    8  C   UNK N   1      31.047  17.191   6.680  0.00  0.00    -0.003 A 
HETATM    9  C   UNK N   1      31.218  16.306   9.008  0.00  0.00     0.075 C 
HETATM   10  C   UNK N   1      33.613  17.858   8.262  0.00  0.00     0.273 C 
HETATM   11  C   UNK N   1      30.487  17.089   7.946  0.00  0.00    -0.046 A 
HETATM   12  C   UNK N   1      32.247  15.278   4.205  0.00  0.00     0.171 C 
HETATM   13  C   UNK N   1      31.612  14.403   6.422  0.00  0.00    -0.020 C 
HETATM   14  C   UNK N   1      30.327  17.550   5.604  0.00  0.00     0.110 A 
HETATM   15  C   UNK N   1      31.430  14.354   5.087  0.00  0.00     0.004 C 
HETATM   16  C   UNK N   1      29.162  17.515   8.127  0.00  0.00     0.011 A 
HETATM   17  C   UNK N   1      34.969  15.933   8.748  0.00  0.00     0.310 C 
HETATM   18  C   UNK N   1      29.001  17.965   5.723  0.00  0.00     0.103 A 
HETATM   19  C   UNK N   1      28.426  17.987   7.019  0.00  0.00     0.040 A 
ENDROOT
BRANCH  18  20
HETATM   20  O   UNK N   1      28.295  18.288   4.619  0.00  0.00    -0.344 OA
BRANCH  20  21
HETATM   21  C   UNK N   1      27.954  19.581   4.299  0.00  0.00     0.214 C 
BRANCH  21  22
HETATM   22  C   UNK N   1      26.508  19.632   3.972  0.00  0.00    -0.034 A 
HETATM   23  C   UNK N   1      26.032  20.528   3.006  0.00  0.00     0.009 A 
HETATM   24  C   UNK N   1      24.664  20.590   2.728  0.00  0.00     0.001 A 
HETATM   25  C   UNK N   1      23.773  19.759   3.414  0.00  0.00     0.000 A 
HETATM   26  C   UNK N   1      24.250  18.862   4.375  0.00  0.00     0.001 A 
HETATM   27  C   UNK N   1      25.618  18.799   4.654  0.00  0.00     0.009 A 
ENDBRANCH  21  22
ENDBRANCH  20  21
ENDBRANCH  18  20
BRANCH  12  28
HETATM   28  O   UNK N   1      31.849  15.199   2.870  0.00  0.00    -0.389 OA
HETATM   29  H   UNK N   1      31.815  15.997   2.319  0.00  0.00     0.210 HD
ENDBRANCH  12  28
TORSDOF 4
ENDMDL
MODEL 5
REMARK VINA RESULT:      -7.3     19.248     22.821
REMARK  4 active torsions:
REMARK  status: ('A' for Active; 'I' for Inactive)
REMARK    1  A    between atoms: C_14  and  O_2 
REMARK    2  A    between atoms: O_3  and  C_20 
REMARK    3  A    between atoms: O_3  and  C_22 
REMARK    4  A    between atoms: C_22  and  C_23 
ROOT
HETATM    1  O   UNK N   1      35.740  14.279  12.431  0.00  0.00    -0.338 OA
HETATM    2  N   UNK N   1      36.473  11.350   8.130  0.00  0.00     0.089 N 
HETATM    3  C   UNK N   1      36.048  13.273  10.305  0.00  0.00     0.030 C 
HETATM    4  C   UNK N   1      35.130  13.242   9.075  0.00  0.00     0.057 C 
HETATM    5  C   UNK N   1      35.120  11.749   8.569  0.00  0.00     0.235 C 
HETATM    6  C   UNK N   1      36.092  14.626  11.123  0.00  0.00     0.175 C 
HETATM    7  C   UNK N   1      37.462  12.806   9.921  0.00  0.00     0.048 C 
HETATM    8  C   UNK N   1      35.422  12.394  11.314  0.00  0.00    -0.003 A 
HETATM    9  C   UNK N   1      34.648  10.709   9.641  0.00  0.00     0.075 C 
HETATM   10  C   UNK N   1      37.472  11.445   9.208  0.00  0.00     0.273 C 
HETATM   11  C   UNK N   1      34.842  11.157  11.069  0.00  0.00    -0.046 A 
HETATM   12  C   UNK N   1      35.077  15.631  10.523  0.00  0.00     0.171 C 
HETATM   13  C   UNK N   1      33.781  13.820   9.462  0.00  0.00    -0.020 C 
HETATM   14  C   UNK N   1      35.313  13.015  12.500  0.00  0.00     0.110 A 
HETATM   15  C   UNK N   1      33.760  14.972  10.164  0.00  0.00     0.004 C 
HETATM   16  C   UNK N   1      34.247  10.474  12.142  0.00  0.00     0.011 A 
HETATM   17  C   UNK N   1      36.918  12.107   6.964  0.00  0.00     0.310 C 
HETATM   18  C   UNK N   1      34.716  12.391  13.595  0.00  0.00     0.103 A 
HETATM   19  C   UNK N   1      34.213  11.077  13.417  0.00  0.00     0.040 A 
ENDROOT
BRANCH  18  20
HETATM   20  O   UNK N   1      34.592  13.055  14.763  0.00  0.00    -0.344 OA
BRANCH  20  21
HETATM   21  C   UNK N   1      35.671  13.431  15.529  0.00  0.00     0.214 C 
BRANCH  21  22
HETATM   22  C   UNK N   1      35.563  12.790  16.862  0.00  0.00    -0.034 A 
HETATM   23  C   UNK N   1      35.740  11.407  16.999  0.00  0.00     0.009 A 
HETATM   24  C   UNK N   1      35.604  10.809  18.255  0.00  0.00     0.001 A 
HETATM   25  C   UNK N   1      35.291  11.591  19.371  0.00  0.00     0.000 A 
HETATM   26  C   UNK N   1      35.119  12.973  19.233  0.00  0.00     0.001 A 
HETATM   27  C   UNK N   1      35.255  13.571  17.979  0.00  0.00     0.009 A 
ENDBRANCH  21  22
ENDBRANCH  20  21
ENDBRANCH  18  20
BRANCH  12  28
HETATM   28  O   UNK N   1      34.889  16.734  11.356  0.00  0.00    -0.389 OA
HETATM   29  H   UNK N   1      35.580  17.001  11.983  0.00  0.00     0.210 HD
ENDBRANCH  12  28
TORSDOF 4
ENDMDL
MODEL 6
REMARK VINA RESULT:      -7.2     19.970     23.629
REMARK  4 active torsions:
REMARK  status: ('A' for Active; 'I' for Inactive)
REMARK    1  A    between atoms: C_14  and  O_2 
REMARK    2  A    between atoms: O_3  and  C_20 
REMARK    3  A    between atoms: O_3  and  C_22 
REMARK    4  A    between atoms: C_22  and  C_23 
ROOT
HETATM    1  O   UNK N   1      36.053  14.281  12.554  0.00  0.00    -0.338 OA
HETATM    2  N   UNK N   1      38.632  11.703   8.770  0.00  0.00     0.089 N 
HETATM    3  C   UNK N   1      36.964  13.256  10.619  0.00  0.00     0.030 C 
HETATM    4  C   UNK N   1      36.346  12.248   9.640  0.00  0.00     0.057 C 
HETATM    5  C   UNK N   1      37.433  11.128   9.415  0.00  0.00     0.235 C 
HETATM    6  C   UNK N   1      36.010  14.394  11.161  0.00  0.00     0.175 C 
HETATM    7  C   UNK N   1      38.256  13.845  10.026  0.00  0.00     0.048 C 
HETATM    8  C   UNK N   1      37.211  12.520  11.876  0.00  0.00    -0.003 A 
HETATM    9  C   UNK N   1      37.902  10.413  10.727  0.00  0.00     0.075 C 
HETATM   10  C   UNK N   1      39.254  12.768   9.574  0.00  0.00     0.273 C 
HETATM   11  C   UNK N   1      37.729  11.236  11.980  0.00  0.00    -0.046 A 
HETATM   12  C   UNK N   1      34.573  14.167  10.630  0.00  0.00     0.171 C 
HETATM   13  C   UNK N   1      35.017  11.778  10.204  0.00  0.00    -0.020 C 
HETATM   14  C   UNK N   1      36.700  13.175  12.932  0.00  0.00     0.110 A 
HETATM   15  C   UNK N   1      34.166  12.708  10.683  0.00  0.00     0.004 C 
HETATM   16  C   UNK N   1      37.851  10.667  13.257  0.00  0.00     0.011 A 
HETATM   17  C   UNK N   1      38.352  12.189   7.422  0.00  0.00     0.310 C 
HETATM   18  C   UNK N   1      36.778  12.649  14.220  0.00  0.00     0.103 A 
HETATM   19  C   UNK N   1      37.406  11.388  14.386  0.00  0.00     0.040 A 
ENDROOT
BRANCH  18  20
HETATM   20  O   UNK N   1      36.226  13.317  15.255  0.00  0.00    -0.344 OA
BRANCH  20  21
HETATM   21  C   UNK N   1      34.971  13.037  15.743  0.00  0.00     0.214 C 
BRANCH  21  22
HETATM   22  C   UNK N   1      35.098  12.508  17.123  0.00  0.00    -0.034 A 
HETATM   23  C   UNK N   1      35.110  13.382  18.218  0.00  0.00     0.009 A 
HETATM   24  C   UNK N   1      35.262  12.877  19.512  0.00  0.00     0.001 A 
HETATM   25  C   UNK N   1      35.402  11.500  19.712  0.00  0.00     0.000 A 
HETATM   26  C   UNK N   1      35.384  10.627  18.618  0.00  0.00     0.001 A 
HETATM   27  C   UNK N   1      35.232  11.132  17.324  0.00  0.00     0.009 A 
ENDBRANCH  21  22
ENDBRANCH  20  21
ENDBRANCH  18  20
BRANCH  12  28
HETATM   28  O   UNK N   1      33.647  14.983  11.280  0.00  0.00    -0.389 OA
HETATM   29  H   UNK N   1      33.885  15.440  12.102  0.00  0.00     0.210 HD
ENDBRANCH  12  28
TORSDOF 4
ENDMDL
MODEL 7
REMARK VINA RESULT:      -7.2     11.403     14.039
REMARK  4 active torsions:
REMARK  status: ('A' for Active; 'I' for Inactive)
REMARK    1  A    between atoms: C_14  and  O_2 
REMARK    2  A    between atoms: O_3  and  C_20 
REMARK    3  A    between atoms: O_3  and  C_22 
REMARK    4  A    between atoms: C_22  and  C_23 
ROOT
HETATM    1  O   UNK N   1      30.862  16.977   6.756  0.00  0.00    -0.338 OA
HETATM    2  N   UNK N   1      34.903  13.629   7.025  0.00  0.00     0.089 N 
HETATM    3  C   UNK N   1      32.723  15.583   7.224  0.00  0.00     0.030 C 
HETATM    4  C   UNK N   1      34.157  15.939   7.641  0.00  0.00     0.057 C 
HETATM    5  C   UNK N   1      35.110  15.064   6.741  0.00  0.00     0.235 C 
HETATM    6  C   UNK N   1      31.564  16.457   7.849  0.00  0.00     0.175 C 
HETATM    7  C   UNK N   1      32.469  14.080   7.440  0.00  0.00     0.048 C 
HETATM    8  C   UNK N   1      32.592  15.974   5.806  0.00  0.00    -0.003 A 
HETATM    9  C   UNK N   1      34.911  15.271   5.201  0.00  0.00     0.075 C 
HETATM   10  C   UNK N   1      33.522  13.190   6.765  0.00  0.00     0.273 C 
HETATM   11  C   UNK N   1      33.541  15.770   4.813  0.00  0.00    -0.046 A 
HETATM   12  C   UNK N   1      32.173  17.593   8.709  0.00  0.00     0.171 C 
HETATM   13  C   UNK N   1      34.334  17.443   7.528  0.00  0.00    -0.020 C 
HETATM   14  C   UNK N   1      31.500  16.730   5.608  0.00  0.00     0.110 A 
HETATM   15  C   UNK N   1      33.373  18.237   8.042  0.00  0.00     0.004 C 
HETATM   16  C   UNK N   1      33.272  16.252   3.522  0.00  0.00     0.011 A 
HETATM   17  C   UNK N   1      35.294  13.276   8.387  0.00  0.00     0.310 C 
HETATM   18  C   UNK N   1      31.193  17.250   4.352  0.00  0.00     0.103 A 
HETATM   19  C   UNK N   1      32.079  16.965   3.281  0.00  0.00     0.040 A 
ENDROOT
BRANCH  18  20
HETATM   20  O   UNK N   1      30.105  18.034   4.195  0.00  0.00    -0.344 OA
BRANCH  20  21
HETATM   21  C   UNK N   1      28.829  17.611   4.486  0.00  0.00     0.214 C 
BRANCH  21  22
HETATM   22  C   UNK N   1      28.027  18.774   4.937  0.00  0.00    -0.034 A 
HETATM   23  C   UNK N   1      27.294  19.530   4.013  0.00  0.00     0.009 A 
HETATM   24  C   UNK N   1      26.567  20.643   4.444  0.00  0.00     0.001 A 
HETATM   25  C   UNK N   1      26.574  21.001   5.796  0.00  0.00     0.000 A 
HETATM   26  C   UNK N   1      27.303  20.243   6.718  0.00  0.00     0.001 A 
HETATM   27  C   UNK N   1      28.030  19.130   6.288  0.00  0.00     0.009 A 
ENDBRANCH  21  22
ENDBRANCH  20  21
ENDBRANCH  18  20
BRANCH  12  28
HETATM   28  O   UNK N   1      31.214  18.540   9.067  0.00  0.00    -0.389 OA
HETATM   29  H   UNK N   1      31.090  18.787   9.997  0.00  0.00     0.210 HD
ENDBRANCH  12  28
TORSDOF 4
ENDMDL
MODEL 8
REMARK VINA RESULT:      -7.1     16.437     20.220
REMARK  4 active torsions:
REMARK  status: ('A' for Active; 'I' for Inactive)
REMARK    1  A    between atoms: C_14  and  O_2 
REMARK    2  A    between atoms: O_3  and  C_20 
REMARK    3  A    between atoms: O_3  and  C_22 
REMARK    4  A    between atoms: C_22  and  C_23 
ROOT
HETATM    1  O   UNK N   1      33.982  13.137   9.598  0.00  0.00    -0.338 OA
HETATM    2  N   UNK N   1      32.553  17.491   7.026  0.00  0.00     0.089 N 
HETATM    3  C   UNK N   1      33.333  14.889   8.138  0.00  0.00     0.030 C 
HETATM    4  C   UNK N   1      34.045  15.482   6.913  0.00  0.00     0.057 C 
HETATM    5  C   UNK N   1      33.962  17.048   7.068  0.00  0.00     0.235 C 
HETATM    6  C   UNK N   1      33.431  13.323   8.326  0.00  0.00     0.175 C 
HETATM    7  C   UNK N   1      31.872  15.368   8.181  0.00  0.00     0.048 C 
HETATM    8  C   UNK N   1      34.102  15.330   9.319  0.00  0.00    -0.003 A 
HETATM    9  C   UNK N   1      34.588  17.598   8.394  0.00  0.00     0.075 C 
HETATM   10  C   UNK N   1      31.738  16.896   8.098  0.00  0.00     0.273 C 
HETATM   11  C   UNK N   1      34.626  16.599   9.525  0.00  0.00    -0.046 A 
HETATM   12  C   UNK N   1      34.347  12.722   7.231  0.00  0.00     0.171 C 
HETATM   13  C   UNK N   1      35.443  14.896   6.835  0.00  0.00    -0.020 C 
HETATM   14  C   UNK N   1      34.403  14.293  10.118  0.00  0.00     0.110 A 
HETATM   15  C   UNK N   1      35.585  13.564   6.992  0.00  0.00     0.004 C 
HETATM   16  C   UNK N   1      35.377  16.832  10.687  0.00  0.00     0.011 A 
HETATM   17  C   UNK N   1      31.936  17.239   5.727  0.00  0.00     0.310 C 
HETATM   18  C   UNK N   1      35.160  14.463  11.277  0.00  0.00     0.103 A 
HETATM   19  C   UNK N   1      35.617  15.770  11.585  0.00  0.00     0.040 A 
ENDROOT
BRANCH  18  20
HETATM   20  O   UNK N   1      35.472  13.395  12.040  0.00  0.00    -0.344 OA
BRANCH  20  21
HETATM   21  C   UNK N   1      36.570  13.360  12.867  0.00  0.00     0.214 C 
BRANCH  21  22
HETATM   22  C   UNK N   1      36.112  13.382  14.278  0.00  0.00    -0.034 A 
HETATM   23  C   UNK N   1      36.794  14.149  15.232  0.00  0.00     0.009 A 
HETATM   24  C   UNK N   1      36.374  14.138  16.564  0.00  0.00     0.001 A 
HETATM   25  C   UNK N   1      35.275  13.361  16.943  0.00  0.00     0.000 A 
HETATM   26  C   UNK N   1      34.592  12.600  15.989  0.00  0.00     0.001 A 
HETATM   27  C   UNK N   1      35.011  12.611  14.657  0.00  0.00     0.009 A 
ENDBRANCH  21  22
ENDBRANCH  20  21
ENDBRANCH  18  20
BRANCH  12  28
HETATM   28  O   UNK N   1      34.674  11.393   7.503  0.00  0.00    -0.389 OA
HETATM   29  H   UNK N   1      35.451  10.984   7.092  0.00  0.00     0.210 HD
ENDBRANCH  12  28
TORSDOF 4
ENDMDL
MODEL 9
REMARK VINA RESULT:      -7.0     14.939     17.410
REMARK  4 active torsions:
REMARK  status: ('A' for Active; 'I' for Inactive)
REMARK    1  A    between atoms: C_14  and  O_2 
REMARK    2  A    between atoms: O_3  and  C_20 
REMARK    3  A    between atoms: O_3  and  C_22 
REMARK    4  A    between atoms: C_22  and  C_23 
ROOT
HETATM    1  O   UNK N   1      21.827  16.141   7.302  0.00  0.00    -0.338 OA
HETATM    2  N   UNK N   1      20.820  18.447   2.689  0.00  0.00     0.089 N 
HETATM    3  C   UNK N   1      21.030  17.222   5.347  0.00  0.00     0.030 C 
HETATM    4  C   UNK N   1      19.919  16.819   4.367  0.00  0.00     0.057 C 
HETATM    5  C   UNK N   1      20.512  17.021   2.920  0.00  0.00     0.235 C 
HETATM    6  C   UNK N   1      20.761  16.941   6.879  0.00  0.00     0.175 C 
HETATM    7  C   UNK N   1      21.437  18.687   5.110  0.00  0.00     0.048 C 
HETATM    8  C   UNK N   1      22.149  16.286   5.116  0.00  0.00    -0.003 A 
HETATM    9  C   UNK N   1      21.821  16.207   2.642  0.00  0.00     0.075 C 
HETATM   10  C   UNK N   1      21.801  18.980   3.647  0.00  0.00     0.273 C 
HETATM   11  C   UNK N   1      22.611  15.857   3.879  0.00  0.00    -0.046 A 
HETATM   12  C   UNK N   1      19.411  16.200   7.043  0.00  0.00     0.171 C 
HETATM   13  C   UNK N   1      19.462  15.413   4.706  0.00  0.00    -0.020 C 
HETATM   14  C   UNK N   1      22.572  15.740   6.268  0.00  0.00     0.110 A 
HETATM   15  C   UNK N   1      19.220  15.117   5.999  0.00  0.00     0.004 C 
HETATM   16  C   UNK N   1      23.658  14.922   3.844  0.00  0.00     0.011 A 
HETATM   17  C   UNK N   1      19.617  19.276   2.687  0.00  0.00     0.310 C 
HETATM   18  C   UNK N   1      23.596  14.794   6.291  0.00  0.00     0.103 A 
HETATM   19  C   UNK N   1      24.176  14.414   5.054  0.00  0.00     0.040 A 
ENDROOT
BRANCH  18  20
HETATM   20  O   UNK N   1      23.975  14.241   7.462  0.00  0.00    -0.344 OA
BRANCH  20  21
HETATM   21  C   UNK N   1      23.899  12.890   7.712  0.00  0.00     0.214 C 
BRANCH  21  22
HETATM   22  C   UNK N   1      23.112  12.672   8.950  0.00  0.00    -0.034 A 
HETATM   23  C   UNK N   1      21.774  13.080   9.019  0.00  0.00     0.009 A 
HETATM   24  C   UNK N   1      21.051  12.899  10.201  0.00  0.00     0.001 A 
HETATM   25  C   UNK N   1      21.664  12.312  11.313  0.00  0.00     0.000 A 
HETATM   26  C   UNK N   1      23.000  11.902  11.241  0.00  0.00     0.001 A 
HETATM   27  C   UNK N   1      23.723  12.082  10.059  0.00  0.00     0.009 A 
ENDBRANCH  21  22
ENDBRANCH  20  21
ENDBRANCH  18  20
BRANCH  12  28
HETATM   28  O   UNK N   1      19.249  15.701   8.336  0.00  0.00    -0.389 OA
HETATM   29  H   UNK N   1      18.638  14.968   8.508  0.00  0.00     0.210 HD
ENDBRANCH  12  28
TORSDOF 4
ENDMDL
