MODEL 1
REMARK VINA RESULT:      -7.1      0.000      0.000
REMARK  13 active torsions:
REMARK  status: ('A' for Active; 'I' for Inactive)
REMARK    1  A    between atoms: C_2  and  C_4 
REMARK    2  A    between atoms: C_4  and  C_5 
REMARK    3  A    between atoms: C_4  and  N_9 
REMARK    4  A    between atoms: C_5  and  C_6 
REMARK    5  A    between atoms: C_6  and  O_7 
REMARK       I    between atoms: N_9  and  C_10 
REMARK    6  A    between atoms: C_10  and  C_12 
REMARK    7  A    between atoms: C_17  and  C_18 
REMARK    8  A    between atoms: C_18  and  N_19 
REMARK    9  A    between atoms: N_19  and  S_20 
REMARK   10  A    between atoms: S_20  and  C_23 
REMARK   11  A    between atoms: C_27  and  O_28 
REMARK   12  A    between atoms: C_29  and  C_30 
REMARK   13  A    between atoms: C_30  and  O_31 
ROOT
HETATM    1  C   UNK N   1      25.779  16.462   4.240  0.00  0.00     0.032 A 
HETATM    2  C   UNK N   1      25.037  16.086   5.373  0.00  0.00     0.017 A 
HETATM    3  C   UNK N   1      23.822  15.411   5.250  0.00  0.00     0.010 A 
HETATM    4  C   UNK N   1      25.275  16.137   2.970  0.00  0.00     0.017 A 
HETATM    5  C   UNK N   1      24.059  15.441   2.846  0.00  0.00     0.010 A 
HETATM    6  C   UNK N   1      23.335  15.065   3.991  0.00  0.00    -0.040 A 
ENDROOT
BRANCH   6   7
HETATM    7  C   UNK N   1      22.050  14.290   3.912  0.00  0.00     0.170 C 
BRANCH   7   8
HETATM    8  N   UNK N   1      21.094  14.704   4.931  0.00  0.00    -0.311 N 
HETATM    9  H   UNK N   1      21.193  14.553   5.935  0.00  0.00     0.172 HD
BRANCH   8  10
HETATM   10  S   UNK N   1      19.730  15.514   4.138  0.00  0.00     0.259 S 
HETATM   11  O   UNK N   1      18.961  14.364   3.469  0.00  0.00    -0.201 OA
HETATM   12  O   UNK N   1      18.750  15.907   5.254  0.00  0.00    -0.201 OA
BRANCH  10  13
HETATM   13  C   UNK N   1      20.035  16.835   2.960  0.00  0.00     0.080 A 
HETATM   14  C   UNK N   1      20.285  18.135   3.410  0.00  0.00     0.046 A 
HETATM   15  C   UNK N   1      20.512  19.181   2.499  0.00  0.00     0.072 A 
HETATM   16  C   UNK N   1      20.482  18.899   1.113  0.00  0.00     0.082 A 
HETATM   17  C   UNK N   1      20.228  17.597   0.671  0.00  0.00     0.039 A 
HETATM   18  C   UNK N   1      20.006  16.570   1.589  0.00  0.00     0.028 A 
BRANCH  15  19
HETATM   19  C   UNK N   1      20.777  20.547   3.019  0.00  0.00     0.179 C 
HETATM   20  O   UNK N   1      20.092  20.999   3.923  0.00  0.00    -0.646 OA
BRANCH  19  21
HETATM   21  O   UNK N   1      21.767  21.303   2.506  0.00  0.00    -0.773 OA
HETATM   22  H   UNK N   1      22.295  21.848   3.058  0.00  0.00     0.167 HD
ENDBRANCH  19  21
ENDBRANCH  15  19
BRANCH  16  23
HETATM   23  O   UNK N   1      20.693  19.865   0.201  0.00  0.00    -0.360 OA
HETATM   24  H   UNK N   1      19.994  20.177  -0.339  0.00  0.00     0.217 HD
ENDBRANCH  16  23
ENDBRANCH  10  13
ENDBRANCH   8  10
ENDBRANCH   7   8
ENDBRANCH   6   7
BRANCH   1  25
HETATM   25  C   UNK N   1      27.134  17.059   4.460  0.00  0.00     0.252 C 
HETATM   26  N   UNK N   1      27.386  18.383   4.677  0.00  0.00    -0.345 N 
HETATM   27  H   UNK N   1      28.323  18.654   4.542  0.00  0.00     0.163 HD
HETATM   28  O   UNK N   1      28.092  16.307   4.415  0.00  0.00    -0.268 OA
BRANCH  26  29
HETATM   29  C   UNK N   1      26.493  19.450   5.072  0.00  0.00     0.164 C 
BRANCH  29  30
HETATM   30  C   UNK N   1      27.172  20.128   6.246  0.00  0.00     0.146 C 
HETATM   31  C   UNK N   1      27.116  21.614   6.371  0.00  0.00     0.093 C 
HETATM   32  O   UNK N   1      27.714  19.482   7.128  0.00  0.00    -0.296 OA
ENDBRANCH  29  30
BRANCH  29  33
HETATM   33  C   UNK N   1      26.265  20.391   3.874  0.00  0.00     0.143 C 
BRANCH  33  34
HETATM   34  C   UNK N   1      24.942  20.190   3.180  0.00  0.00     0.141 C 
HETATM   35  O   UNK N   1      24.050  19.549   3.713  0.00  0.00    -0.650 OA
BRANCH  34  36
HETATM   36  O   UNK N   1      24.718  20.768   1.986  0.00  0.00    -0.776 OA
HETATM   37  H   UNK N   1      24.020  20.465   1.438  0.00  0.00     0.167 HD
ENDBRANCH  34  36
ENDBRANCH  33  34
ENDBRANCH  29  33
ENDBRANCH  26  29
ENDBRANCH   1  25
TORSDOF 13
ENDMDL
MODEL 2
REMARK VINA RESULT:      -7.0     12.429     16.769
REMARK  13 active torsions:
REMARK  status: ('A' for Active; 'I' for Inactive)
REMARK    1  A    between atoms: C_2  and  C_4 
REMARK    2  A    between atoms: C_4  and  C_5 
REMARK    3  A    between atoms: C_4  and  N_9 
REMARK    4  A    between atoms: C_5  and  C_6 
REMARK    5  A    between atoms: C_6  and  O_7 
REMARK       I    between atoms: N_9  and  C_10 
REMARK    6  A    between atoms: C_10  and  C_12 
REMARK    7  A    between atoms: C_17  and  C_18 
REMARK    8  A    between atoms: C_18  and  N_19 
REMARK    9  A    between atoms: N_19  and  S_20 
REMARK   10  A    between atoms: S_20  and  C_23 
REMARK   11  A    between atoms: C_27  and  O_28 
REMARK   12  A    between atoms: C_29  and  C_30 
REMARK   13  A    between atoms: C_30  and  O_31 
ROOT
HETATM    1  C   UNK N   1      35.114  16.311   9.754  0.00  0.00     0.032 A 
HETATM    2  C   UNK N   1      35.309  16.491  11.134  0.00  0.00     0.017 A 
HETATM    3  C   UNK N   1      35.852  15.478  11.925  0.00  0.00     0.010 A 
HETATM    4  C   UNK N   1      35.483  15.084   9.179  0.00  0.00     0.017 A 
HETATM    5  C   UNK N   1      36.046  14.069   9.973  0.00  0.00     0.010 A 
HETATM    6  C   UNK N   1      36.242  14.271  11.350  0.00  0.00    -0.040 A 
ENDROOT
BRANCH   6   7
HETATM    7  C   UNK N   1      36.872  13.231  12.234  0.00  0.00     0.170 C 
BRANCH   7   8
HETATM    8  N   UNK N   1      36.819  13.600  13.642  0.00  0.00    -0.311 N 
HETATM    9  H   UNK N   1      37.294  14.397  14.066  0.00  0.00     0.172 HD
BRANCH   8  10
HETATM   10  S   UNK N   1      35.791  12.435  14.499  0.00  0.00     0.259 S 
HETATM   11  O   UNK N   1      34.434  12.554  13.789  0.00  0.00    -0.201 OA
HETATM   12  O   UNK N   1      36.238  11.040  14.035  0.00  0.00    -0.201 OA
BRANCH  10  13
HETATM   13  C   UNK N   1      35.585  12.562  16.278  0.00  0.00     0.080 A 
HETATM   14  C   UNK N   1      35.547  11.407  17.066  0.00  0.00     0.046 A 
HETATM   15  C   UNK N   1      35.373  11.492  18.458  0.00  0.00     0.072 A 
HETATM   16  C   UNK N   1      35.233  12.768  19.053  0.00  0.00     0.082 A 
HETATM   17  C   UNK N   1      35.269  13.917  18.258  0.00  0.00     0.039 A 
HETATM   18  C   UNK N   1      35.443  13.815  16.877  0.00  0.00     0.028 A 
BRANCH  15  19
HETATM   19  C   UNK N   1      35.341  10.241  19.259  0.00  0.00     0.179 C 
HETATM   20  O   UNK N   1      36.285   9.468  19.222  0.00  0.00    -0.646 OA
BRANCH  19  21
HETATM   21  O   UNK N   1      34.279   9.942  20.032  0.00  0.00    -0.773 OA
HETATM   22  H   UNK N   1      34.236   9.131  20.501  0.00  0.00     0.167 HD
ENDBRANCH  19  21
ENDBRANCH  15  19
BRANCH  16  23
HETATM   23  O   UNK N   1      35.063  12.901  20.381  0.00  0.00    -0.360 OA
HETATM   24  H   UNK N   1      34.832  13.728  20.756  0.00  0.00     0.217 HD
ENDBRANCH  16  23
ENDBRANCH  10  13
ENDBRANCH   8  10
ENDBRANCH   7   8
ENDBRANCH   6   7
BRANCH   1  25
HETATM   25  C   UNK N   1      34.656  17.491   8.955  0.00  0.00     0.252 C 
HETATM   26  N   UNK N   1      33.617  17.490   8.069  0.00  0.00    -0.345 N 
HETATM   27  H   UNK N   1      33.607  18.247   7.440  0.00  0.00     0.163 HD
HETATM   28  O   UNK N   1      35.279  18.531   9.084  0.00  0.00    -0.268 OA
BRANCH  26  29
HETATM   29  C   UNK N   1      32.530  16.548   7.909  0.00  0.00     0.164 C 
BRANCH  29  30
HETATM   30  C   UNK N   1      31.264  17.377   8.014  0.00  0.00     0.146 C 
HETATM   31  C   UNK N   1      30.152  17.145   7.046  0.00  0.00     0.093 C 
HETATM   32  O   UNK N   1      31.106  18.190   8.911  0.00  0.00    -0.296 OA
ENDBRANCH  29  30
BRANCH  29  33
HETATM   33  C   UNK N   1      32.677  15.828   6.556  0.00  0.00     0.143 C 
BRANCH  33  34
HETATM   34  C   UNK N   1      33.737  16.416   5.660  0.00  0.00     0.141 C 
HETATM   35  O   UNK N   1      33.474  17.343   4.911  0.00  0.00    -0.650 OA
BRANCH  34  36
HETATM   36  O   UNK N   1      34.999  15.955   5.724  0.00  0.00    -0.776 OA
HETATM   37  H   UNK N   1      35.722  16.544   5.636  0.00  0.00     0.167 HD
ENDBRANCH  34  36
ENDBRANCH  33  34
ENDBRANCH  29  33
ENDBRANCH  26  29
ENDBRANCH   1  25
TORSDOF 13
ENDMDL
MODEL 3
REMARK VINA RESULT:      -6.9      5.998      8.488
REMARK  13 active torsions:
REMARK  status: ('A' for Active; 'I' for Inactive)
REMARK    1  A    between atoms: C_2  and  C_4 
REMARK    2  A    between atoms: C_4  and  C_5 
REMARK    3  A    between atoms: C_4  and  N_9 
REMARK    4  A    between atoms: C_5  and  C_6 
REMARK    5  A    between atoms: C_6  and  O_7 
REMARK       I    between atoms: N_9  and  C_10 
REMARK    6  A    between atoms: C_10  and  C_12 
REMARK    7  A    between atoms: C_17  and  C_18 
REMARK    8  A    between atoms: C_18  and  N_19 
REMARK    9  A    between atoms: N_19  and  S_20 
REMARK   10  A    between atoms: S_20  and  C_23 
REMARK   11  A    between atoms: C_27  and  O_28 
REMARK   12  A    between atoms: C_29  and  C_30 
REMARK   13  A    between atoms: C_30  and  O_31 
ROOT
HETATM    1  C   UNK N   1      33.294  17.661   7.304  0.00  0.00     0.032 A 
HETATM    2  C   UNK N   1      33.664  17.545   5.953  0.00  0.00     0.017 A 
HETATM    3  C   UNK N   1      32.708  17.331   4.959  0.00  0.00     0.010 A 
HETATM    4  C   UNK N   1      31.934  17.562   7.639  0.00  0.00     0.017 A 
HETATM    5  C   UNK N   1      30.969  17.363   6.636  0.00  0.00     0.010 A 
HETATM    6  C   UNK N   1      31.356  17.259   5.288  0.00  0.00    -0.040 A 
ENDROOT
BRANCH   6   7
HETATM    7  C   UNK N   1      30.360  17.081   4.176  0.00  0.00     0.170 C 
BRANCH   7   8
HETATM    8  N   UNK N   1      29.172  17.903   4.366  0.00  0.00    -0.311 N 
HETATM    9  H   UNK N   1      29.156  18.922   4.416  0.00  0.00     0.172 HD
BRANCH   8  10
HETATM   10  S   UNK N   1      27.758  16.840   4.496  0.00  0.00     0.259 S 
HETATM   11  O   UNK N   1      28.006  15.771   3.421  0.00  0.00    -0.201 OA
HETATM   12  O   UNK N   1      27.954  16.013   5.776  0.00  0.00    -0.201 OA
BRANCH  10  13
HETATM   13  C   UNK N   1      26.106  17.524   4.335  0.00  0.00     0.080 A 
HETATM   14  C   UNK N   1      25.904  18.719   3.638  0.00  0.00     0.046 A 
HETATM   15  C   UNK N   1      24.617  19.272   3.516  0.00  0.00     0.072 A 
HETATM   16  C   UNK N   1      23.525  18.601   4.114  0.00  0.00     0.082 A 
HETATM   17  C   UNK N   1      23.736  17.408   4.812  0.00  0.00     0.039 A 
HETATM   18  C   UNK N   1      25.019  16.872   4.923  0.00  0.00     0.028 A 
BRANCH  15  19
HETATM   19  C   UNK N   1      24.446  20.542   2.764  0.00  0.00     0.179 C 
HETATM   20  O   UNK N   1      25.294  20.894   1.959  0.00  0.00    -0.646 OA
BRANCH  19  21
HETATM   21  O   UNK N   1      23.362  21.318   2.956  0.00  0.00    -0.773 OA
HETATM   22  H   UNK N   1      22.603  21.232   2.413  0.00  0.00     0.167 HD
ENDBRANCH  19  21
ENDBRANCH  15  19
BRANCH  16  23
HETATM   23  O   UNK N   1      22.275  19.090   4.026  0.00  0.00    -0.360 OA
HETATM   24  H   UNK N   1      21.870  19.509   4.759  0.00  0.00     0.217 HD
ENDBRANCH  16  23
ENDBRANCH  10  13
ENDBRANCH   8  10
ENDBRANCH   7   8
ENDBRANCH   6   7
BRANCH   1  25
HETATM   25  C   UNK N   1      34.361  18.026   8.289  0.00  0.00     0.252 C 
HETATM   26  N   UNK N   1      34.943  17.168   9.177  0.00  0.00    -0.345 N 
HETATM   27  H   UNK N   1      35.422  17.601   9.920  0.00  0.00     0.163 HD
HETATM   28  O   UNK N   1      34.719  19.191   8.320  0.00  0.00    -0.268 OA
BRANCH  26  29
HETATM   29  C   UNK N   1      34.962  15.721   9.199  0.00  0.00     0.164 C 
BRANCH  29  30
HETATM   30  C   UNK N   1      36.127  15.350  10.096  0.00  0.00     0.146 C 
HETATM   31  C   UNK N   1      36.691  13.969  10.036  0.00  0.00     0.093 C 
HETATM   32  O   UNK N   1      36.658  16.173  10.826  0.00  0.00    -0.296 OA
ENDBRANCH  29  30
BRANCH  29  33
HETATM   33  C   UNK N   1      33.607  15.203   9.714  0.00  0.00     0.143 C 
BRANCH  33  34
HETATM   34  C   UNK N   1      32.979  14.151   8.836  0.00  0.00     0.141 C 
HETATM   35  O   UNK N   1      33.107  14.196   7.622  0.00  0.00    -0.650 OA
BRANCH  34  36
HETATM   36  O   UNK N   1      32.317  13.122   9.393  0.00  0.00    -0.776 OA
HETATM   37  H   UNK N   1      32.787  12.436   9.826  0.00  0.00     0.167 HD
ENDBRANCH  34  36
ENDBRANCH  33  34
ENDBRANCH  29  33
ENDBRANCH  26  29
ENDBRANCH   1  25
TORSDOF 13
ENDMDL
MODEL 4
REMARK VINA RESULT:      -6.8      5.921      8.431
REMARK  13 active torsions:
REMARK  status: ('A' for Active; 'I' for Inactive)
REMARK    1  A    between atoms: C_2  and  C_4 
REMARK    2  A    between atoms: C_4  and  C_5 
REMARK    3  A    between atoms: C_4  and  N_9 
REMARK    4  A    between atoms: C_5  and  C_6 
REMARK    5  A    between atoms: C_6  and  O_7 
REMARK       I    between atoms: N_9  and  C_10 
REMARK    6  A    between atoms: C_10  and  C_12 
REMARK    7  A    between atoms: C_17  and  C_18 
REMARK    8  A    between atoms: C_18  and  N_19 
REMARK    9  A    between atoms: N_19  and  S_20 
REMARK   10  A    between atoms: S_20  and  C_23 
REMARK   11  A    between atoms: C_27  and  O_28 
REMARK   12  A    between atoms: C_29  and  C_30 
REMARK   13  A    between atoms: C_30  and  O_31 
ROOT
HETATM    1  C   UNK N   1      32.971  17.470   6.839  0.00  0.00     0.032 A 
HETATM    2  C   UNK N   1      31.737  17.156   7.437  0.00  0.00     0.017 A 
HETATM    3  C   UNK N   1      30.585  16.987   6.669  0.00  0.00     0.010 A 
HETATM    4  C   UNK N   1      33.024  17.605   5.443  0.00  0.00     0.017 A 
HETATM    5  C   UNK N   1      31.866  17.419   4.666  0.00  0.00     0.010 A 
HETATM    6  C   UNK N   1      30.643  17.096   5.281  0.00  0.00    -0.040 A 
ENDROOT
BRANCH   6   7
HETATM    7  C   UNK N   1      29.387  16.853   4.492  0.00  0.00     0.170 C 
BRANCH   7   8
HETATM    8  N   UNK N   1      28.802  18.090   3.993  0.00  0.00    -0.311 N 
HETATM    9  H   UNK N   1      29.154  18.640   3.209  0.00  0.00     0.172 HD
BRANCH   8  10
HETATM   10  S   UNK N   1      27.377  18.483   4.973  0.00  0.00     0.259 S 
HETATM   11  O   UNK N   1      27.014  17.148   5.641  0.00  0.00    -0.201 OA
HETATM   12  O   UNK N   1      27.889  19.281   6.182  0.00  0.00    -0.201 OA
BRANCH  10  13
HETATM   13  C   UNK N   1      25.931  19.213   4.197  0.00  0.00     0.080 A 
HETATM   14  C   UNK N   1      24.658  18.695   4.455  0.00  0.00     0.046 A 
HETATM   15  C   UNK N   1      23.519  19.248   3.844  0.00  0.00     0.072 A 
HETATM   16  C   UNK N   1      23.680  20.340   2.959  0.00  0.00     0.082 A 
HETATM   17  C   UNK N   1      24.957  20.850   2.705  0.00  0.00     0.039 A 
HETATM   18  C   UNK N   1      26.077  20.290   3.320  0.00  0.00     0.028 A 
BRANCH  15  19
HETATM   19  C   UNK N   1      22.185  18.669   4.146  0.00  0.00     0.179 C 
HETATM   20  O   UNK N   1      21.255  19.402   4.445  0.00  0.00    -0.646 OA
BRANCH  19  21
HETATM   21  O   UNK N   1      21.981  17.339   4.096  0.00  0.00    -0.773 OA
HETATM   22  H   UNK N   1      22.436  16.803   3.476  0.00  0.00     0.167 HD
ENDBRANCH  19  21
ENDBRANCH  15  19
BRANCH  16  23
HETATM   23  O   UNK N   1      22.622  20.904   2.350  0.00  0.00    -0.360 OA
HETATM   24  H   UNK N   1      21.775  20.893   2.750  0.00  0.00     0.217 HD
ENDBRANCH  16  23
ENDBRANCH  10  13
ENDBRANCH   8  10
ENDBRANCH   7   8
ENDBRANCH   6   7
BRANCH   1  25
HETATM   25  C   UNK N   1      34.183  17.498   7.717  0.00  0.00     0.252 C 
HETATM   26  N   UNK N   1      34.779  16.404   8.275  0.00  0.00    -0.345 N 
HETATM   27  H   UNK N   1      35.389  16.600   9.022  0.00  0.00     0.163 HD
HETATM   28  O   UNK N   1      34.660  18.589   7.978  0.00  0.00    -0.268 OA
BRANCH  26  29
HETATM   29  C   UNK N   1      34.654  15.002   7.940  0.00  0.00     0.164 C 
BRANCH  29  30
HETATM   30  C   UNK N   1      35.847  14.693   7.056  0.00  0.00     0.146 C 
HETATM   31  C   UNK N   1      36.895  13.746   7.539  0.00  0.00     0.093 C 
HETATM   32  O   UNK N   1      35.942  15.154   5.929  0.00  0.00    -0.296 OA
ENDBRANCH  29  30
BRANCH  29  33
HETATM   33  C   UNK N   1      34.625  14.171   9.235  0.00  0.00     0.143 C 
BRANCH  33  34
HETATM   34  C   UNK N   1      34.393  14.986  10.482  0.00  0.00     0.141 C 
HETATM   35  O   UNK N   1      35.324  15.542  11.044  0.00  0.00    -0.650 OA
BRANCH  34  36
HETATM   36  O   UNK N   1      33.144  15.151  10.952  0.00  0.00    -0.776 OA
HETATM   37  H   UNK N   1      32.778  16.011  11.032  0.00  0.00     0.167 HD
ENDBRANCH  34  36
ENDBRANCH  33  34
ENDBRANCH  29  33
ENDBRANCH  26  29
ENDBRANCH   1  25
TORSDOF 13
ENDMDL
MODEL 5
REMARK VINA RESULT:      -6.8     11.596     14.079
REMARK  13 active torsions:
REMARK  status: ('A' for Active; 'I' for Inactive)
REMARK    1  A    between atoms: C_2  and  C_4 
REMARK    2  A    between atoms: C_4  and  C_5 
REMARK    3  A    between atoms: C_4  and  N_9 
REMARK    4  A    between atoms: C_5  and  C_6 
REMARK    5  A    between atoms: C_6  and  O_7 
REMARK       I    between atoms: N_9  and  C_10 
REMARK    6  A    between atoms: C_10  and  C_12 
REMARK    7  A    between atoms: C_17  and  C_18 
REMARK    8  A    between atoms: C_18  and  N_19 
REMARK    9  A    between atoms: N_19  and  S_20 
REMARK   10  A    between atoms: S_20  and  C_23 
REMARK   11  A    between atoms: C_27  and  O_28 
REMARK   12  A    between atoms: C_29  and  C_30 
REMARK   13  A    between atoms: C_30  and  O_31 
ROOT
HETATM    1  C   UNK N   1      27.649  27.753  -7.251  0.00  0.00     0.032 A 
HETATM    2  C   UNK N   1      28.100  27.267  -8.491  0.00  0.00     0.017 A 
HETATM    3  C   UNK N   1      27.331  26.374  -9.239  0.00  0.00     0.010 A 
HETATM    4  C   UNK N   1      26.398  27.327  -6.778  0.00  0.00     0.017 A 
HETATM    5  C   UNK N   1      25.616  26.441  -7.539  0.00  0.00     0.010 A 
HETATM    6  C   UNK N   1      26.078  25.971  -8.781  0.00  0.00    -0.040 A 
ENDROOT
BRANCH   6   7
HETATM    7  C   UNK N   1      25.264  25.052  -9.647  0.00  0.00     0.170 C 
BRANCH   7   8
HETATM    8  N   UNK N   1      25.978  23.822  -9.967  0.00  0.00    -0.311 N 
HETATM    9  H   UNK N   1      26.443  23.618 -10.852  0.00  0.00     0.172 HD
BRANCH   8  10
HETATM   10  S   UNK N   1      25.904  22.738  -8.565  0.00  0.00     0.259 S 
HETATM   11  O   UNK N   1      24.434  22.812  -8.125  0.00  0.00    -0.201 OA
HETATM   12  O   UNK N   1      25.968  21.307  -9.120  0.00  0.00    -0.201 OA
BRANCH  10  13
HETATM   13  C   UNK N   1      26.995  23.010  -7.166  0.00  0.00     0.080 A 
HETATM   14  C   UNK N   1      26.498  23.567  -5.984  0.00  0.00     0.046 A 
HETATM   15  C   UNK N   1      27.344  23.797  -4.885  0.00  0.00     0.072 A 
HETATM   16  C   UNK N   1      28.713  23.457  -4.994  0.00  0.00     0.082 A 
HETATM   17  C   UNK N   1      29.203  22.903  -6.180  0.00  0.00     0.039 A 
HETATM   18  C   UNK N   1      28.349  22.680  -7.261  0.00  0.00     0.028 A 
BRANCH  15  19
HETATM   19  C   UNK N   1      26.775  24.389  -3.647  0.00  0.00     0.179 C 
HETATM   20  O   UNK N   1      26.076  25.388  -3.713  0.00  0.00    -0.646 OA
BRANCH  19  21
HETATM   21  O   UNK N   1      27.020  23.839  -2.442  0.00  0.00    -0.773 OA
HETATM   22  H   UNK N   1      27.851  23.454  -2.246  0.00  0.00     0.167 HD
ENDBRANCH  19  21
ENDBRANCH  15  19
BRANCH  16  23
HETATM   23  O   UNK N   1      29.563  23.658  -3.970  0.00  0.00    -0.360 OA
HETATM   24  H   UNK N   1      30.284  23.079  -3.823  0.00  0.00     0.217 HD
ENDBRANCH  16  23
ENDBRANCH  10  13
ENDBRANCH   8  10
ENDBRANCH   7   8
ENDBRANCH   6   7
BRANCH   1  25
HETATM   25  C   UNK N   1      28.469  28.810  -6.579  0.00  0.00     0.252 C 
HETATM   26  N   UNK N   1      28.718  28.882  -5.238  0.00  0.00    -0.345 N 
HETATM   27  H   UNK N   1      29.039  29.756  -4.922  0.00  0.00     0.163 HD
HETATM   28  O   UNK N   1      28.928  29.695  -7.281  0.00  0.00    -0.268 OA
BRANCH  26  29
HETATM   29  C   UNK N   1      28.581  27.873  -4.210  0.00  0.00     0.164 C 
BRANCH  29  30
HETATM   30  C   UNK N   1      29.999  27.497  -3.827  0.00  0.00     0.146 C 
HETATM   31  C   UNK N   1      31.042  28.560  -3.734  0.00  0.00     0.093 C 
HETATM   32  O   UNK N   1      30.297  26.350  -3.532  0.00  0.00    -0.296 OA
ENDBRANCH  29  30
BRANCH  29  33
HETATM   33  C   UNK N   1      27.766  28.451  -3.038  0.00  0.00     0.143 C 
BRANCH  33  34
HETATM   34  C   UNK N   1      26.404  28.963  -3.431  0.00  0.00     0.141 C 
HETATM   35  O   UNK N   1      26.278  30.059  -3.953  0.00  0.00    -0.650 OA
BRANCH  34  36
HETATM   36  O   UNK N   1      25.320  28.185  -3.257  0.00  0.00    -0.776 OA
HETATM   37  H   UNK N   1      24.469  28.503  -3.484  0.00  0.00     0.167 HD
ENDBRANCH  34  36
ENDBRANCH  33  34
ENDBRANCH  29  33
ENDBRANCH  26  29
ENDBRANCH   1  25
TORSDOF 13
ENDMDL
MODEL 6
REMARK VINA RESULT:      -6.8     11.274     13.423
REMARK  13 active torsions:
REMARK  status: ('A' for Active; 'I' for Inactive)
REMARK    1  A    between atoms: C_2  and  C_4 
REMARK    2  A    between atoms: C_4  and  C_5 
REMARK    3  A    between atoms: C_4  and  N_9 
REMARK    4  A    between atoms: C_5  and  C_6 
REMARK    5  A    between atoms: C_6  and  O_7 
REMARK       I    between atoms: N_9  and  C_10 
REMARK    6  A    between atoms: C_10  and  C_12 
REMARK    7  A    between atoms: C_17  and  C_18 
REMARK    8  A    between atoms: C_18  and  N_19 
REMARK    9  A    between atoms: N_19  and  S_20 
REMARK   10  A    between atoms: S_20  and  C_23 
REMARK   11  A    between atoms: C_27  and  O_28 
REMARK   12  A    between atoms: C_29  and  C_30 
REMARK   13  A    between atoms: C_30  and  O_31 
ROOT
HETATM    1  C   UNK N   1      31.411  25.262  -5.113  0.00  0.00     0.032 A 
HETATM    2  C   UNK N   1      31.156  25.851  -3.862  0.00  0.00     0.017 A 
HETATM    3  C   UNK N   1      30.275  26.925  -3.736  0.00  0.00     0.010 A 
HETATM    4  C   UNK N   1      30.753  25.774  -6.242  0.00  0.00     0.017 A 
HETATM    5  C   UNK N   1      29.852  26.845  -6.114  0.00  0.00     0.010 A 
HETATM    6  C   UNK N   1      29.602  27.417  -4.853  0.00  0.00    -0.040 A 
ENDROOT
BRANCH   6   7
HETATM    7  C   UNK N   1      28.622  28.539  -4.659  0.00  0.00     0.170 C 
BRANCH   7   8
HETATM    8  N   UNK N   1      27.868  28.403  -3.420  0.00  0.00    -0.311 N 
HETATM    9  H   UNK N   1      28.125  28.809  -2.520  0.00  0.00     0.172 HD
BRANCH   8  10
HETATM   10  S   UNK N   1      26.429  27.414  -3.733  0.00  0.00     0.259 S 
HETATM   11  O   UNK N   1      25.898  27.087  -2.329  0.00  0.00    -0.201 OA
HETATM   12  O   UNK N   1      25.343  28.377  -4.236  0.00  0.00    -0.201 OA
BRANCH  10  13
HETATM   13  C   UNK N   1      26.568  25.919  -4.718  0.00  0.00     0.080 A 
HETATM   14  C   UNK N   1      26.035  25.876  -6.011  0.00  0.00     0.046 A 
HETATM   15  C   UNK N   1      26.125  24.708  -6.787  0.00  0.00     0.072 A 
HETATM   16  C   UNK N   1      26.763  23.570  -6.239  0.00  0.00     0.082 A 
HETATM   17  C   UNK N   1      27.290  23.621  -4.946  0.00  0.00     0.039 A 
HETATM   18  C   UNK N   1      27.193  24.789  -4.188  0.00  0.00     0.028 A 
BRANCH  15  19
HETATM   19  C   UNK N   1      25.548  24.705  -8.156  0.00  0.00     0.179 C 
HETATM   20  O   UNK N   1      25.763  25.640  -8.911  0.00  0.00    -0.646 OA
BRANCH  19  21
HETATM   21  O   UNK N   1      24.785  23.680  -8.583  0.00  0.00    -0.773 OA
HETATM   22  H   UNK N   1      25.051  22.791  -8.450  0.00  0.00     0.167 HD
ENDBRANCH  19  21
ENDBRANCH  15  19
BRANCH  16  23
HETATM   23  O   UNK N   1      26.873  22.429  -6.943  0.00  0.00    -0.360 OA
HETATM   24  H   UNK N   1      27.402  22.388  -7.714  0.00  0.00     0.217 HD
ENDBRANCH  16  23
ENDBRANCH  10  13
ENDBRANCH   8  10
ENDBRANCH   7   8
ENDBRANCH   6   7
BRANCH   1  25
HETATM   25  C   UNK N   1      32.261  24.030  -5.142  0.00  0.00     0.252 C 
HETATM   26  N   UNK N   1      31.816  22.758  -4.917  0.00  0.00    -0.345 N 
HETATM   27  H   UNK N   1      32.520  22.103  -4.712  0.00  0.00     0.163 HD
HETATM   28  O   UNK N   1      33.452  24.175  -5.356  0.00  0.00    -0.268 OA
BRANCH  26  29
HETATM   29  C   UNK N   1      30.471  22.226  -4.932  0.00  0.00     0.164 C 
BRANCH  29  30
HETATM   30  C   UNK N   1      30.470  21.168  -6.019  0.00  0.00     0.146 C 
HETATM   31  C   UNK N   1      31.683  20.322  -6.222  0.00  0.00     0.093 C 
HETATM   32  O   UNK N   1      29.478  20.949  -6.695  0.00  0.00    -0.296 OA
ENDBRANCH  29  30
BRANCH  29  33
HETATM   33  C   UNK N   1      30.131  21.667  -3.538  0.00  0.00     0.143 C 
BRANCH  33  34
HETATM   34  C   UNK N   1      31.071  22.119  -2.450  0.00  0.00     0.141 C 
HETATM   35  O   UNK N   1      30.776  23.052  -1.721  0.00  0.00    -0.650 OA
BRANCH  34  36
HETATM   36  O   UNK N   1      32.222  21.456  -2.242  0.00  0.00    -0.776 OA
HETATM   37  H   UNK N   1      32.278  20.805  -1.569  0.00  0.00     0.167 HD
ENDBRANCH  34  36
ENDBRANCH  33  34
ENDBRANCH  29  33
ENDBRANCH  26  29
ENDBRANCH   1  25
TORSDOF 13
ENDMDL
MODEL 7
REMARK VINA RESULT:      -6.7      9.100     13.918
REMARK  13 active torsions:
REMARK  status: ('A' for Active; 'I' for Inactive)
REMARK    1  A    between atoms: C_2  and  C_4 
REMARK    2  A    between atoms: C_4  and  C_5 
REMARK    3  A    between atoms: C_4  and  N_9 
REMARK    4  A    between atoms: C_5  and  C_6 
REMARK    5  A    between atoms: C_6  and  O_7 
REMARK       I    between atoms: N_9  and  C_10 
REMARK    6  A    between atoms: C_10  and  C_12 
REMARK    7  A    between atoms: C_17  and  C_18 
REMARK    8  A    between atoms: C_18  and  N_19 
REMARK    9  A    between atoms: N_19  and  S_20 
REMARK   10  A    between atoms: S_20  and  C_23 
REMARK   11  A    between atoms: C_27  and  O_28 
REMARK   12  A    between atoms: C_29  and  C_30 
REMARK   13  A    between atoms: C_30  and  O_31 
ROOT
HETATM    1  C   UNK N   1      31.541  16.703   5.837  0.00  0.00     0.032 A 
HETATM    2  C   UNK N   1      31.308  16.114   7.092  0.00  0.00     0.017 A 
HETATM    3  C   UNK N   1      32.220  16.257   8.137  0.00  0.00     0.010 A 
HETATM    4  C   UNK N   1      32.715  17.449   5.654  0.00  0.00     0.017 A 
HETATM    5  C   UNK N   1      33.627  17.608   6.713  0.00  0.00     0.010 A 
HETATM    6  C   UNK N   1      33.373  17.019   7.964  0.00  0.00    -0.040 A 
ENDROOT
BRANCH   6   7
HETATM    7  C   UNK N   1      34.299  17.189   9.136  0.00  0.00     0.170 C 
BRANCH   7   8
HETATM    8  N   UNK N   1      34.012  16.243  10.206  0.00  0.00    -0.311 N 
HETATM    9  H   UNK N   1      33.104  16.106  10.651  0.00  0.00     0.172 HD
BRANCH   8  10
HETATM   10  S   UNK N   1      35.501  15.366  10.606  0.00  0.00     0.259 S 
HETATM   11  O   UNK N   1      35.898  14.697   9.282  0.00  0.00    -0.201 OA
HETATM   12  O   UNK N   1      36.606  16.426  10.737  0.00  0.00    -0.201 OA
BRANCH  10  13
HETATM   13  C   UNK N   1      35.502  14.168  11.943  0.00  0.00     0.080 A 
HETATM   14  C   UNK N   1      35.987  14.522  13.206  0.00  0.00     0.046 A 
HETATM   15  C   UNK N   1      36.005  13.589  14.257  0.00  0.00     0.072 A 
HETATM   16  C   UNK N   1      35.527  12.280  14.018  0.00  0.00     0.082 A 
HETATM   17  C   UNK N   1      35.047  11.933  12.752  0.00  0.00     0.039 A 
HETATM   18  C   UNK N   1      35.034  12.871  11.719  0.00  0.00     0.028 A 
BRANCH  15  19
HETATM   19  C   UNK N   1      36.526  14.008  15.584  0.00  0.00     0.179 C 
HETATM   20  O   UNK N   1      37.527  14.704  15.655  0.00  0.00    -0.646 OA
BRANCH  19  21
HETATM   21  O   UNK N   1      35.909  13.629  16.720  0.00  0.00    -0.773 OA
HETATM   22  H   UNK N   1      36.072  12.788  17.102  0.00  0.00     0.167 HD
ENDBRANCH  19  21
ENDBRANCH  15  19
BRANCH  16  23
HETATM   23  O   UNK N   1      35.525  11.351  14.992  0.00  0.00    -0.360 OA
HETATM   24  H   UNK N   1      35.183  10.493  14.837  0.00  0.00     0.217 HD
ENDBRANCH  16  23
ENDBRANCH  10  13
ENDBRANCH   8  10
ENDBRANCH   7   8
ENDBRANCH   6   7
BRANCH   1  25
HETATM   25  C   UNK N   1      30.451  16.617   4.814  0.00  0.00     0.252 C 
HETATM   26  N   UNK N   1      29.208  17.170   4.936  0.00  0.00    -0.345 N 
HETATM   27  H   UNK N   1      28.532  16.812   4.317  0.00  0.00     0.163 HD
HETATM   28  O   UNK N   1      30.681  15.979   3.802  0.00  0.00    -0.268 OA
BRANCH  26  29
HETATM   29  C   UNK N   1      28.730  18.198   5.835  0.00  0.00     0.164 C 
BRANCH  29  30
HETATM   30  C   UNK N   1      27.813  19.068   4.998  0.00  0.00     0.146 C 
HETATM   31  C   UNK N   1      27.741  20.534   5.268  0.00  0.00     0.093 C 
HETATM   32  O   UNK N   1      27.175  18.608   4.064  0.00  0.00    -0.296 OA
ENDBRANCH  29  30
BRANCH  29  33
HETATM   33  C   UNK N   1      28.019  17.537   7.030  0.00  0.00     0.143 C 
BRANCH  33  34
HETATM   34  C   UNK N   1      28.313  18.189   8.357  0.00  0.00     0.141 C 
HETATM   35  O   UNK N   1      29.273  18.933   8.485  0.00  0.00    -0.650 OA
BRANCH  34  36
HETATM   36  O   UNK N   1      27.483  17.995   9.397  0.00  0.00    -0.776 OA
HETATM   37  H   UNK N   1      26.692  18.494   9.469  0.00  0.00     0.167 HD
ENDBRANCH  34  36
ENDBRANCH  33  34
ENDBRANCH  29  33
ENDBRANCH  26  29
ENDBRANCH   1  25
TORSDOF 13
ENDMDL
MODEL 8
REMARK VINA RESULT:      -6.7      4.232      9.452
REMARK  13 active torsions:
REMARK  status: ('A' for Active; 'I' for Inactive)
REMARK    1  A    between atoms: C_2  and  C_4 
REMARK    2  A    between atoms: C_4  and  C_5 
REMARK    3  A    between atoms: C_4  and  N_9 
REMARK    4  A    between atoms: C_5  and  C_6 
REMARK    5  A    between atoms: C_6  and  O_7 
REMARK       I    between atoms: N_9  and  C_10 
REMARK    6  A    between atoms: C_10  and  C_12 
REMARK    7  A    between atoms: C_17  and  C_18 
REMARK    8  A    between atoms: C_18  and  N_19 
REMARK    9  A    between atoms: N_19  and  S_20 
REMARK   10  A    between atoms: S_20  and  C_23 
REMARK   11  A    between atoms: C_27  and  O_28 
REMARK   12  A    between atoms: C_29  and  C_30 
REMARK   13  A    between atoms: C_30  and  O_31 
ROOT
HETATM    1  C   UNK N   1      25.741  20.228   4.100  0.00  0.00     0.032 A 
HETATM    2  C   UNK N   1      26.350  19.014   4.464  0.00  0.00     0.017 A 
HETATM    3  C   UNK N   1      27.147  18.919   5.605  0.00  0.00     0.010 A 
HETATM    4  C   UNK N   1      25.945  21.352   4.917  0.00  0.00     0.017 A 
HETATM    5  C   UNK N   1      26.735  21.253   6.076  0.00  0.00     0.010 A 
HETATM    6  C   UNK N   1      27.329  20.028   6.429  0.00  0.00    -0.040 A 
ENDROOT
BRANCH   6   7
HETATM    7  C   UNK N   1      28.151  19.863   7.676  0.00  0.00     0.170 C 
BRANCH   7   8
HETATM    8  N   UNK N   1      27.541  18.934   8.618  0.00  0.00    -0.311 N 
HETATM    9  H   UNK N   1      26.552  18.906   8.870  0.00  0.00     0.172 HD
BRANCH   8  10
HETATM   10  S   UNK N   1      28.799  17.861   9.258  0.00  0.00     0.259 S 
HETATM   11  O   UNK N   1      29.287  18.583  10.523  0.00  0.00    -0.201 OA
HETATM   12  O   UNK N   1      28.070  16.657   9.874  0.00  0.00    -0.201 OA
BRANCH  10  13
HETATM   13  C   UNK N   1      30.191  17.397   8.222  0.00  0.00     0.080 A 
HETATM   14  C   UNK N   1      31.491  17.759   8.587  0.00  0.00     0.046 A 
HETATM   15  C   UNK N   1      32.588  17.414   7.778  0.00  0.00     0.072 A 
HETATM   16  C   UNK N   1      32.357  16.693   6.584  0.00  0.00     0.082 A 
HETATM   17  C   UNK N   1      31.053  16.337   6.224  0.00  0.00     0.039 A 
HETATM   18  C   UNK N   1      29.975  16.687   7.039  0.00  0.00     0.028 A 
BRANCH  15  19
HETATM   19  C   UNK N   1      33.953  17.817   8.204  0.00  0.00     0.179 C 
HETATM   20  O   UNK N   1      34.713  18.341   7.405  0.00  0.00    -0.646 OA
BRANCH  19  21
HETATM   21  O   UNK N   1      34.372  17.612   9.468  0.00  0.00    -0.773 OA
HETATM   22  H   UNK N   1      34.160  18.217  10.152  0.00  0.00     0.167 HD
ENDBRANCH  19  21
ENDBRANCH  15  19
BRANCH  16  23
HETATM   23  O   UNK N   1      33.373  16.340   5.776  0.00  0.00    -0.360 OA
HETATM   24  H   UNK N   1      34.216  16.132   6.127  0.00  0.00     0.217 HD
ENDBRANCH  16  23
ENDBRANCH  10  13
ENDBRANCH   8  10
ENDBRANCH   7   8
ENDBRANCH   6   7
BRANCH   1  25
HETATM   25  C   UNK N   1      24.793  20.213   2.942  0.00  0.00     0.252 C 
HETATM   26  N   UNK N   1      23.602  19.545   2.905  0.00  0.00    -0.345 N 
HETATM   27  H   UNK N   1      23.227  19.415   2.005  0.00  0.00     0.163 HD
HETATM   28  O   UNK N   1      25.123  20.822   1.939  0.00  0.00    -0.268 OA
BRANCH  26  29
HETATM   29  C   UNK N   1      22.807  18.998   3.983  0.00  0.00     0.164 C 
BRANCH  29  30
HETATM   30  C   UNK N   1      21.381  19.415   3.680  0.00  0.00     0.146 C 
HETATM   31  C   UNK N   1      20.778  19.070   2.359  0.00  0.00     0.093 C 
HETATM   32  O   UNK N   1      20.689  19.975   4.516  0.00  0.00    -0.296 OA
ENDBRANCH  29  30
BRANCH  29  33
HETATM   33  C   UNK N   1      22.998  17.471   4.030  0.00  0.00     0.143 C 
BRANCH  33  34
HETATM   34  C   UNK N   1      22.203  16.786   5.113  0.00  0.00     0.141 C 
HETATM   35  O   UNK N   1      22.577  16.820   6.275  0.00  0.00    -0.650 OA
BRANCH  34  36
HETATM   36  O   UNK N   1      21.042  16.179   4.809  0.00  0.00    -0.776 OA
HETATM   37  H   UNK N   1      20.922  15.784   3.967  0.00  0.00     0.167 HD
ENDBRANCH  34  36
ENDBRANCH  33  34
ENDBRANCH  29  33
ENDBRANCH  26  29
ENDBRANCH   1  25
TORSDOF 13
ENDMDL
MODEL 9
REMARK VINA RESULT:      -6.7      1.881      2.577
REMARK  13 active torsions:
REMARK  status: ('A' for Active; 'I' for Inactive)
REMARK    1  A    between atoms: C_2  and  C_4 
REMARK    2  A    between atoms: C_4  and  C_5 
REMARK    3  A    between atoms: C_4  and  N_9 
REMARK    4  A    between atoms: C_5  and  C_6 
REMARK    5  A    between atoms: C_6  and  O_7 
REMARK       I    between atoms: N_9  and  C_10 
REMARK    6  A    between atoms: C_10  and  C_12 
REMARK    7  A    between atoms: C_17  and  C_18 
REMARK    8  A    between atoms: C_18  and  N_19 
REMARK    9  A    between atoms: N_19  and  S_20 
REMARK   10  A    between atoms: S_20  and  C_23 
REMARK   11  A    between atoms: C_27  and  O_28 
REMARK   12  A    between atoms: C_29  and  C_30 
REMARK   13  A    between atoms: C_30  and  O_31 
ROOT
HETATM    1  C   UNK N   1      26.634  16.920   5.057  0.00  0.00     0.032 A 
HETATM    2  C   UNK N   1      26.255  15.943   5.994  0.00  0.00     0.017 A 
HETATM    3  C   UNK N   1      24.958  15.429   6.017  0.00  0.00     0.010 A 
HETATM    4  C   UNK N   1      25.678  17.368   4.131  0.00  0.00     0.017 A 
HETATM    5  C   UNK N   1      24.376  16.838   4.142  0.00  0.00     0.010 A 
HETATM    6  C   UNK N   1      24.017  15.855   5.082  0.00  0.00    -0.040 A 
ENDROOT
BRANCH   6   7
HETATM    7  C   UNK N   1      22.650  15.232   5.111  0.00  0.00     0.170 C 
BRANCH   7   8
HETATM    8  N   UNK N   1      21.924  15.556   6.333  0.00  0.00    -0.311 N 
HETATM    9  H   UNK N   1      22.040  15.091   7.234  0.00  0.00     0.172 HD
BRANCH   8  10
HETATM   10  S   UNK N   1      20.807  16.892   5.996  0.00  0.00     0.259 S 
HETATM   11  O   UNK N   1      19.440  16.342   6.430  0.00  0.00    -0.201 OA
HETATM   12  O   UNK N   1      21.053  17.948   7.084  0.00  0.00    -0.201 OA
BRANCH  10  13
HETATM   13  C   UNK N   1      20.711  17.583   4.341  0.00  0.00     0.080 A 
HETATM   14  C   UNK N   1      21.241  18.849   4.076  0.00  0.00     0.046 A 
HETATM   15  C   UNK N   1      21.161  19.407   2.788  0.00  0.00     0.072 A 
HETATM   16  C   UNK N   1      20.531  18.667   1.760  0.00  0.00     0.082 A 
HETATM   17  C   UNK N   1      20.002  17.402   2.035  0.00  0.00     0.039 A 
HETATM   18  C   UNK N   1      20.090  16.862   3.318  0.00  0.00     0.028 A 
BRANCH  15  19
HETATM   19  C   UNK N   1      21.739  20.755   2.548  0.00  0.00     0.179 C 
HETATM   20  O   UNK N   1      22.872  21.008   2.923  0.00  0.00    -0.646 OA
BRANCH  19  21
HETATM   21  O   UNK N   1      21.027  21.710   1.919  0.00  0.00    -0.773 OA
HETATM   22  H   UNK N   1      20.890  22.550   2.313  0.00  0.00     0.167 HD
ENDBRANCH  19  21
ENDBRANCH  15  19
BRANCH  16  23
HETATM   23  O   UNK N   1      20.429  19.158   0.512  0.00  0.00    -0.360 OA
HETATM   24  H   UNK N   1      19.900  18.730  -0.132  0.00  0.00     0.217 HD
ENDBRANCH  16  23
ENDBRANCH  10  13
ENDBRANCH   8  10
ENDBRANCH   7   8
ENDBRANCH   6   7
BRANCH   1  25
HETATM   25  C   UNK N   1      28.077  17.318   5.010  0.00  0.00     0.252 C 
HETATM   26  N   UNK N   1      28.725  18.047   5.965  0.00  0.00    -0.345 N 
HETATM   27  H   UNK N   1      29.577  18.446   5.675  0.00  0.00     0.163 HD
HETATM   28  O   UNK N   1      28.717  16.989   4.027  0.00  0.00    -0.268 OA
BRANCH  26  29
HETATM   29  C   UNK N   1      28.355  18.327   7.336  0.00  0.00     0.164 C 
BRANCH  29  30
HETATM   30  C   UNK N   1      29.578  17.975   8.160  0.00  0.00     0.146 C 
HETATM   31  C   UNK N   1      29.696  18.490   9.557  0.00  0.00     0.093 C 
HETATM   32  O   UNK N   1      30.443  17.228   7.731  0.00  0.00    -0.296 OA
ENDBRANCH  29  30
BRANCH  29  33
HETATM   33  C   UNK N   1      27.942  19.805   7.458  0.00  0.00     0.143 C 
BRANCH  33  34
HETATM   34  C   UNK N   1      27.162  20.324   6.277  0.00  0.00     0.141 C 
HETATM   35  O   UNK N   1      27.736  20.842   5.332  0.00  0.00    -0.650 OA
BRANCH  34  36
HETATM   36  O   UNK N   1      25.827  20.168   6.236  0.00  0.00    -0.776 OA
HETATM   37  H   UNK N   1      25.314  20.648   5.615  0.00  0.00     0.167 HD
ENDBRANCH  34  36
ENDBRANCH  33  34
ENDBRANCH  29  33
ENDBRANCH  26  29
ENDBRANCH   1  25
TORSDOF 13
ENDMDL
