MODEL 1
REMARK VINA RESULT:      -6.2      0.000      0.000
REMARK  5 active torsions:
REMARK  status: ('A' for Active; 'I' for Inactive)
REMARK    1  A    between atoms: C_3  and  N_5 
REMARK    2  A    between atoms: N_5  and  C_6 
REMARK    3  A    between atoms: C_6  and  C_7 
REMARK    4  A    between atoms: C_7  and  S_8 
REMARK    5  A    between atoms: S_8  and  O_11 
ROOT
HETATM    1  N   UNK N   1      27.234  24.360  -3.214  0.00  0.00    -0.389 N 
HETATM    2  H   UNK N   1      26.798  23.847  -2.496  0.00  0.00     0.159 HD
ENDROOT
BRANCH   1   3
HETATM    3  C   UNK N   1      26.499  25.396  -3.851  0.00  0.00     0.027 A 
HETATM    4  C   UNK N   1      25.882  25.141  -5.080  0.00  0.00     0.029 A 
HETATM    5  C   UNK N   1      25.167  26.151  -5.733  0.00  0.00     0.002 A 
HETATM    6  C   UNK N   1      25.059  27.419  -5.153  0.00  0.00     0.000 A 
HETATM    7  C   UNK N   1      25.670  27.679  -3.924  0.00  0.00     0.002 A 
HETATM    8  C   UNK N   1      26.393  26.673  -3.279  0.00  0.00     0.029 A 
ENDBRANCH   1   3
BRANCH   1   9
HETATM    9  C   UNK N   1      28.594  24.026  -3.574  0.00  0.00     0.136 C 
BRANCH   9  10
HETATM   10  C   UNK N   1      29.194  23.001  -2.620  0.00  0.00     0.175 C 
BRANCH  10  11
HETATM   11  S   UNK N   1      30.969  22.826  -2.986  0.00  0.00     0.095 S 
HETATM   12  O   UNK N   1      31.780  21.825  -2.153  0.00  0.00    -0.601 OA
HETATM   13  O   UNK N   1      30.252  21.545  -3.440  0.00  0.00    -0.601 OA
BRANCH  11  14
HETATM   14  O   UNK N   1      30.453  23.111  -1.373  0.00  0.00    -0.296 OA
HETATM   15  H   UNK N   1      30.149  22.559  -0.636  0.00  0.00     0.232 HD
ENDBRANCH  11  14
ENDBRANCH  10  11
ENDBRANCH   9  10
ENDBRANCH   1   9
TORSDOF 5
ENDMDL
MODEL 2
REMARK VINA RESULT:      -5.6     19.387     21.704
REMARK  5 active torsions:
REMARK  status: ('A' for Active; 'I' for Inactive)
REMARK    1  A    between atoms: C_3  and  N_5 
REMARK    2  A    between atoms: N_5  and  C_6 
REMARK    3  A    between atoms: C_6  and  C_7 
REMARK    4  A    between atoms: C_7  and  S_8 
REMARK    5  A    between atoms: S_8  and  O_11 
ROOT
HETATM    1  N   UNK N   1      36.820  13.876  12.992  0.00  0.00    -0.389 N 
HETATM    2  H   UNK N   1      37.746  14.190  12.873  0.00  0.00     0.159 HD
ENDROOT
BRANCH   1   3
HETATM    3  C   UNK N   1      36.320  13.723  14.313  0.00  0.00     0.027 A 
HETATM    4  C   UNK N   1      35.195  12.921  14.529  0.00  0.00     0.029 A 
HETATM    5  C   UNK N   1      34.675  12.769  15.819  0.00  0.00     0.002 A 
HETATM    6  C   UNK N   1      35.285  13.414  16.900  0.00  0.00     0.000 A 
HETATM    7  C   UNK N   1      36.410  14.215  16.691  0.00  0.00     0.002 A 
HETATM    8  C   UNK N   1      36.922  14.374  15.400  0.00  0.00     0.029 A 
ENDBRANCH   1   3
BRANCH   1   9
HETATM    9  C   UNK N   1      36.032  13.591  11.815  0.00  0.00     0.136 C 
BRANCH   9  10
HETATM   10  C   UNK N   1      36.280  14.610  10.709  0.00  0.00     0.175 C 
BRANCH  10  11
HETATM   11  S   UNK N   1      35.355  16.130  11.093  0.00  0.00     0.095 S 
HETATM   12  O   UNK N   1      35.586  17.358  10.202  0.00  0.00    -0.601 OA
HETATM   13  O   UNK N   1      34.805  15.546   9.783  0.00  0.00    -0.601 OA
BRANCH  11  14
HETATM   14  O   UNK N   1      37.060  16.194  10.905  0.00  0.00    -0.296 OA
HETATM   15  H   UNK N   1      37.825  16.122  11.498  0.00  0.00     0.232 HD
ENDBRANCH  11  14
ENDBRANCH  10  11
ENDBRANCH   9  10
ENDBRANCH   1   9
TORSDOF 5
ENDMDL
MODEL 3
REMARK VINA RESULT:      -5.4     14.380     15.315
REMARK  5 active torsions:
REMARK  status: ('A' for Active; 'I' for Inactive)
REMARK    1  A    between atoms: C_3  and  N_5 
REMARK    2  A    between atoms: N_5  and  C_6 
REMARK    3  A    between atoms: C_6  and  C_7 
REMARK    4  A    between atoms: C_7  and  S_8 
REMARK    5  A    between atoms: S_8  and  O_11 
ROOT
HETATM    1  N   UNK N   1      32.405  17.451   8.998  0.00  0.00    -0.389 N 
HETATM    2  H   UNK N   1      32.871  18.194   9.445  0.00  0.00     0.159 HD
ENDROOT
BRANCH   1   3
HETATM    3  C   UNK N   1      31.078  17.662   8.537  0.00  0.00     0.027 A 
HETATM    4  C   UNK N   1      30.666  17.064   7.341  0.00  0.00     0.029 A 
HETATM    5  C   UNK N   1      29.369  17.271   6.860  0.00  0.00     0.002 A 
HETATM    6  C   UNK N   1      28.476  18.071   7.578  0.00  0.00     0.000 A 
HETATM    7  C   UNK N   1      28.880  18.670   8.773  0.00  0.00     0.002 A 
HETATM    8  C   UNK N   1      30.179  18.470   9.248  0.00  0.00     0.029 A 
ENDBRANCH   1   3
BRANCH   1   9
HETATM    9  C   UNK N   1      33.102  16.194   8.841  0.00  0.00     0.136 C 
BRANCH   9  10
HETATM   10  C   UNK N   1      34.614  16.382   8.852  0.00  0.00     0.175 C 
BRANCH  10  11
HETATM   11  S   UNK N   1      35.214  16.209  10.562  0.00  0.00     0.095 S 
HETATM   12  O   UNK N   1      36.730  16.242  10.799  0.00  0.00    -0.601 OA
HETATM   13  O   UNK N   1      35.468  17.653  10.103  0.00  0.00    -0.601 OA
BRANCH  11  14
HETATM   14  O   UNK N   1      35.852  15.201   9.327  0.00  0.00    -0.296 OA
HETATM   15  H   UNK N   1      36.721  14.819   9.125  0.00  0.00     0.232 HD
ENDBRANCH  11  14
ENDBRANCH  10  11
ENDBRANCH   9  10
ENDBRANCH   1   9
TORSDOF 5
ENDMDL
MODEL 4
REMARK VINA RESULT:      -5.4     17.268     18.894
REMARK  5 active torsions:
REMARK  status: ('A' for Active; 'I' for Inactive)
REMARK    1  A    between atoms: C_3  and  N_5 
REMARK    2  A    between atoms: N_5  and  C_6 
REMARK    3  A    between atoms: C_6  and  C_7 
REMARK    4  A    between atoms: C_7  and  S_8 
REMARK    5  A    between atoms: S_8  and  O_11 
ROOT
HETATM    1  N   UNK N   1      21.270  13.159   8.734  0.00  0.00    -0.389 N 
HETATM    2  H   UNK N   1      20.557  12.513   8.525  0.00  0.00     0.159 HD
ENDROOT
BRANCH   1   3
HETATM    3  C   UNK N   1      22.274  12.783   9.666  0.00  0.00     0.027 A 
HETATM    4  C   UNK N   1      23.621  12.901   9.306  0.00  0.00     0.029 A 
HETATM    5  C   UNK N   1      24.626  12.521  10.203  0.00  0.00     0.002 A 
HETATM    6  C   UNK N   1      24.287  12.030  11.467  0.00  0.00     0.000 A 
HETATM    7  C   UNK N   1      22.944  11.912  11.834  0.00  0.00     0.002 A 
HETATM    8  C   UNK N   1      21.941  12.282  10.933  0.00  0.00     0.029 A 
ENDBRANCH   1   3
BRANCH   1   9
HETATM    9  C   UNK N   1      21.249  14.448   8.079  0.00  0.00     0.136 C 
BRANCH   9  10
HETATM   10  C   UNK N   1      20.684  15.532   8.988  0.00  0.00     0.175 C 
BRANCH  10  11
HETATM   11  S   UNK N   1      19.433  16.479   8.064  0.00  0.00     0.095 S 
HETATM   12  O   UNK N   1      18.402  17.285   8.867  0.00  0.00    -0.601 OA
HETATM   13  O   UNK N   1      20.405  17.472   8.720  0.00  0.00    -0.601 OA
BRANCH  11  14
HETATM   14  O   UNK N   1      18.942  15.404   9.309  0.00  0.00    -0.296 OA
HETATM   15  H   UNK N   1      19.357  14.676   9.798  0.00  0.00     0.232 HD
ENDBRANCH  11  14
ENDBRANCH  10  11
ENDBRANCH   9  10
ENDBRANCH   1   9
TORSDOF 5
ENDMDL
MODEL 5
REMARK VINA RESULT:      -5.4     17.312     18.912
REMARK  5 active torsions:
REMARK  status: ('A' for Active; 'I' for Inactive)
REMARK    1  A    between atoms: C_3  and  N_5 
REMARK    2  A    between atoms: N_5  and  C_6 
REMARK    3  A    between atoms: C_6  and  C_7 
REMARK    4  A    between atoms: C_7  and  S_8 
REMARK    5  A    between atoms: S_8  and  O_11 
ROOT
HETATM    1  N   UNK N   1      21.117  13.346   8.578  0.00  0.00    -0.389 N 
HETATM    2  H   UNK N   1      20.406  12.741   8.265  0.00  0.00     0.159 HD
ENDROOT
BRANCH   1   3
HETATM    3  C   UNK N   1      22.027  12.873   9.561  0.00  0.00     0.027 A 
HETATM    4  C   UNK N   1      21.533  12.422  10.790  0.00  0.00     0.029 A 
HETATM    5  C   UNK N   1      22.411  11.968  11.779  0.00  0.00     0.002 A 
HETATM    6  C   UNK N   1      23.788  11.954  11.539  0.00  0.00     0.000 A 
HETATM    7  C   UNK N   1      24.289  12.401  10.314  0.00  0.00     0.002 A 
HETATM    8  C   UNK N   1      23.411  12.865   9.331  0.00  0.00     0.029 A 
ENDBRANCH   1   3
BRANCH   1   9
HETATM    9  C   UNK N   1      21.189  14.676   8.016  0.00  0.00     0.136 C 
BRANCH   9  10
HETATM   10  C   UNK N   1      20.607  15.719   8.963  0.00  0.00     0.175 C 
BRANCH  10  11
HETATM   11  S   UNK N   1      19.287  16.626   8.097  0.00  0.00     0.095 S 
HETATM   12  O   UNK N   1      18.253  17.377   8.947  0.00  0.00    -0.601 OA
HETATM   13  O   UNK N   1      20.240  17.649   8.734  0.00  0.00    -0.601 OA
BRANCH  11  14
HETATM   14  O   UNK N   1      18.884  15.515   9.342  0.00  0.00    -0.296 OA
HETATM   15  H   UNK N   1      19.183  14.629   9.603  0.00  0.00     0.232 HD
ENDBRANCH  11  14
ENDBRANCH  10  11
ENDBRANCH   9  10
ENDBRANCH   1   9
TORSDOF 5
ENDMDL
MODEL 6
REMARK VINA RESULT:      -5.4     21.982     24.298
REMARK  5 active torsions:
REMARK  status: ('A' for Active; 'I' for Inactive)
REMARK    1  A    between atoms: C_3  and  N_5 
REMARK    2  A    between atoms: N_5  and  C_6 
REMARK    3  A    between atoms: C_6  and  C_7 
REMARK    4  A    between atoms: C_7  and  S_8 
REMARK    5  A    between atoms: S_8  and  O_11 
ROOT
HETATM    1  N   UNK N   1      35.293  13.417  15.833  0.00  0.00    -0.389 N 
HETATM    2  H   UNK N   1      34.413  13.646  15.457  0.00  0.00     0.159 HD
ENDROOT
BRANCH   1   3
HETATM    3  C   UNK N   1      35.342  12.734  17.078  0.00  0.00     0.027 A 
HETATM    4  C   UNK N   1      35.151  13.454  18.262  0.00  0.00     0.029 A 
HETATM    5  C   UNK N   1      35.212  12.805  19.499  0.00  0.00     0.002 A 
HETATM    6  C   UNK N   1      35.455  11.430  19.557  0.00  0.00     0.000 A 
HETATM    7  C   UNK N   1      35.645  10.704  18.379  0.00  0.00     0.002 A 
HETATM    8  C   UNK N   1      35.595  11.355  17.144  0.00  0.00     0.029 A 
ENDBRANCH   1   3
BRANCH   1   9
HETATM    9  C   UNK N   1      36.478  13.792  15.095  0.00  0.00     0.136 C 
BRANCH   9  10
HETATM   10  C   UNK N   1      36.443  13.263  13.667  0.00  0.00     0.175 C 
BRANCH  10  11
HETATM   11  S   UNK N   1      35.950  14.616  12.552  0.00  0.00     0.095 S 
HETATM   12  O   UNK N   1      35.756  14.289  11.065  0.00  0.00    -0.601 OA
HETATM   13  O   UNK N   1      34.762  13.653  12.701  0.00  0.00    -0.601 OA
BRANCH  11  14
HETATM   14  O   UNK N   1      37.306  13.637  12.160  0.00  0.00    -0.296 OA
HETATM   15  H   UNK N   1      37.493  12.685  12.151  0.00  0.00     0.232 HD
ENDBRANCH  11  14
ENDBRANCH  10  11
ENDBRANCH   9  10
ENDBRANCH   1   9
TORSDOF 5
ENDMDL
MODEL 7
REMARK VINA RESULT:      -5.4     14.570     15.943
REMARK  5 active torsions:
REMARK  status: ('A' for Active; 'I' for Inactive)
REMARK    1  A    between atoms: C_3  and  N_5 
REMARK    2  A    between atoms: N_5  and  C_6 
REMARK    3  A    between atoms: C_6  and  C_7 
REMARK    4  A    between atoms: C_7  and  S_8 
REMARK    5  A    between atoms: S_8  and  O_11 
ROOT
HETATM    1  N   UNK N   1      33.259  17.287   9.017  0.00  0.00    -0.389 N 
HETATM    2  H   UNK N   1      32.661  17.648   9.710  0.00  0.00     0.159 HD
ENDROOT
BRANCH   1   3
HETATM    3  C   UNK N   1      32.813  17.286   7.668  0.00  0.00     0.027 A 
HETATM    4  C   UNK N   1      33.742  17.479   6.640  0.00  0.00     0.029 A 
HETATM    5  C   UNK N   1      33.321  17.499   5.306  0.00  0.00     0.002 A 
HETATM    6  C   UNK N   1      31.971  17.317   4.994  0.00  0.00     0.000 A 
HETATM    7  C   UNK N   1      31.039  17.121   6.016  0.00  0.00     0.002 A 
HETATM    8  C   UNK N   1      31.458  17.112   7.349  0.00  0.00     0.029 A 
ENDBRANCH   1   3
BRANCH   1   9
HETATM    9  C   UNK N   1      34.552  16.779   9.417  0.00  0.00     0.136 C 
BRANCH   9  10
HETATM   10  C   UNK N   1      34.476  15.320   9.850  0.00  0.00     0.175 C 
BRANCH  10  11
HETATM   11  S   UNK N   1      35.055  15.187  11.571  0.00  0.00     0.095 S 
HETATM   12  O   UNK N   1      34.676  13.928  12.363  0.00  0.00    -0.601 OA
HETATM   13  O   UNK N   1      35.823  14.164  10.720  0.00  0.00    -0.601 OA
BRANCH  11  14
HETATM   14  O   UNK N   1      33.393  14.951  11.209  0.00  0.00    -0.296 OA
HETATM   15  H   UNK N   1      32.859  14.919  10.400  0.00  0.00     0.232 HD
ENDBRANCH  11  14
ENDBRANCH  10  11
ENDBRANCH   9  10
ENDBRANCH   1   9
TORSDOF 5
ENDMDL
MODEL 8
REMARK VINA RESULT:      -5.3     13.004     14.227
REMARK  5 active torsions:
REMARK  status: ('A' for Active; 'I' for Inactive)
REMARK    1  A    between atoms: C_3  and  N_5 
REMARK    2  A    between atoms: N_5  and  C_6 
REMARK    3  A    between atoms: C_6  and  C_7 
REMARK    4  A    between atoms: C_7  and  S_8 
REMARK    5  A    between atoms: S_8  and  O_11 
ROOT
HETATM    1  N   UNK N   1      31.678  16.376   7.472  0.00  0.00    -0.389 N 
HETATM    2  H   UNK N   1      31.834  16.023   6.566  0.00  0.00     0.159 HD
ENDROOT
BRANCH   1   3
HETATM    3  C   UNK N   1      30.523  17.170   7.703  0.00  0.00     0.027 A 
HETATM    4  C   UNK N   1      29.626  17.394   6.653  0.00  0.00     0.029 A 
HETATM    5  C   UNK N   1      28.491  18.187   6.853  0.00  0.00     0.002 A 
HETATM    6  C   UNK N   1      28.244  18.752   8.108  0.00  0.00     0.000 A 
HETATM    7  C   UNK N   1      29.135  18.531   9.161  0.00  0.00     0.002 A 
HETATM    8  C   UNK N   1      30.274  17.748   8.957  0.00  0.00     0.029 A 
ENDBRANCH   1   3
BRANCH   1   9
HETATM    9  C   UNK N   1      32.637  16.063   8.508  0.00  0.00     0.136 C 
BRANCH   9  10
HETATM   10  C   UNK N   1      34.021  16.607   8.179  0.00  0.00     0.175 C 
BRANCH  10  11
HETATM   11  S   UNK N   1      33.983  18.423   8.305  0.00  0.00     0.095 S 
HETATM   12  O   UNK N   1      35.323  19.166   8.395  0.00  0.00    -0.601 OA
HETATM   13  O   UNK N   1      34.528  18.045   6.919  0.00  0.00    -0.601 OA
BRANCH  11  14
HETATM   14  O   UNK N   1      34.893  17.507   9.437  0.00  0.00    -0.296 OA
HETATM   15  H   UNK N   1      34.957  16.569   9.677  0.00  0.00     0.232 HD
ENDBRANCH  11  14
ENDBRANCH  10  11
ENDBRANCH   9  10
ENDBRANCH   1   9
TORSDOF 5
ENDMDL
MODEL 9
REMARK VINA RESULT:      -5.3     18.963     21.360
REMARK  5 active torsions:
REMARK  status: ('A' for Active; 'I' for Inactive)
REMARK    1  A    between atoms: C_3  and  N_5 
REMARK    2  A    between atoms: N_5  and  C_6 
REMARK    3  A    between atoms: C_6  and  C_7 
REMARK    4  A    between atoms: C_7  and  S_8 
REMARK    5  A    between atoms: S_8  and  O_11 
ROOT
HETATM    1  N   UNK N   1      36.308  13.062  12.108  0.00  0.00    -0.389 N 
HETATM    2  H   UNK N   1      37.238  12.815  11.898  0.00  0.00     0.159 HD
ENDROOT
BRANCH   1   3
HETATM    3  C   UNK N   1      35.870  12.973  13.457  0.00  0.00     0.027 A 
HETATM    4  C   UNK N   1      36.535  13.711  14.442  0.00  0.00     0.029 A 
HETATM    5  C   UNK N   1      36.132  13.625  15.779  0.00  0.00     0.002 A 
HETATM    6  C   UNK N   1      35.055  12.808  16.135  0.00  0.00     0.000 A 
HETATM    7  C   UNK N   1      34.385  12.070  15.156  0.00  0.00     0.002 A 
HETATM    8  C   UNK N   1      34.796  12.148  13.822  0.00  0.00     0.029 A 
ENDBRANCH   1   3
BRANCH   1   9
HETATM    9  C   UNK N   1      35.449  13.498  11.031  0.00  0.00     0.136 C 
BRANCH   9  10
HETATM   10  C   UNK N   1      36.042  14.686  10.283  0.00  0.00     0.175 C 
BRANCH  10  11
HETATM   11  S   UNK N   1      35.220  16.208  10.853  0.00  0.00     0.095 S 
HETATM   12  O   UNK N   1      35.720  17.548  10.297  0.00  0.00    -0.601 OA
HETATM   13  O   UNK N   1      34.848  15.978   9.380  0.00  0.00    -0.601 OA
BRANCH  11  14
HETATM   14  O   UNK N   1      36.930  16.080  10.935  0.00  0.00    -0.296 OA
HETATM   15  H   UNK N   1      37.674  16.382  10.389  0.00  0.00     0.232 HD
ENDBRANCH  11  14
ENDBRANCH  10  11
ENDBRANCH   9  10
ENDBRANCH   1   9
TORSDOF 5
ENDMDL
