MODEL 1
REMARK VINA RESULT:      -7.5      0.000      0.000
REMARK  7 active torsions:
REMARK  status: ('A' for Active; 'I' for Inactive)
REMARK    1  A    between atoms: C_7  and  S_8 
REMARK    2  A    between atoms: S_8  and  C_11 
REMARK    3  A    between atoms: C_11  and  C_12 
REMARK    4  A    between atoms: C_12  and  O_13 
REMARK    5  A    between atoms: C_12  and  C_15 
REMARK       I    between atoms: C_15  and  N_17 
REMARK    6  A    between atoms: N_17  and  C_18 
REMARK    7  A    between atoms: C_25  and  C_26 
ROOT
HETATM    1  C   UNK N   1      34.068  14.528   9.504  0.00  0.00     0.035 A 
HETATM    2  C   UNK N   1      32.945  15.333   9.431  0.00  0.00     0.047 A 
HETATM    3  C   UNK N   1      35.113  14.696   8.607  0.00  0.00     0.031 A 
HETATM    4  C   UNK N   1      34.977  15.631   7.586  0.00  0.00     0.026 A 
HETATM    5  C   UNK N   1      33.804  16.399   7.482  0.00  0.00     0.059 A 
HETATM    6  C   UNK N   1      33.637  17.189   6.308  0.00  0.00     0.100 C 
HETATM    7  N   UNK N   1      33.538  17.818   5.345  0.00  0.00    -0.191 NA
HETATM    8  C   UNK N   1      32.772  16.262   8.441  0.00  0.00     0.070 A 
ENDROOT
BRANCH   8   9
HETATM    9  C   UNK N   1      31.410  16.921   8.362  0.00  0.00     0.419 C 
HETATM   10  F   UNK N   1      30.756  16.688   7.165  0.00  0.00    -0.166 F 
HETATM   11  F   UNK N   1      30.643  16.467   9.411  0.00  0.00    -0.166 F 
HETATM   12  F   UNK N   1      31.538  18.297   8.510  0.00  0.00    -0.166 F 
ENDBRANCH   8   9
BRANCH   1  13
HETATM   13  N   UNK N   1      34.222  13.657  10.583  0.00  0.00    -0.325 N 
HETATM   14  C   UNK N   1      34.928  13.976  11.691  0.00  0.00     0.257 C 
HETATM   15  O   UNK N   1      35.138  15.146  12.008  0.00  0.00    -0.270 OA
HETATM   16  H   UNK N   1      33.796  12.771  10.536  0.00  0.00     0.169 HD
BRANCH  14  17
HETATM   17  C   UNK N   1      35.867  12.934  12.128  0.00  0.00     0.148 C 
HETATM   18  C   UNK N   1      37.173  13.284  11.439  0.00  0.00     0.057 C 
BRANCH  17  19
HETATM   19  C   UNK N   1      36.149  12.908  13.638  0.00  0.00     0.193 C 
BRANCH  19  20
HETATM   20  S   UNK N   1      35.623  11.513  14.758  0.00  0.00     0.178 S 
HETATM   21  O   UNK N   1      36.747  10.945  13.884  0.00  0.00    -0.222 OA
HETATM   22  O   UNK N   1      34.354  11.493  13.905  0.00  0.00    -0.222 OA
BRANCH  20  23
HETATM   23  C   UNK N   1      35.755  13.045  15.681  0.00  0.00     0.059 A 
HETATM   24  C   UNK N   1      36.778  13.943  15.360  0.00  0.00     0.026 A 
HETATM   25  C   UNK N   1      37.084  14.991  16.227  0.00  0.00     0.044 A 
HETATM   26  C   UNK N   1      36.389  15.129  17.430  0.00  0.00     0.116 A 
HETATM   27  F   UNK N   1      36.730  16.112  18.291  0.00  0.00    -0.206 F 
HETATM   28  C   UNK N   1      35.361  14.241  17.757  0.00  0.00     0.044 A 
HETATM   29  C   UNK N   1      35.053  13.190  16.895  0.00  0.00     0.026 A 
ENDBRANCH  20  23
ENDBRANCH  19  20
ENDBRANCH  17  19
BRANCH  17  30
HETATM   30  O   UNK N   1      35.444  11.692  11.644  0.00  0.00    -0.380 OA
HETATM   31  H   UNK N   1      34.497  11.501  11.560  0.00  0.00     0.211 HD
ENDBRANCH  17  30
ENDBRANCH  14  17
ENDBRANCH   1  13
TORSDOF 7
ENDMDL
MODEL 2
REMARK VINA RESULT:      -7.4     21.373     23.850
REMARK  7 active torsions:
REMARK  status: ('A' for Active; 'I' for Inactive)
REMARK    1  A    between atoms: C_7  and  S_8 
REMARK    2  A    between atoms: S_8  and  C_11 
REMARK    3  A    between atoms: C_11  and  C_12 
REMARK    4  A    between atoms: C_12  and  O_13 
REMARK    5  A    between atoms: C_12  and  C_15 
REMARK       I    between atoms: C_15  and  N_17 
REMARK    6  A    between atoms: N_17  and  C_18 
REMARK    7  A    between atoms: C_25  and  C_26 
ROOT
HETATM    1  C   UNK N   1      27.393  26.712  -8.394  0.00  0.00     0.035 A 
HETATM    2  C   UNK N   1      26.497  26.394  -7.387  0.00  0.00     0.047 A 
HETATM    3  C   UNK N   1      28.244  27.801  -8.258  0.00  0.00     0.031 A 
HETATM    4  C   UNK N   1      28.124  28.610  -7.133  0.00  0.00     0.026 A 
HETATM    5  C   UNK N   1      27.166  28.314  -6.147  0.00  0.00     0.059 A 
HETATM    6  C   UNK N   1      26.952  29.284  -5.126  0.00  0.00     0.100 C 
HETATM    7  N   UNK N   1      26.808  30.091  -4.313  0.00  0.00    -0.191 NA
HETATM    8  C   UNK N   1      26.347  27.165  -6.268  0.00  0.00     0.070 A 
ENDROOT
BRANCH   8   9
HETATM    9  C   UNK N   1      25.190  26.816  -5.355  0.00  0.00     0.419 C 
HETATM   10  F   UNK N   1      25.469  27.014  -4.014  0.00  0.00    -0.166 F 
HETATM   11  F   UNK N   1      24.100  27.573  -5.722  0.00  0.00    -0.166 F 
HETATM   12  F   UNK N   1      24.840  25.481  -5.519  0.00  0.00    -0.166 F 
ENDBRANCH   8   9
BRANCH   1  13
HETATM   13  N   UNK N   1      27.557  25.842  -9.471  0.00  0.00    -0.325 N 
HETATM   14  C   UNK N   1      26.573  25.580 -10.361  0.00  0.00     0.257 C 
HETATM   15  O   UNK N   1      25.635  26.356 -10.532  0.00  0.00    -0.270 OA
HETATM   16  H   UNK N   1      28.429  25.400  -9.590  0.00  0.00     0.169 HD
BRANCH  14  17
HETATM   17  C   UNK N   1      26.386  24.152 -10.649  0.00  0.00     0.148 C 
HETATM   18  C   UNK N   1      27.332  23.869 -11.802  0.00  0.00     0.057 C 
BRANCH  17  19
HETATM   19  C   UNK N   1      26.776  23.204  -9.505  0.00  0.00     0.193 C 
BRANCH  19  20
HETATM   20  S   UNK N   1      25.533  22.252  -8.491  0.00  0.00     0.178 S 
HETATM   21  O   UNK N   1      25.467  21.653  -9.901  0.00  0.00    -0.222 OA
HETATM   22  O   UNK N   1      24.721  23.547  -8.528  0.00  0.00    -0.222 OA
BRANCH  20  23
HETATM   23  C   UNK N   1      27.057  22.473  -7.572  0.00  0.00     0.059 A 
HETATM   24  C   UNK N   1      28.118  21.588  -7.796  0.00  0.00     0.026 A 
HETATM   25  C   UNK N   1      29.195  21.551  -6.912  0.00  0.00     0.044 A 
HETATM   26  C   UNK N   1      29.203  22.378  -5.786  0.00  0.00     0.116 A 
HETATM   27  F   UNK N   1      30.222  22.296  -4.903  0.00  0.00    -0.206 F 
HETATM   28  C   UNK N   1      28.153  23.270  -5.557  0.00  0.00     0.044 A 
HETATM   29  C   UNK N   1      27.073  23.308  -6.437  0.00  0.00     0.026 A 
ENDBRANCH  20  23
ENDBRANCH  19  20
ENDBRANCH  17  19
BRANCH  17  30
HETATM   30  O   UNK N   1      25.080  23.934 -11.100  0.00  0.00    -0.380 OA
HETATM   31  H   UNK N   1      24.355  24.488 -10.772  0.00  0.00     0.211 HD
ENDBRANCH  17  30
ENDBRANCH  14  17
ENDBRANCH   1  13
TORSDOF 7
ENDMDL
MODEL 3
REMARK VINA RESULT:      -7.4      6.086      8.701
REMARK  7 active torsions:
REMARK  status: ('A' for Active; 'I' for Inactive)
REMARK    1  A    between atoms: C_7  and  S_8 
REMARK    2  A    between atoms: S_8  and  C_11 
REMARK    3  A    between atoms: C_11  and  C_12 
REMARK    4  A    between atoms: C_12  and  O_13 
REMARK    5  A    between atoms: C_12  and  C_15 
REMARK       I    between atoms: C_15  and  N_17 
REMARK    6  A    between atoms: N_17  and  C_18 
REMARK    7  A    between atoms: C_25  and  C_26 
ROOT
HETATM    1  C   UNK N   1      30.548  17.239   8.521  0.00  0.00     0.035 A 
HETATM    2  C   UNK N   1      29.941  16.985   7.302  0.00  0.00     0.047 A 
HETATM    3  C   UNK N   1      30.079  18.256   9.340  0.00  0.00     0.031 A 
HETATM    4  C   UNK N   1      29.044  19.064   8.881  0.00  0.00     0.026 A 
HETATM    5  C   UNK N   1      28.479  18.838   7.614  0.00  0.00     0.059 A 
HETATM    6  C   UNK N   1      27.569  19.816   7.116  0.00  0.00     0.100 C 
HETATM    7  N   UNK N   1      26.835  20.627   6.748  0.00  0.00    -0.191 NA
HETATM    8  C   UNK N   1      28.924  17.759   6.814  0.00  0.00     0.070 A 
ENDROOT
BRANCH   8   9
HETATM    9  C   UNK N   1      28.499  17.496   5.384  0.00  0.00     0.419 C 
HETATM   10  F   UNK N   1      27.127  17.522   5.206  0.00  0.00    -0.166 F 
HETATM   11  F   UNK N   1      29.095  18.435   4.573  0.00  0.00    -0.166 F 
HETATM   12  F   UNK N   1      28.953  16.248   4.974  0.00  0.00    -0.166 F 
ENDBRANCH   8   9
BRANCH   1  13
HETATM   13  N   UNK N   1      31.524  16.365   8.999  0.00  0.00    -0.325 N 
HETATM   14  C   UNK N   1      32.839  16.507   8.718  0.00  0.00     0.257 C 
HETATM   15  O   UNK N   1      33.314  17.590   8.380  0.00  0.00    -0.270 OA
HETATM   16  H   UNK N   1      31.244  15.613   9.568  0.00  0.00     0.169 HD
BRANCH  14  17
HETATM   17  C   UNK N   1      33.500  15.267   8.288  0.00  0.00     0.148 C 
HETATM   18  C   UNK N   1      32.755  14.165   9.017  0.00  0.00     0.057 C 
BRANCH  17  19
HETATM   19  C   UNK N   1      33.395  14.964   6.786  0.00  0.00     0.193 C 
BRANCH  19  20
HETATM   20  S   UNK N   1      34.840  15.075   5.611  0.00  0.00     0.178 S 
HETATM   21  O   UNK N   1      34.993  13.732   6.336  0.00  0.00    -0.222 OA
HETATM   22  O   UNK N   1      35.356  16.150   6.569  0.00  0.00    -0.222 OA
BRANCH  20  23
HETATM   23  C   UNK N   1      33.329  15.604   4.802  0.00  0.00     0.059 A 
HETATM   24  C   UNK N   1      32.566  14.659   4.107  0.00  0.00     0.026 A 
HETATM   25  C   UNK N   1      31.558  15.077   3.240  0.00  0.00     0.044 A 
HETATM   26  C   UNK N   1      31.326  16.441   3.043  0.00  0.00     0.116 A 
HETATM   27  F   UNK N   1      30.386  16.839   2.159  0.00  0.00    -0.206 F 
HETATM   28  C   UNK N   1      32.077  17.392   3.738  0.00  0.00     0.044 A 
HETATM   29  C   UNK N   1      33.088  16.978   4.603  0.00  0.00     0.026 A 
ENDBRANCH  20  23
ENDBRANCH  19  20
ENDBRANCH  17  19
BRANCH  17  30
HETATM   30  O   UNK N   1      34.825  15.264   8.740  0.00  0.00    -0.380 OA
HETATM   31  H   UNK N   1      35.210  14.454   9.108  0.00  0.00     0.211 HD
ENDBRANCH  17  30
ENDBRANCH  14  17
ENDBRANCH   1  13
TORSDOF 7
ENDMDL
MODEL 4
REMARK VINA RESULT:      -7.3      8.391     13.092
REMARK  7 active torsions:
REMARK  status: ('A' for Active; 'I' for Inactive)
REMARK    1  A    between atoms: C_7  and  S_8 
REMARK    2  A    between atoms: S_8  and  C_11 
REMARK    3  A    between atoms: C_11  and  C_12 
REMARK    4  A    between atoms: C_12  and  O_13 
REMARK    5  A    between atoms: C_12  and  C_15 
REMARK       I    between atoms: C_15  and  N_17 
REMARK    6  A    between atoms: N_17  and  C_18 
REMARK    7  A    between atoms: C_25  and  C_26 
ROOT
HETATM    1  C   UNK N   1      28.528  17.484   5.603  0.00  0.00     0.035 A 
HETATM    2  C   UNK N   1      28.402  17.643   6.973  0.00  0.00     0.047 A 
HETATM    3  C   UNK N   1      29.755  17.154   5.045  0.00  0.00     0.031 A 
HETATM    4  C   UNK N   1      30.868  17.065   5.874  0.00  0.00     0.026 A 
HETATM    5  C   UNK N   1      30.740  17.291   7.256  0.00  0.00     0.059 A 
HETATM    6  C   UNK N   1      31.939  17.386   8.020  0.00  0.00     0.100 C 
HETATM    7  N   UNK N   1      32.931  17.454   8.606  0.00  0.00    -0.191 NA
HETATM    8  C   UNK N   1      29.472  17.566   7.822  0.00  0.00     0.070 A 
ENDROOT
BRANCH   8   9
HETATM    9  C   UNK N   1      29.225  17.965   9.262  0.00  0.00     0.419 C 
HETATM   10  F   UNK N   1      29.538  16.969  10.170  0.00  0.00    -0.166 F 
HETATM   11  F   UNK N   1      29.962  19.095   9.534  0.00  0.00    -0.166 F 
HETATM   12  F   UNK N   1      27.886  18.292   9.442  0.00  0.00    -0.166 F 
ENDBRANCH   8   9
BRANCH   1  13
HETATM   13  N   UNK N   1      27.387  17.494   4.801  0.00  0.00    -0.325 N 
HETATM   14  C   UNK N   1      26.905  18.616   4.222  0.00  0.00     0.257 C 
HETATM   15  O   UNK N   1      27.619  19.596   4.021  0.00  0.00    -0.270 OA
HETATM   16  H   UNK N   1      26.913  16.644   4.648  0.00  0.00     0.169 HD
BRANCH  14  17
HETATM   17  C   UNK N   1      25.456  18.803   4.385  0.00  0.00     0.148 C 
HETATM   18  C   UNK N   1      25.132  20.022   3.543  0.00  0.00     0.057 C 
BRANCH  17  19
HETATM   19  C   UNK N   1      24.591  17.649   3.856  0.00  0.00     0.193 C 
BRANCH  19  20
HETATM   20  S   UNK N   1      23.662  16.470   4.964  0.00  0.00     0.178 S 
HETATM   21  O   UNK N   1      23.138  17.868   5.311  0.00  0.00    -0.222 OA
HETATM   22  O   UNK N   1      25.002  16.313   5.685  0.00  0.00    -0.222 OA
BRANCH  20  23
HETATM   23  C   UNK N   1      23.751  15.825   3.292  0.00  0.00     0.059 A 
HETATM   24  C   UNK N   1      22.576  15.387   2.672  0.00  0.00     0.026 A 
HETATM   25  C   UNK N   1      22.644  14.627   1.505  0.00  0.00     0.044 A 
HETATM   26  C   UNK N   1      23.886  14.279   0.970  0.00  0.00     0.116 A 
HETATM   27  F   UNK N   1      23.945  13.494  -0.129  0.00  0.00    -0.206 F 
HETATM   28  C   UNK N   1      25.065  14.717   1.577  0.00  0.00     0.044 A 
HETATM   29  C   UNK N   1      25.002  15.474   2.745  0.00  0.00     0.026 A 
ENDBRANCH  20  23
ENDBRANCH  19  20
ENDBRANCH  17  19
BRANCH  17  30
HETATM   30  O   UNK N   1      25.173  19.113   5.719  0.00  0.00    -0.380 OA
HETATM   31  H   UNK N   1      24.594  18.534   6.239  0.00  0.00     0.211 HD
ENDBRANCH  17  30
ENDBRANCH  14  17
ENDBRANCH   1  13
TORSDOF 7
ENDMDL
MODEL 5
REMARK VINA RESULT:      -7.3      3.778      8.493
REMARK  7 active torsions:
REMARK  status: ('A' for Active; 'I' for Inactive)
REMARK    1  A    between atoms: C_7  and  S_8 
REMARK    2  A    between atoms: S_8  and  C_11 
REMARK    3  A    between atoms: C_11  and  C_12 
REMARK    4  A    between atoms: C_12  and  O_13 
REMARK    5  A    between atoms: C_12  and  C_15 
REMARK       I    between atoms: C_15  and  N_17 
REMARK    6  A    between atoms: N_17  and  C_18 
REMARK    7  A    between atoms: C_25  and  C_26 
ROOT
HETATM    1  C   UNK N   1      35.492  13.840  12.415  0.00  0.00     0.035 A 
HETATM    2  C   UNK N   1      34.905  12.593  12.548  0.00  0.00     0.047 A 
HETATM    3  C   UNK N   1      36.183  14.408  13.476  0.00  0.00     0.031 A 
HETATM    4  C   UNK N   1      36.207  13.740  14.696  0.00  0.00     0.026 A 
HETATM    5  C   UNK N   1      35.552  12.504  14.838  0.00  0.00     0.059 A 
HETATM    6  C   UNK N   1      35.438  11.968  16.153  0.00  0.00     0.100 C 
HETATM    7  N   UNK N   1      35.367  11.564  17.233  0.00  0.00    -0.191 NA
HETATM    8  C   UNK N   1      34.904  11.906  13.731  0.00  0.00     0.070 A 
ENDROOT
BRANCH   8   9
HETATM    9  C   UNK N   1      34.048  10.657  13.788  0.00  0.00     0.419 C 
HETATM   10  F   UNK N   1      34.759   9.520  14.131  0.00  0.00    -0.166 F 
HETATM   11  F   UNK N   1      33.032  10.865  14.692  0.00  0.00    -0.166 F 
HETATM   12  F   UNK N   1      33.459  10.427  12.550  0.00  0.00    -0.166 F 
ENDBRANCH   8   9
BRANCH   1  13
HETATM   13  N   UNK N   1      35.530  14.453  11.163  0.00  0.00    -0.325 N 
HETATM   14  C   UNK N   1      34.416  14.800  10.479  0.00  0.00     0.257 C 
HETATM   15  O   UNK N   1      33.340  14.976  11.047  0.00  0.00    -0.270 OA
HETATM   16  H   UNK N   1      36.408  14.643  10.759  0.00  0.00     0.169 HD
BRANCH  14  17
HETATM   17  C   UNK N   1      34.427  14.398   9.066  0.00  0.00     0.148 C 
HETATM   18  C   UNK N   1      33.724  13.054   9.047  0.00  0.00     0.057 C 
BRANCH  17  19
HETATM   19  C   UNK N   1      33.647  15.326   8.123  0.00  0.00     0.193 C 
BRANCH  19  20
HETATM   20  S   UNK N   1      34.249  17.018   7.617  0.00  0.00     0.178 S 
HETATM   21  O   UNK N   1      35.031  16.022   6.754  0.00  0.00    -0.222 OA
HETATM   22  O   UNK N   1      34.925  17.034   8.989  0.00  0.00    -0.222 OA
BRANCH  20  23
HETATM   23  C   UNK N   1      32.462  17.008   7.780  0.00  0.00     0.059 A 
HETATM   24  C   UNK N   1      31.698  16.339   6.818  0.00  0.00     0.026 A 
HETATM   25  C   UNK N   1      30.322  16.547   6.750  0.00  0.00     0.044 A 
HETATM   26  C   UNK N   1      29.707  17.446   7.626  0.00  0.00     0.116 A 
HETATM   27  F   UNK N   1      28.383  17.685   7.517  0.00  0.00    -0.206 F 
HETATM   28  C   UNK N   1      30.460  18.113   8.595  0.00  0.00     0.044 A 
HETATM   29  C   UNK N   1      31.837  17.911   8.664  0.00  0.00     0.026 A 
ENDBRANCH  20  23
ENDBRANCH  19  20
ENDBRANCH  17  19
BRANCH  17  30
HETATM   30  O   UNK N   1      35.747  14.199   8.647  0.00  0.00    -0.380 OA
HETATM   31  H   UNK N   1      36.482  14.531   9.186  0.00  0.00     0.211 HD
ENDBRANCH  17  30
ENDBRANCH  14  17
ENDBRANCH   1  13
TORSDOF 7
ENDMDL
MODEL 6
REMARK VINA RESULT:      -7.3     18.272     21.661
REMARK  7 active torsions:
REMARK  status: ('A' for Active; 'I' for Inactive)
REMARK    1  A    between atoms: C_7  and  S_8 
REMARK    2  A    between atoms: S_8  and  C_11 
REMARK    3  A    between atoms: C_11  and  C_12 
REMARK    4  A    between atoms: C_12  and  O_13 
REMARK    5  A    between atoms: C_12  and  C_15 
REMARK       I    between atoms: C_15  and  N_17 
REMARK    6  A    between atoms: N_17  and  C_18 
REMARK    7  A    between atoms: C_25  and  C_26 
ROOT
HETATM    1  C   UNK N   1      29.719  21.221  -6.324  0.00  0.00     0.035 A 
HETATM    2  C   UNK N   1      29.433  22.096  -5.289  0.00  0.00     0.047 A 
HETATM    3  C   UNK N   1      30.734  20.283  -6.190  0.00  0.00     0.031 A 
HETATM    4  C   UNK N   1      31.507  20.291  -5.033  0.00  0.00     0.026 A 
HETATM    5  C   UNK N   1      31.249  21.227  -4.017  0.00  0.00     0.059 A 
HETATM    6  C   UNK N   1      32.193  21.321  -2.954  0.00  0.00     0.100 C 
HETATM    7  N   UNK N   1      32.979  21.367  -2.109  0.00  0.00    -0.191 NA
HETATM    8  C   UNK N   1      30.171  22.137  -4.138  0.00  0.00     0.070 A 
ENDROOT
BRANCH   8   9
HETATM    9  C   UNK N   1      29.878  23.279  -3.187  0.00  0.00     0.419 C 
HETATM   10  F   UNK N   1      30.937  24.158  -3.041  0.00  0.00    -0.166 F 
HETATM   11  F   UNK N   1      28.769  23.954  -3.643  0.00  0.00    -0.166 F 
HETATM   12  F   UNK N   1      29.569  22.781  -1.927  0.00  0.00    -0.166 F 
ENDBRANCH   8   9
BRANCH   1  13
HETATM   13  N   UNK N   1      28.880  21.171  -7.437  0.00  0.00    -0.325 N 
HETATM   14  C   UNK N   1      28.592  22.257  -8.189  0.00  0.00     0.257 C 
HETATM   15  O   UNK N   1      29.328  23.242  -8.209  0.00  0.00    -0.270 OA
HETATM   16  H   UNK N   1      28.481  20.307  -7.686  0.00  0.00     0.169 HD
BRANCH  14  17
HETATM   17  C   UNK N   1      27.163  22.421  -8.488  0.00  0.00     0.148 C 
HETATM   18  C   UNK N   1      26.533  21.105  -8.073  0.00  0.00     0.057 C 
BRANCH  17  19
HETATM   19  C   UNK N   1      26.458  23.528  -7.689  0.00  0.00     0.193 C 
BRANCH  19  20
HETATM   20  S   UNK N   1      25.550  24.950  -8.484  0.00  0.00     0.178 S 
HETATM   21  O   UNK N   1      24.757  23.691  -8.853  0.00  0.00    -0.222 OA
HETATM   22  O   UNK N   1      26.751  25.004  -9.431  0.00  0.00    -0.222 OA
BRANCH  20  23
HETATM   23  C   UNK N   1      26.032  25.370  -6.808  0.00  0.00     0.059 A 
HETATM   24  C   UNK N   1      25.830  24.431  -5.790  0.00  0.00     0.026 A 
HETATM   25  C   UNK N   1      25.923  24.819  -4.455  0.00  0.00     0.044 A 
HETATM   26  C   UNK N   1      26.190  26.152  -4.131  0.00  0.00     0.116 A 
HETATM   27  F   UNK N   1      26.221  26.531  -2.835  0.00  0.00    -0.206 F 
HETATM   28  C   UNK N   1      26.400  27.095  -5.139  0.00  0.00     0.044 A 
HETATM   29  C   UNK N   1      26.305  26.712  -6.476  0.00  0.00     0.026 A 
ENDBRANCH  20  23
ENDBRANCH  19  20
ENDBRANCH  17  19
BRANCH  17  30
HETATM   30  O   UNK N   1      26.988  22.567  -9.868  0.00  0.00    -0.380 OA
HETATM   31  H   UNK N   1      26.882  23.451 -10.253  0.00  0.00     0.211 HD
ENDBRANCH  17  30
ENDBRANCH  14  17
ENDBRANCH   1  13
TORSDOF 7
ENDMDL
MODEL 7
REMARK VINA RESULT:      -7.3      6.604      9.178
REMARK  7 active torsions:
REMARK  status: ('A' for Active; 'I' for Inactive)
REMARK    1  A    between atoms: C_7  and  S_8 
REMARK    2  A    between atoms: S_8  and  C_11 
REMARK    3  A    between atoms: C_11  and  C_12 
REMARK    4  A    between atoms: C_12  and  O_13 
REMARK    5  A    between atoms: C_12  and  C_15 
REMARK       I    between atoms: C_15  and  N_17 
REMARK    6  A    between atoms: N_17  and  C_18 
REMARK    7  A    between atoms: C_25  and  C_26 
ROOT
HETATM    1  C   UNK N   1      29.230  17.820   6.874  0.00  0.00     0.035 A 
HETATM    2  C   UNK N   1      28.492  18.939   7.223  0.00  0.00     0.047 A 
HETATM    3  C   UNK N   1      29.366  17.457   5.542  0.00  0.00     0.031 A 
HETATM    4  C   UNK N   1      28.686  18.187   4.574  0.00  0.00     0.026 A 
HETATM    5  C   UNK N   1      27.887  19.283   4.946  0.00  0.00     0.059 A 
HETATM    6  C   UNK N   1      27.059  19.863   3.943  0.00  0.00     0.100 C 
HETATM    7  N   UNK N   1      26.403  20.309   3.103  0.00  0.00    -0.191 NA
HETATM    8  C   UNK N   1      27.806  19.682   6.302  0.00  0.00     0.070 A 
ENDROOT
BRANCH   8   9
HETATM    9  C   UNK N   1      26.877  20.747   6.846  0.00  0.00     0.419 C 
HETATM   10  F   UNK N   1      26.737  20.701   8.222  0.00  0.00    -0.166 F 
HETATM   11  F   UNK N   1      27.356  21.980   6.465  0.00  0.00    -0.166 F 
HETATM   12  F   UNK N   1      25.612  20.606   6.290  0.00  0.00    -0.166 F 
ENDBRANCH   8   9
BRANCH   1  13
HETATM   13  N   UNK N   1      29.972  17.153   7.849  0.00  0.00    -0.325 N 
HETATM   14  C   UNK N   1      31.099  17.665   8.393  0.00  0.00     0.257 C 
HETATM   15  O   UNK N   1      31.331  18.872   8.382  0.00  0.00    -0.270 OA
HETATM   16  H   UNK N   1      29.660  16.271   8.155  0.00  0.00     0.169 HD
BRANCH  14  17
HETATM   17  C   UNK N   1      32.222  16.719   8.453  0.00  0.00     0.148 C 
HETATM   18  C   UNK N   1      31.642  15.480   9.110  0.00  0.00     0.057 C 
BRANCH  17  19
HETATM   19  C   UNK N   1      32.778  16.285   7.089  0.00  0.00     0.193 C 
BRANCH  19  20
HETATM   20  S   UNK N   1      34.569  16.468   6.603  0.00  0.00     0.178 S 
HETATM   21  O   UNK N   1      34.558  15.511   7.801  0.00  0.00    -0.222 OA
HETATM   22  O   UNK N   1      34.433  17.882   7.172  0.00  0.00    -0.222 OA
BRANCH  20  23
HETATM   23  C   UNK N   1      33.542  16.257   5.148  0.00  0.00     0.059 A 
HETATM   24  C   UNK N   1      33.199  17.383   4.392  0.00  0.00     0.026 A 
HETATM   25  C   UNK N   1      32.186  17.302   3.438  0.00  0.00     0.044 A 
HETATM   26  C   UNK N   1      31.492  16.103   3.256  0.00  0.00     0.116 A 
HETATM   27  F   UNK N   1      30.474  16.048   2.371  0.00  0.00    -0.206 F 
HETATM   28  C   UNK N   1      31.832  14.971   4.000  0.00  0.00     0.044 A 
HETATM   29  C   UNK N   1      32.842  15.049   4.957  0.00  0.00     0.026 A 
ENDBRANCH  20  23
ENDBRANCH  19  20
ENDBRANCH  17  19
BRANCH  17  30
HETATM   30  O   UNK N   1      33.216  17.228   9.296  0.00  0.00    -0.380 OA
HETATM   31  H   UNK N   1      32.991  17.894   9.964  0.00  0.00     0.211 HD
ENDBRANCH  17  30
ENDBRANCH  14  17
ENDBRANCH   1  13
TORSDOF 7
ENDMDL
MODEL 8
REMARK VINA RESULT:      -7.2     18.191     21.732
REMARK  7 active torsions:
REMARK  status: ('A' for Active; 'I' for Inactive)
REMARK    1  A    between atoms: C_7  and  S_8 
REMARK    2  A    between atoms: S_8  and  C_11 
REMARK    3  A    between atoms: C_11  and  C_12 
REMARK    4  A    between atoms: C_12  and  O_13 
REMARK    5  A    between atoms: C_12  and  C_15 
REMARK       I    between atoms: C_15  and  N_17 
REMARK    6  A    between atoms: N_17  and  C_18 
REMARK    7  A    between atoms: C_25  and  C_26 
ROOT
HETATM    1  C   UNK N   1      30.246  25.796  -4.695  0.00  0.00     0.035 A 
HETATM    2  C   UNK N   1      29.454  24.949  -3.937  0.00  0.00     0.047 A 
HETATM    3  C   UNK N   1      31.548  25.440  -5.015  0.00  0.00     0.031 A 
HETATM    4  C   UNK N   1      32.068  24.259  -4.495  0.00  0.00     0.026 A 
HETATM    5  C   UNK N   1      31.276  23.439  -3.673  0.00  0.00     0.059 A 
HETATM    6  C   UNK N   1      31.920  22.355  -3.009  0.00  0.00     0.100 C 
HETATM    7  N   UNK N   1      32.476  21.486  -2.490  0.00  0.00    -0.191 NA
HETATM    8  C   UNK N   1      29.929  23.782  -3.405  0.00  0.00     0.070 A 
ENDROOT
BRANCH   8   9
HETATM    9  C   UNK N   1      29.021  23.064  -2.429  0.00  0.00     0.419 C 
HETATM   10  F   UNK N   1      29.497  23.070  -1.129  0.00  0.00    -0.166 F 
HETATM   11  F   UNK N   1      27.778  23.654  -2.474  0.00  0.00    -0.166 F 
HETATM   12  F   UNK N   1      28.862  21.738  -2.812  0.00  0.00    -0.166 F 
ENDBRANCH   8   9
BRANCH   1  13
HETATM   13  N   UNK N   1      29.681  26.930  -5.277  0.00  0.00    -0.325 N 
HETATM   14  C   UNK N   1      29.433  28.065  -4.585  0.00  0.00     0.257 C 
HETATM   15  O   UNK N   1      30.029  28.329  -3.543  0.00  0.00    -0.270 OA
HETATM   16  H   UNK N   1      29.454  26.904  -6.234  0.00  0.00     0.169 HD
BRANCH  14  17
HETATM   17  C   UNK N   1      28.093  28.626  -4.808  0.00  0.00     0.148 C 
HETATM   18  C   UNK N   1      28.271  29.586  -5.970  0.00  0.00     0.057 C 
BRANCH  17  19
HETATM   19  C   UNK N   1      27.025  27.605  -5.228  0.00  0.00     0.193 C 
BRANCH  19  20
HETATM   20  S   UNK N   1      25.687  26.989  -4.084  0.00  0.00     0.178 S 
HETATM   21  O   UNK N   1      25.378  28.470  -4.327  0.00  0.00    -0.222 OA
HETATM   22  O   UNK N   1      26.800  26.939  -3.036  0.00  0.00    -0.222 OA
BRANCH  20  23
HETATM   23  C   UNK N   1      25.986  25.805  -5.398  0.00  0.00     0.059 A 
HETATM   24  C   UNK N   1      25.896  26.231  -6.728  0.00  0.00     0.026 A 
HETATM   25  C   UNK N   1      25.839  25.295  -7.759  0.00  0.00     0.044 A 
HETATM   26  C   UNK N   1      25.843  23.929  -7.464  0.00  0.00     0.116 A 
HETATM   27  F   UNK N   1      25.730  23.029  -8.465  0.00  0.00    -0.206 F 
HETATM   28  C   UNK N   1      25.941  23.493  -6.141  0.00  0.00     0.044 A 
HETATM   29  C   UNK N   1      25.995  24.426  -5.107  0.00  0.00     0.026 A 
ENDBRANCH  20  23
ENDBRANCH  19  20
ENDBRANCH  17  19
BRANCH  17  30
HETATM   30  O   UNK N   1      27.707  29.371  -3.689  0.00  0.00    -0.380 OA
HETATM   31  H   UNK N   1      27.327  30.256  -3.803  0.00  0.00     0.211 HD
ENDBRANCH  17  30
ENDBRANCH  14  17
ENDBRANCH   1  13
TORSDOF 7
ENDMDL
MODEL 9
REMARK VINA RESULT:      -7.2      7.305      9.422
REMARK  7 active torsions:
REMARK  status: ('A' for Active; 'I' for Inactive)
REMARK    1  A    between atoms: C_7  and  S_8 
REMARK    2  A    between atoms: S_8  and  C_11 
REMARK    3  A    between atoms: C_11  and  C_12 
REMARK    4  A    between atoms: C_12  and  O_13 
REMARK    5  A    between atoms: C_12  and  C_15 
REMARK       I    between atoms: C_15  and  N_17 
REMARK    6  A    between atoms: N_17  and  C_18 
REMARK    7  A    between atoms: C_25  and  C_26 
ROOT
HETATM    1  C   UNK N   1      28.569  17.116   3.465  0.00  0.00     0.035 A 
HETATM    2  C   UNK N   1      28.347  18.343   4.068  0.00  0.00     0.047 A 
HETATM    3  C   UNK N   1      27.501  16.315   3.089  0.00  0.00     0.031 A 
HETATM    4  C   UNK N   1      26.210  16.728   3.400  0.00  0.00     0.026 A 
HETATM    5  C   UNK N   1      25.999  17.945   4.071  0.00  0.00     0.059 A 
HETATM    6  C   UNK N   1      24.681  18.218   4.541  0.00  0.00     0.100 C 
HETATM    7  N   UNK N   1      23.602  18.405   4.904  0.00  0.00    -0.191 NA
HETATM    8  C   UNK N   1      27.093  18.783   4.394  0.00  0.00     0.070 A 
ENDROOT
BRANCH   8   9
HETATM    9  C   UNK N   1      27.014  20.041   5.234  0.00  0.00     0.419 C 
HETATM   10  F   UNK N   1      26.592  19.808   6.532  0.00  0.00    -0.166 F 
HETATM   11  F   UNK N   1      28.255  20.637   5.245  0.00  0.00    -0.166 F 
HETATM   12  F   UNK N   1      26.127  20.943   4.659  0.00  0.00    -0.166 F 
ENDBRANCH   8   9
BRANCH   1  13
HETATM   13  N   UNK N   1      29.863  16.760   3.085  0.00  0.00    -0.325 N 
HETATM   14  C   UNK N   1      30.496  15.667   3.566  0.00  0.00     0.257 C 
HETATM   15  O   UNK N   1      29.874  14.715   4.034  0.00  0.00    -0.270 OA
HETATM   16  H   UNK N   1      30.336  17.330   2.437  0.00  0.00     0.169 HD
BRANCH  14  17
HETATM   17  C   UNK N   1      31.873  15.915   4.013  0.00  0.00     0.148 C 
HETATM   18  C   UNK N   1      32.426  16.910   3.010  0.00  0.00     0.057 C 
BRANCH  17  19
HETATM   19  C   UNK N   1      31.996  16.561   5.401  0.00  0.00     0.193 C 
BRANCH  19  20
HETATM   20  S   UNK N   1      32.632  15.656   6.904  0.00  0.00     0.178 S 
HETATM   21  O   UNK N   1      33.870  15.996   6.066  0.00  0.00    -0.222 OA
HETATM   22  O   UNK N   1      31.992  14.425   6.259  0.00  0.00    -0.222 OA
BRANCH  20  23
HETATM   23  C   UNK N   1      31.386  16.858   7.374  0.00  0.00     0.059 A 
HETATM   24  C   UNK N   1      31.669  17.758   8.407  0.00  0.00     0.026 A 
HETATM   25  C   UNK N   1      30.642  18.503   8.985  0.00  0.00     0.044 A 
HETATM   26  C   UNK N   1      29.325  18.331   8.552  0.00  0.00     0.116 A 
HETATM   27  F   UNK N   1      28.328  19.014   9.155  0.00  0.00    -0.206 F 
HETATM   28  C   UNK N   1      29.033  17.441   7.516  0.00  0.00     0.044 A 
HETATM   29  C   UNK N   1      30.056  16.692   6.938  0.00  0.00     0.026 A 
ENDBRANCH  20  23
ENDBRANCH  19  20
ENDBRANCH  17  19
BRANCH  17  30
HETATM   30  O   UNK N   1      32.618  14.736   3.907  0.00  0.00    -0.380 OA
HETATM   31  H   UNK N   1      32.224  13.888   4.165  0.00  0.00     0.211 HD
ENDBRANCH  17  30
ENDBRANCH  14  17
ENDBRANCH   1  13
TORSDOF 7
ENDMDL
