MODEL 1
REMARK VINA RESULT:      -5.1      0.000      0.000
REMARK  4 active torsions:
REMARK  status: ('A' for Active; 'I' for Inactive)
REMARK    1  A    between atoms: O_1  and  C_2 
REMARK    2  A    between atoms: C_2  and  C_4 
REMARK    3  A    between atoms: C_5  and  O_6 
REMARK    4  A    between atoms: C_7  and  O_8 
ROOT
HETATM    1  C   UNK N   1      20.855  19.369   2.435  0.00  0.00     0.073 A 
HETATM    2  C   UNK N   1      19.814  18.449   2.707  0.00  0.00     0.115 A 
HETATM    3  C   UNK N   1      19.916  17.583   3.809  0.00  0.00     0.099 A 
HETATM    4  C   UNK N   1      21.041  17.628   4.634  0.00  0.00     0.039 A 
HETATM    5  C   UNK N   1      22.068  18.532   4.370  0.00  0.00     0.004 A 
HETATM    6  C   UNK N   1      21.976  19.396   3.277  0.00  0.00     0.021 A 
ENDROOT
BRANCH   1   7
HETATM    7  C   UNK N   1      20.804  20.310   1.284  0.00  0.00     0.179 C 
HETATM    8  O   UNK N   1      20.940  21.512   1.450  0.00  0.00    -0.646 OA
BRANCH   7   9
HETATM    9  O   UNK N   1      20.606  19.838   0.037  0.00  0.00    -0.773 OA
HETATM   10  H   UNK N   1      19.735  19.685  -0.274  0.00  0.00     0.167 HD
ENDBRANCH   7   9
ENDBRANCH   1   7
BRANCH   2  11
HETATM   11  O   UNK N   1      18.721  18.391   1.923  0.00  0.00    -0.357 OA
HETATM   12  H   UNK N   1      17.931  18.007   2.248  0.00  0.00     0.217 HD
ENDBRANCH   2  11
BRANCH   3  13
HETATM   13  O   UNK N   1      18.932  16.706   4.075  0.00  0.00    -0.358 OA
HETATM   14  H   UNK N   1      19.052  15.796   3.888  0.00  0.00     0.217 HD
ENDBRANCH   3  13
TORSDOF 4
ENDMDL
MODEL 2
REMARK VINA RESULT:      -5.1     14.474     15.772
REMARK  4 active torsions:
REMARK  status: ('A' for Active; 'I' for Inactive)
REMARK    1  A    between atoms: O_1  and  C_2 
REMARK    2  A    between atoms: C_2  and  C_4 
REMARK    3  A    between atoms: C_5  and  O_6 
REMARK    4  A    between atoms: C_7  and  O_8 
ROOT
HETATM    1  C   UNK N   1      33.891  15.915   9.093  0.00  0.00     0.073 A 
HETATM    2  C   UNK N   1      34.655  17.093   9.280  0.00  0.00     0.115 A 
HETATM    3  C   UNK N   1      34.581  18.131   8.336  0.00  0.00     0.099 A 
HETATM    4  C   UNK N   1      33.758  18.004   7.216  0.00  0.00     0.039 A 
HETATM    5  C   UNK N   1      33.004  16.845   7.028  0.00  0.00     0.004 A 
HETATM    6  C   UNK N   1      33.071  15.809   7.961  0.00  0.00     0.021 A 
ENDROOT
BRANCH   1   7
HETATM    7  C   UNK N   1      33.927  14.783  10.057  0.00  0.00     0.179 C 
HETATM    8  O   UNK N   1      34.314  13.678   9.713  0.00  0.00    -0.646 OA
BRANCH   7   9
HETATM    9  O   UNK N   1      33.528  14.971  11.331  0.00  0.00    -0.773 OA
HETATM   10  H   UNK N   1      33.771  14.356  11.995  0.00  0.00     0.167 HD
ENDBRANCH   7   9
ENDBRANCH   1   7
BRANCH   2  11
HETATM   11  O   UNK N   1      35.454  17.235  10.353  0.00  0.00    -0.357 OA
HETATM   12  H   UNK N   1      35.693  18.090  10.650  0.00  0.00     0.217 HD
ENDBRANCH   2  11
BRANCH   3  13
HETATM   13  O   UNK N   1      35.302  19.253   8.505  0.00  0.00    -0.358 OA
HETATM   14  H   UNK N   1      35.551  19.766   7.761  0.00  0.00     0.217 HD
ENDBRANCH   3  13
TORSDOF 4
ENDMDL
MODEL 3
REMARK VINA RESULT:      -5.1      9.387     10.886
REMARK  4 active torsions:
REMARK  status: ('A' for Active; 'I' for Inactive)
REMARK    1  A    between atoms: O_1  and  C_2 
REMARK    2  A    between atoms: C_2  and  C_4 
REMARK    3  A    between atoms: C_5  and  O_6 
REMARK    4  A    between atoms: C_7  and  O_8 
ROOT
HETATM    1  C   UNK N   1      23.738  12.961  10.178  0.00  0.00     0.073 A 
HETATM    2  C   UNK N   1      23.716  12.278  11.419  0.00  0.00     0.115 A 
HETATM    3  C   UNK N   1      22.489  11.873  11.971  0.00  0.00     0.099 A 
HETATM    4  C   UNK N   1      21.295  12.140  11.301  0.00  0.00     0.039 A 
HETATM    5  C   UNK N   1      21.312  12.812  10.079  0.00  0.00     0.004 A 
HETATM    6  C   UNK N   1      22.526  13.219   9.522  0.00  0.00     0.021 A 
ENDROOT
BRANCH   1   7
HETATM    7  C   UNK N   1      25.004  13.415   9.543  0.00  0.00     0.179 C 
HETATM    8  O   UNK N   1      25.159  13.348   8.334  0.00  0.00    -0.646 OA
BRANCH   7   9
HETATM    9  O   UNK N   1      26.000  13.910  10.306  0.00  0.00    -0.773 OA
HETATM   10  H   UNK N   1      26.629  13.330  10.689  0.00  0.00     0.167 HD
ENDBRANCH   7   9
ENDBRANCH   1   7
BRANCH   2  11
HETATM   11  O   UNK N   1      24.857  12.011  12.081  0.00  0.00    -0.357 OA
HETATM   12  H   UNK N   1      25.005  12.381  12.928  0.00  0.00     0.217 HD
ENDBRANCH   2  11
BRANCH   3  13
HETATM   13  O   UNK N   1      22.458  11.224  13.149  0.00  0.00    -0.358 OA
HETATM   14  H   UNK N   1      23.252  11.076  13.623  0.00  0.00     0.217 HD
ENDBRANCH   3  13
TORSDOF 4
ENDMDL
MODEL 4
REMARK VINA RESULT:      -5.1      1.968      2.828
REMARK  4 active torsions:
REMARK  status: ('A' for Active; 'I' for Inactive)
REMARK    1  A    between atoms: O_1  and  C_2 
REMARK    2  A    between atoms: C_2  and  C_4 
REMARK    3  A    between atoms: C_5  and  O_6 
REMARK    4  A    between atoms: C_7  and  O_8 
ROOT
HETATM    1  C   UNK N   1      20.556  19.201   2.565  0.00  0.00     0.073 A 
HETATM    2  C   UNK N   1      20.503  18.906   1.181  0.00  0.00     0.115 A 
HETATM    3  C   UNK N   1      20.300  17.583   0.756  0.00  0.00     0.099 A 
HETATM    4  C   UNK N   1      20.151  16.559   1.692  0.00  0.00     0.039 A 
HETATM    5  C   UNK N   1      20.202  16.844   3.056  0.00  0.00     0.004 A 
HETATM    6  C   UNK N   1      20.403  18.157   3.489  0.00  0.00     0.021 A 
ENDROOT
BRANCH   1   7
HETATM    7  C   UNK N   1      20.768  20.581   3.077  0.00  0.00     0.179 C 
HETATM    8  O   UNK N   1      20.101  21.016   4.002  0.00  0.00    -0.646 OA
BRANCH   7   9
HETATM    9  O   UNK N   1      21.708  21.369   2.518  0.00  0.00    -0.773 OA
HETATM   10  H   UNK N   1      21.474  22.211   2.181  0.00  0.00     0.167 HD
ENDBRANCH   7   9
ENDBRANCH   1   7
BRANCH   2  11
HETATM   11  O   UNK N   1      20.645  19.879   0.262  0.00  0.00    -0.357 OA
HETATM   12  H   UNK N   1      20.311  19.758  -0.604  0.00  0.00     0.217 HD
ENDBRANCH   2  11
BRANCH   3  13
HETATM   13  O   UNK N   1      20.249  17.293  -0.557  0.00  0.00    -0.358 OA
HETATM   14  H   UNK N   1      19.551  17.629  -1.083  0.00  0.00     0.217 HD
ENDBRANCH   3  13
TORSDOF 4
ENDMDL
MODEL 5
REMARK VINA RESULT:      -5.0      9.226     11.532
REMARK  4 active torsions:
REMARK  status: ('A' for Active; 'I' for Inactive)
REMARK    1  A    between atoms: O_1  and  C_2 
REMARK    2  A    between atoms: C_2  and  C_4 
REMARK    3  A    between atoms: C_5  and  O_6 
REMARK    4  A    between atoms: C_7  and  O_8 
ROOT
HETATM    1  C   UNK N   1      23.072  12.243  11.326  0.00  0.00     0.073 A 
HETATM    2  C   UNK N   1      24.219  12.641  10.597  0.00  0.00     0.115 A 
HETATM    3  C   UNK N   1      24.100  12.986   9.241  0.00  0.00     0.099 A 
HETATM    4  C   UNK N   1      22.856  12.937   8.610  0.00  0.00     0.039 A 
HETATM    5  C   UNK N   1      21.724  12.545   9.324  0.00  0.00     0.004 A 
HETATM    6  C   UNK N   1      21.832  12.201  10.673  0.00  0.00     0.021 A 
ENDROOT
BRANCH   1   7
HETATM    7  C   UNK N   1      23.134  11.867  12.764  0.00  0.00     0.179 C 
HETATM    8  O   UNK N   1      24.020  12.293  13.487  0.00  0.00    -0.646 OA
BRANCH   7   9
HETATM    9  O   UNK N   1      22.201  11.045  13.284  0.00  0.00    -0.773 OA
HETATM   10  H   UNK N   1      22.287  10.734  14.164  0.00  0.00     0.167 HD
ENDBRANCH   7   9
ENDBRANCH   1   7
BRANCH   2  11
HETATM   11  O   UNK N   1      25.427  12.695  11.187  0.00  0.00    -0.357 OA
HETATM   12  H   UNK N   1      26.125  13.173  10.784  0.00  0.00     0.217 HD
ENDBRANCH   2  11
BRANCH   3  13
HETATM   13  O   UNK N   1      25.184  13.365   8.540  0.00  0.00    -0.358 OA
HETATM   14  H   UNK N   1      25.979  12.876   8.607  0.00  0.00     0.217 HD
ENDBRANCH   3  13
TORSDOF 4
ENDMDL
MODEL 6
REMARK VINA RESULT:      -5.0     12.466     13.556
REMARK  4 active torsions:
REMARK  status: ('A' for Active; 'I' for Inactive)
REMARK    1  A    between atoms: O_1  and  C_2 
REMARK    2  A    between atoms: C_2  and  C_4 
REMARK    3  A    between atoms: C_5  and  O_6 
REMARK    4  A    between atoms: C_7  and  O_8 
ROOT
HETATM    1  C   UNK N   1      33.408  17.737   7.525  0.00  0.00     0.073 A 
HETATM    2  C   UNK N   1      32.048  17.507   7.844  0.00  0.00     0.115 A 
HETATM    3  C   UNK N   1      31.140  17.165   6.828  0.00  0.00     0.099 A 
HETATM    4  C   UNK N   1      31.575  17.051   5.506  0.00  0.00     0.039 A 
HETATM    5  C   UNK N   1      32.913  17.277   5.188  0.00  0.00     0.004 A 
HETATM    6  C   UNK N   1      33.823  17.617   6.191  0.00  0.00     0.021 A 
ENDROOT
BRANCH   1   7
HETATM    7  C   UNK N   1      34.417  18.102   8.556  0.00  0.00     0.179 C 
HETATM    8  O   UNK N   1      35.184  19.034   8.380  0.00  0.00    -0.646 OA
BRANCH   7   9
HETATM    9  O   UNK N   1      34.490  17.397   9.703  0.00  0.00    -0.773 OA
HETATM   10  H   UNK N   1      33.822  17.490  10.354  0.00  0.00     0.167 HD
ENDBRANCH   7   9
ENDBRANCH   1   7
BRANCH   2  11
HETATM   11  O   UNK N   1      31.609  17.612   9.112  0.00  0.00    -0.357 OA
HETATM   12  H   UNK N   1      32.165  17.974   9.773  0.00  0.00     0.217 HD
ENDBRANCH   2  11
BRANCH   3  13
HETATM   13  O   UNK N   1      29.845  16.945   7.122  0.00  0.00    -0.358 OA
HETATM   14  H   UNK N   1      29.464  16.106   6.954  0.00  0.00     0.217 HD
ENDBRANCH   3  13
TORSDOF 4
ENDMDL
MODEL 7
REMARK VINA RESULT:      -4.9      8.907     11.213
REMARK  4 active torsions:
REMARK  status: ('A' for Active; 'I' for Inactive)
REMARK    1  A    between atoms: O_1  and  C_2 
REMARK    2  A    between atoms: C_2  and  C_4 
REMARK    3  A    between atoms: C_5  and  O_6 
REMARK    4  A    between atoms: C_7  and  O_8 
ROOT
HETATM    1  C   UNK N   1      23.132  12.162  11.290  0.00  0.00     0.073 A 
HETATM    2  C   UNK N   1      21.927  12.370  10.578  0.00  0.00     0.115 A 
HETATM    3  C   UNK N   1      21.966  12.635   9.198  0.00  0.00     0.099 A 
HETATM    4  C   UNK N   1      23.190  12.693   8.529  0.00  0.00     0.039 A 
HETATM    5  C   UNK N   1      24.380  12.488   9.227  0.00  0.00     0.004 A 
HETATM    6  C   UNK N   1      24.350  12.224  10.598  0.00  0.00     0.021 A 
ENDROOT
BRANCH   1   7
HETATM    7  C   UNK N   1      23.155  11.878  12.750  0.00  0.00     0.179 C 
HETATM    8  O   UNK N   1      24.019  12.354  13.468  0.00  0.00    -0.646 OA
BRANCH   7   9
HETATM    9  O   UNK N   1      22.212  11.083  13.295  0.00  0.00    -0.773 OA
HETATM   10  H   UNK N   1      21.566  11.447  13.868  0.00  0.00     0.167 HD
ENDBRANCH   7   9
ENDBRANCH   1   7
BRANCH   2  11
HETATM   11  O   UNK N   1      20.737  12.318  11.204  0.00  0.00    -0.357 OA
HETATM   12  H   UNK N   1      20.700  12.244  12.137  0.00  0.00     0.217 HD
ENDBRANCH   2  11
BRANCH   3  13
HETATM   13  O   UNK N   1      20.826  12.834   8.513  0.00  0.00    -0.358 OA
HETATM   14  H   UNK N   1      20.809  13.440   7.799  0.00  0.00     0.217 HD
ENDBRANCH   3  13
TORSDOF 4
ENDMDL
MODEL 8
REMARK VINA RESULT:      -4.8      1.611      3.777
REMARK  4 active torsions:
REMARK  status: ('A' for Active; 'I' for Inactive)
REMARK    1  A    between atoms: O_1  and  C_2 
REMARK    2  A    between atoms: C_2  and  C_4 
REMARK    3  A    between atoms: C_5  and  O_6 
REMARK    4  A    between atoms: C_7  and  O_8 
ROOT
HETATM    1  C   UNK N   1      20.487  17.835   2.381  0.00  0.00     0.073 A 
HETATM    2  C   UNK N   1      20.486  18.522   1.143  0.00  0.00     0.115 A 
HETATM    3  C   UNK N   1      20.654  19.917   1.118  0.00  0.00     0.099 A 
HETATM    4  C   UNK N   1      20.820  20.626   2.309  0.00  0.00     0.039 A 
HETATM    5  C   UNK N   1      20.821  19.953   3.530  0.00  0.00     0.004 A 
HETATM    6  C   UNK N   1      20.656  18.567   3.565  0.00  0.00     0.021 A 
ENDROOT
BRANCH   1   7
HETATM    7  C   UNK N   1      20.314  16.360   2.473  0.00  0.00     0.179 C 
HETATM    8  O   UNK N   1      21.034  15.688   3.192  0.00  0.00    -0.646 OA
BRANCH   7   9
HETATM    9  O   UNK N   1      19.350  15.751   1.753  0.00  0.00    -0.773 OA
HETATM   10  H   UNK N   1      18.952  14.965   2.073  0.00  0.00     0.167 HD
ENDBRANCH   7   9
ENDBRANCH   1   7
BRANCH   2  11
HETATM   11  O   UNK N   1      20.327  17.857  -0.016  0.00  0.00    -0.357 OA
HETATM   12  H   UNK N   1      20.615  16.969  -0.091  0.00  0.00     0.217 HD
ENDBRANCH   2  11
BRANCH   3  13
HETATM   13  O   UNK N   1      20.655  20.579  -0.053  0.00  0.00    -0.358 OA
HETATM   14  H   UNK N   1      20.847  20.122  -0.848  0.00  0.00     0.217 HD
ENDBRANCH   3  13
TORSDOF 4
ENDMDL
MODEL 9
REMARK VINA RESULT:      -4.8     12.405     13.627
REMARK  4 active torsions:
REMARK  status: ('A' for Active; 'I' for Inactive)
REMARK    1  A    between atoms: O_1  and  C_2 
REMARK    2  A    between atoms: C_2  and  C_4 
REMARK    3  A    between atoms: C_5  and  O_6 
REMARK    4  A    between atoms: C_7  and  O_8 
ROOT
HETATM    1  C   UNK N   1      33.041  17.760   7.823  0.00  0.00     0.073 A 
HETATM    2  C   UNK N   1      33.114  17.495   6.435  0.00  0.00     0.115 A 
HETATM    3  C   UNK N   1      31.946  17.176   5.722  0.00  0.00     0.099 A 
HETATM    4  C   UNK N   1      30.716  17.121   6.378  0.00  0.00     0.039 A 
HETATM    5  C   UNK N   1      30.640  17.381   7.746  0.00  0.00     0.004 A 
HETATM    6  C   UNK N   1      31.795  17.699   8.463  0.00  0.00     0.021 A 
ENDROOT
BRANCH   1   7
HETATM    7  C   UNK N   1      34.242  18.103   8.632  0.00  0.00     0.179 C 
HETATM    8  O   UNK N   1      34.985  19.012   8.299  0.00  0.00    -0.646 OA
BRANCH   7   9
HETATM    9  O   UNK N   1      34.520  17.404   9.751  0.00  0.00    -0.773 OA
HETATM   10  H   UNK N   1      33.891  16.802  10.097  0.00  0.00     0.167 HD
ENDBRANCH   7   9
ENDBRANCH   1   7
BRANCH   2  11
HETATM   11  O   UNK N   1      34.291  17.543   5.783  0.00  0.00    -0.357 OA
HETATM   12  H   UNK N   1      34.881  16.818   5.827  0.00  0.00     0.217 HD
ENDBRANCH   2  11
BRANCH   3  13
HETATM   13  O   UNK N   1      32.006  16.922   4.402  0.00  0.00    -0.358 OA
HETATM   14  H   UNK N   1      32.514  16.202   4.086  0.00  0.00     0.217 HD
ENDBRANCH   3  13
TORSDOF 4
ENDMDL
