REMARK  4 active torsions:
REMARK  status: ('A' for Active; 'I' for Inactive)
REMARK    1  A    between atoms: O_1  and  C_2 
REMARK    2  A    between atoms: C_2  and  C_4 
REMARK    3  A    between atoms: C_5  and  O_6 
REMARK    4  A    between atoms: C_8  and  O_9 
ROOT
HETATM    1  C   UNK N   1       0.565   1.604  -0.000  0.00  0.00     0.070 A 
HETATM    2  C   UNK N   1       1.723   0.789  -0.000  0.00  0.00     0.085 A 
HETATM    3  C   UNK N   1       1.593  -0.604  -0.000  0.00  0.00     0.074 A 
HETATM    4  C   UNK N   1       0.327  -1.196  -0.000  0.00  0.00     0.068 A 
HETATM    5  C   UNK N   1      -0.816  -0.397  -0.000  0.00  0.00     0.038 A 
HETATM    6  C   UNK N   1      -0.696   0.992  -0.000  0.00  0.00     0.024 A 
ENDROOT
BRANCH   1   7
HETATM    7  C   UNK N   1       0.622   3.086   0.000  0.00  0.00     0.178 C 
HETATM    8  O   UNK N   1       1.692   3.675  -0.000  0.00  0.00    -0.646 OA
BRANCH   7   9
HETATM    9  O   UNK N   1      -0.521   3.800   0.000  0.00  0.00    -0.773 OA
HETATM   10  H   UNK N   1      -0.489   4.736   0.000  0.00  0.00     0.167 HD
ENDBRANCH   7   9
ENDBRANCH   1   7
BRANCH   2  11
HETATM   11  O   UNK N   1       2.955   1.330  -0.000  0.00  0.00    -0.360 OA
HETATM   12  H   UNK N   1       3.710   0.774  -0.000  0.00  0.00     0.217 HD
ENDBRANCH   2  11
BRANCH   4  13
HETATM   13  O   UNK N   1       0.208  -2.533   0.000  0.00  0.00    -0.361 OA
HETATM   14  H   UNK N   1      -0.642  -2.927   0.000  0.00  0.00     0.217 HD
ENDBRANCH   4  13
TORSDOF 4
