MODEL 1
REMARK VINA RESULT:      -5.2      0.000      0.000
REMARK  4 active torsions:
REMARK  status: ('A' for Active; 'I' for Inactive)
REMARK    1  A    between atoms: O_1  and  C_2 
REMARK    2  A    between atoms: C_2  and  C_4 
REMARK    3  A    between atoms: C_5  and  O_6 
REMARK    4  A    between atoms: C_8  and  O_9 
ROOT
HETATM    1  C   UNK N   1      21.724  13.095   9.928  0.00  0.00     0.070 A 
HETATM    2  C   UNK N   1      21.738  12.311  11.107  0.00  0.00     0.085 A 
HETATM    3  C   UNK N   1      22.957  11.880  11.641  0.00  0.00     0.074 A 
HETATM    4  C   UNK N   1      24.161  12.219  11.018  0.00  0.00     0.068 A 
HETATM    5  C   UNK N   1      24.152  12.991   9.857  0.00  0.00     0.038 A 
HETATM    6  C   UNK N   1      22.942  13.425   9.317  0.00  0.00     0.024 A 
ENDROOT
BRANCH   1   7
HETATM    7  C   UNK N   1      20.473  13.588   9.302  0.00  0.00     0.178 C 
HETATM    8  O   UNK N   1      19.524  13.942   9.985  0.00  0.00    -0.646 OA
BRANCH   7   9
HETATM    9  O   UNK N   1      20.375  13.650   7.959  0.00  0.00    -0.773 OA
HETATM   10  H   UNK N   1      20.485  14.469   7.518  0.00  0.00     0.167 HD
ENDBRANCH   7   9
ENDBRANCH   1   7
BRANCH   2  11
HETATM   11  O   UNK N   1      20.595  11.969  11.729  0.00  0.00    -0.360 OA
HETATM   12  H   UNK N   1      19.843  11.723  11.225  0.00  0.00     0.217 HD
ENDBRANCH   2  11
BRANCH   4  13
HETATM   13  O   UNK N   1      25.328  11.804  11.535  0.00  0.00    -0.361 OA
HETATM   14  H   UNK N   1      25.498  11.907  12.451  0.00  0.00     0.217 HD
ENDBRANCH   4  13
TORSDOF 4
ENDMDL
MODEL 2
REMARK VINA RESULT:      -5.1     11.611     13.005
REMARK  4 active torsions:
REMARK  status: ('A' for Active; 'I' for Inactive)
REMARK    1  A    between atoms: O_1  and  C_2 
REMARK    2  A    between atoms: C_2  and  C_4 
REMARK    3  A    between atoms: C_5  and  O_6 
REMARK    4  A    between atoms: C_8  and  O_9 
ROOT
HETATM    1  C   UNK N   1      34.522  17.071   9.116  0.00  0.00     0.070 A 
HETATM    2  C   UNK N   1      33.560  16.056   8.896  0.00  0.00     0.085 A 
HETATM    3  C   UNK N   1      33.427  15.012   9.817  0.00  0.00     0.074 A 
HETATM    4  C   UNK N   1      34.240  14.964  10.953  0.00  0.00     0.068 A 
HETATM    5  C   UNK N   1      35.189  15.961  11.174  0.00  0.00     0.038 A 
HETATM    6  C   UNK N   1      35.328  17.006  10.261  0.00  0.00     0.024 A 
ENDROOT
BRANCH   1   7
HETATM    7  C   UNK N   1      34.722  18.209   8.186  0.00  0.00     0.178 C 
HETATM    8  O   UNK N   1      34.327  18.155   7.031  0.00  0.00    -0.646 OA
BRANCH   7   9
HETATM    9  O   UNK N   1      35.347  19.323   8.615  0.00  0.00    -0.773 OA
HETATM   10  H   UNK N   1      35.846  19.305   9.408  0.00  0.00     0.167 HD
ENDBRANCH   7   9
ENDBRANCH   1   7
BRANCH   2  11
HETATM   11  O   UNK N   1      32.763  16.076   7.812  0.00  0.00    -0.360 OA
HETATM   12  H   UNK N   1      32.065  15.455   7.733  0.00  0.00     0.217 HD
ENDBRANCH   2  11
BRANCH   4  13
HETATM   13  O   UNK N   1      34.108  13.959  11.834  0.00  0.00    -0.361 OA
HETATM   14  H   UNK N   1      34.384  14.076  12.722  0.00  0.00     0.217 HD
ENDBRANCH   4  13
TORSDOF 4
ENDMDL
MODEL 3
REMARK VINA RESULT:      -5.0     11.908     13.198
REMARK  4 active torsions:
REMARK  status: ('A' for Active; 'I' for Inactive)
REMARK    1  A    between atoms: O_1  and  C_2 
REMARK    2  A    between atoms: C_2  and  C_4 
REMARK    3  A    between atoms: C_5  and  O_6 
REMARK    4  A    between atoms: C_8  and  O_9 
ROOT
HETATM    1  C   UNK N   1      34.447  16.877   8.929  0.00  0.00     0.070 A 
HETATM    2  C   UNK N   1      35.167  16.889  10.148  0.00  0.00     0.085 A 
HETATM    3  C   UNK N   1      35.034  15.823  11.045  0.00  0.00     0.074 A 
HETATM    4  C   UNK N   1      34.194  14.747  10.744  0.00  0.00     0.068 A 
HETATM    5  C   UNK N   1      33.483  14.732   9.545  0.00  0.00     0.038 A 
HETATM    6  C   UNK N   1      33.610  15.790   8.645  0.00  0.00     0.024 A 
ENDROOT
BRANCH   1   7
HETATM    7  C   UNK N   1      34.536  17.969   7.930  0.00  0.00     0.178 C 
HETATM    8  O   UNK N   1      34.305  17.762   6.749  0.00  0.00    -0.646 OA
BRANCH   7   9
HETATM    9  O   UNK N   1      34.877  19.212   8.325  0.00  0.00    -0.773 OA
HETATM   10  H   UNK N   1      34.559  19.549   9.138  0.00  0.00     0.167 HD
ENDBRANCH   7   9
ENDBRANCH   1   7
BRANCH   2  11
HETATM   11  O   UNK N   1      35.983  17.911  10.465  0.00  0.00    -0.360 OA
HETATM   12  H   UNK N   1      36.631  17.802  11.135  0.00  0.00     0.217 HD
ENDBRANCH   2  11
BRANCH   4  13
HETATM   13  O   UNK N   1      34.070  13.727  11.608  0.00  0.00    -0.361 OA
HETATM   14  H   UNK N   1      33.406  13.751  12.268  0.00  0.00     0.217 HD
ENDBRANCH   4  13
TORSDOF 4
ENDMDL
MODEL 4
REMARK VINA RESULT:      -4.9      8.567     10.522
REMARK  4 active torsions:
REMARK  status: ('A' for Active; 'I' for Inactive)
REMARK    1  A    between atoms: O_1  and  C_2 
REMARK    2  A    between atoms: C_2  and  C_4 
REMARK    3  A    between atoms: C_5  and  O_6 
REMARK    4  A    between atoms: C_8  and  O_9 
ROOT
HETATM    1  C   UNK N   1      20.603  18.999   1.907  0.00  0.00     0.070 A 
HETATM    2  C   UNK N   1      20.331  17.810   1.188  0.00  0.00     0.085 A 
HETATM    3  C   UNK N   1      20.061  16.624   1.881  0.00  0.00     0.074 A 
HETATM    4  C   UNK N   1      20.058  16.607   3.278  0.00  0.00     0.068 A 
HETATM    5  C   UNK N   1      20.325  17.776   3.990  0.00  0.00     0.038 A 
HETATM    6  C   UNK N   1      20.595  18.962   3.309  0.00  0.00     0.024 A 
ENDROOT
BRANCH   1   7
HETATM    7  C   UNK N   1      20.898  20.292   1.245  0.00  0.00     0.178 C 
HETATM    8  O   UNK N   1      21.450  21.198   1.850  0.00  0.00    -0.646 OA
BRANCH   7   9
HETATM    9  O   UNK N   1      20.554  20.478  -0.045  0.00  0.00    -0.773 OA
HETATM   10  H   UNK N   1      20.372  21.340  -0.363  0.00  0.00     0.167 HD
ENDBRANCH   7   9
ENDBRANCH   1   7
BRANCH   2  11
HETATM   11  O   UNK N   1      20.327  17.795  -0.157  0.00  0.00    -0.360 OA
HETATM   12  H   UNK N   1      19.803  18.412  -0.630  0.00  0.00     0.217 HD
ENDBRANCH   2  11
BRANCH   4  13
HETATM   13  O   UNK N   1      19.798  15.467   3.938  0.00  0.00    -0.361 OA
HETATM   14  H   UNK N   1      20.450  15.090   4.494  0.00  0.00     0.217 HD
ENDBRANCH   4  13
TORSDOF 4
ENDMDL
MODEL 5
REMARK VINA RESULT:      -4.9      1.869      4.086
REMARK  4 active torsions:
REMARK  status: ('A' for Active; 'I' for Inactive)
REMARK    1  A    between atoms: O_1  and  C_2 
REMARK    2  A    between atoms: C_2  and  C_4 
REMARK    3  A    between atoms: C_5  and  O_6 
REMARK    4  A    between atoms: C_8  and  O_9 
ROOT
HETATM    1  C   UNK N   1      23.121  12.232  11.320  0.00  0.00     0.070 A 
HETATM    2  C   UNK N   1      24.285  12.619  10.613  0.00  0.00     0.085 A 
HETATM    3  C   UNK N   1      24.199  12.945   9.256  0.00  0.00     0.074 A 
HETATM    4  C   UNK N   1      22.970  12.892   8.593  0.00  0.00     0.068 A 
HETATM    5  C   UNK N   1      21.820  12.511   9.285  0.00  0.00     0.038 A 
HETATM    6  C   UNK N   1      21.897  12.184  10.638  0.00  0.00     0.024 A 
ENDROOT
BRANCH   1   7
HETATM    7  C   UNK N   1      23.133  11.872  12.759  0.00  0.00     0.178 C 
HETATM    8  O   UNK N   1      24.007  12.287  13.504  0.00  0.00    -0.646 OA
BRANCH   7   9
HETATM    9  O   UNK N   1      22.167  11.076  13.258  0.00  0.00    -0.773 OA
HETATM   10  H   UNK N   1      21.937  10.284  12.814  0.00  0.00     0.167 HD
ENDBRANCH   7   9
ENDBRANCH   1   7
BRANCH   2  11
HETATM   11  O   UNK N   1      25.482  12.680  11.225  0.00  0.00    -0.360 OA
HETATM   12  H   UNK N   1      25.687  12.078  11.914  0.00  0.00     0.217 HD
ENDBRANCH   2  11
BRANCH   4  13
HETATM   13  O   UNK N   1      22.892  13.205   7.290  0.00  0.00    -0.361 OA
HETATM   14  H   UNK N   1      23.581  12.954   6.706  0.00  0.00     0.217 HD
ENDBRANCH   4  13
TORSDOF 4
ENDMDL
MODEL 6
REMARK VINA RESULT:      -4.9     10.772     12.661
REMARK  4 active torsions:
REMARK  status: ('A' for Active; 'I' for Inactive)
REMARK    1  A    between atoms: O_1  and  C_2 
REMARK    2  A    between atoms: C_2  and  C_4 
REMARK    3  A    between atoms: C_5  and  O_6 
REMARK    4  A    between atoms: C_8  and  O_9 
ROOT
HETATM    1  C   UNK N   1      33.396  17.738   7.530  0.00  0.00     0.070 A 
HETATM    2  C   UNK N   1      32.031  17.525   7.841  0.00  0.00     0.085 A 
HETATM    3  C   UNK N   1      31.131  17.188   6.824  0.00  0.00     0.074 A 
HETATM    4  C   UNK N   1      31.571  17.060   5.503  0.00  0.00     0.068 A 
HETATM    5  C   UNK N   1      32.915  17.270   5.194  0.00  0.00     0.038 A 
HETATM    6  C   UNK N   1      33.818  17.606   6.200  0.00  0.00     0.024 A 
ENDROOT
BRANCH   1   7
HETATM    7  C   UNK N   1      34.408  18.098   8.552  0.00  0.00     0.178 C 
HETATM    8  O   UNK N   1      35.178  19.030   8.375  0.00  0.00    -0.646 OA
BRANCH   7   9
HETATM    9  O   UNK N   1      34.485  17.390   9.697  0.00  0.00    -0.773 OA
HETATM   10  H   UNK N   1      34.952  17.736  10.431  0.00  0.00     0.167 HD
ENDBRANCH   7   9
ENDBRANCH   1   7
BRANCH   2  11
HETATM   11  O   UNK N   1      31.577  17.640   9.102  0.00  0.00    -0.360 OA
HETATM   12  H   UNK N   1      31.384  16.871   9.602  0.00  0.00     0.217 HD
ENDBRANCH   2  11
BRANCH   4  13
HETATM   13  O   UNK N   1      30.703  16.737   4.532  0.00  0.00    -0.361 OA
HETATM   14  H   UNK N   1      30.684  17.234   3.738  0.00  0.00     0.217 HD
ENDBRANCH   4  13
TORSDOF 4
ENDMDL
MODEL 7
REMARK VINA RESULT:      -4.8     10.301     12.655
REMARK  4 active torsions:
REMARK  status: ('A' for Active; 'I' for Inactive)
REMARK    1  A    between atoms: O_1  and  C_2 
REMARK    2  A    between atoms: C_2  and  C_4 
REMARK    3  A    between atoms: C_5  and  O_6 
REMARK    4  A    between atoms: C_8  and  O_9 
ROOT
HETATM    1  C   UNK N   1      33.082  17.761   7.836  0.00  0.00     0.070 A 
HETATM    2  C   UNK N   1      33.148  17.496   6.447  0.00  0.00     0.085 A 
HETATM    3  C   UNK N   1      31.982  17.176   5.744  0.00  0.00     0.074 A 
HETATM    4  C   UNK N   1      30.752  17.117   6.404  0.00  0.00     0.068 A 
HETATM    5  C   UNK N   1      30.682  17.378   7.773  0.00  0.00     0.038 A 
HETATM    6  C   UNK N   1      31.840  17.698   8.481  0.00  0.00     0.024 A 
ENDROOT
BRANCH   1   7
HETATM    7  C   UNK N   1      34.274  18.107   8.648  0.00  0.00     0.178 C 
HETATM    8  O   UNK N   1      35.021  19.015   8.317  0.00  0.00    -0.646 OA
BRANCH   7   9
HETATM    9  O   UNK N   1      34.544  17.411   9.771  0.00  0.00    -0.773 OA
HETATM   10  H   UNK N   1      34.091  17.611  10.566  0.00  0.00     0.167 HD
ENDBRANCH   7   9
ENDBRANCH   1   7
BRANCH   2  11
HETATM   11  O   UNK N   1      34.318  17.544   5.783  0.00  0.00    -0.360 OA
HETATM   12  H   UNK N   1      34.613  16.797   5.300  0.00  0.00     0.217 HD
ENDBRANCH   2  11
BRANCH   4  13
HETATM   13  O   UNK N   1      29.635  16.810   5.725  0.00  0.00    -0.361 OA
HETATM   14  H   UNK N   1      29.018  17.482   5.511  0.00  0.00     0.217 HD
ENDBRANCH   4  13
TORSDOF 4
ENDMDL
MODEL 8
REMARK VINA RESULT:      -4.7     19.139     20.349
REMARK  4 active torsions:
REMARK  status: ('A' for Active; 'I' for Inactive)
REMARK    1  A    between atoms: O_1  and  C_2 
REMARK    2  A    between atoms: C_2  and  C_4 
REMARK    3  A    between atoms: C_5  and  O_6 
REMARK    4  A    between atoms: C_8  and  O_9 
ROOT
HETATM    1  C   UNK N   1      25.936  25.109  -5.114  0.00  0.00     0.070 A 
HETATM    2  C   UNK N   1      26.408  25.361  -3.803  0.00  0.00     0.085 A 
HETATM    3  C   UNK N   1      26.249  26.631  -3.239  0.00  0.00     0.074 A 
HETATM    4  C   UNK N   1      25.627  27.653  -3.961  0.00  0.00     0.068 A 
HETATM    5  C   UNK N   1      25.161  27.409  -5.253  0.00  0.00     0.038 A 
HETATM    6  C   UNK N   1      25.315  26.146  -5.823  0.00  0.00     0.024 A 
ENDROOT
BRANCH   1   7
HETATM    7  C   UNK N   1      26.067  23.790  -5.779  0.00  0.00     0.178 C 
HETATM    8  O   UNK N   1      25.089  23.206  -6.219  0.00  0.00    -0.646 OA
BRANCH   7   9
HETATM    9  O   UNK N   1      27.283  23.221  -5.904  0.00  0.00    -0.773 OA
HETATM   10  H   UNK N   1      27.467  22.410  -5.474  0.00  0.00     0.167 HD
ENDBRANCH   7   9
ENDBRANCH   1   7
BRANCH   2  11
HETATM   11  O   UNK N   1      27.011  24.397  -3.083  0.00  0.00    -0.360 OA
HETATM   12  H   UNK N   1      26.495  23.802  -2.574  0.00  0.00     0.217 HD
ENDBRANCH   2  11
BRANCH   4  13
HETATM   13  O   UNK N   1      25.478  28.870  -3.415  0.00  0.00    -0.361 OA
HETATM   14  H   UNK N   1      24.632  29.273  -3.396  0.00  0.00     0.217 HD
ENDBRANCH   4  13
TORSDOF 4
ENDMDL
MODEL 9
REMARK VINA RESULT:      -4.6     21.816     23.645
REMARK  4 active torsions:
REMARK  status: ('A' for Active; 'I' for Inactive)
REMARK    1  A    between atoms: O_1  and  C_2 
REMARK    2  A    between atoms: C_2  and  C_4 
REMARK    3  A    between atoms: C_5  and  O_6 
REMARK    4  A    between atoms: C_8  and  O_9 
ROOT
HETATM    1  C   UNK N   1      42.120  21.387   2.662  0.00  0.00     0.070 A 
HETATM    2  C   UNK N   1      42.517  22.746   2.687  0.00  0.00     0.085 A 
HETATM    3  C   UNK N   1      43.775  23.094   3.191  0.00  0.00     0.074 A 
HETATM    4  C   UNK N   1      44.642  22.109   3.671  0.00  0.00     0.068 A 
HETATM    5  C   UNK N   1      44.254  20.769   3.648  0.00  0.00     0.038 A 
HETATM    6  C   UNK N   1      43.003  20.413   3.148  0.00  0.00     0.024 A 
ENDROOT
BRANCH   1   7
HETATM    7  C   UNK N   1      40.804  20.941   2.144  0.00  0.00     0.178 C 
HETATM    8  O   UNK N   1      40.728  20.170   1.200  0.00  0.00    -0.646 OA
BRANCH   7   9
HETATM    9  O   UNK N   1      39.671  21.390   2.719  0.00  0.00    -0.773 OA
HETATM   10  H   UNK N   1      39.456  22.301   2.683  0.00  0.00     0.167 HD
ENDBRANCH   7   9
ENDBRANCH   1   7
BRANCH   2  11
HETATM   11  O   UNK N   1      41.704  23.717   2.232  0.00  0.00    -0.360 OA
HETATM   12  H   UNK N   1      41.185  23.571   1.465  0.00  0.00     0.217 HD
ENDBRANCH   2  11
BRANCH   4  13
HETATM   13  O   UNK N   1      45.847  22.448   4.153  0.00  0.00    -0.361 OA
HETATM   14  H   UNK N   1      46.611  21.980   3.877  0.00  0.00     0.217 HD
ENDBRANCH   4  13
TORSDOF 4
ENDMDL
