MODEL 1
REMARK VINA RESULT:      -6.4      0.000      0.000
REMARK  5 active torsions:
REMARK  status: ('A' for Active; 'I' for Inactive)
REMARK    1  A    between atoms: O_1  and  C_2 
REMARK    2  A    between atoms: C_3  and  C_2 
REMARK    3  A    between atoms: C_4  and  O_5 
REMARK    4  A    between atoms: C_7  and  N_9 
REMARK    5  A    between atoms: C_10  and  O_22 
REMARK       I    between atoms: C_17  and  N_18 
ROOT
HETATM    1  N   UNK N   1      28.822  17.620   5.531  0.00  0.00    -0.269 N 
HETATM    2  C   UNK N   1      28.947  17.446   4.189  0.00  0.00     0.228 A 
HETATM    3  N   UNK N   1      28.251  18.365   3.469  0.00  0.00    -0.314 N 
ATOM      4  HN  UNK N   1      28.187  18.457   2.455  1.00  0.00     0.170 HD
HETATM    5  C   UNK N   1      27.666  19.128   4.413  0.00  0.00     0.150 A 
HETATM    6  C   UNK N   1      26.807  20.205   4.275  0.00  0.00     0.290 A 
HETATM    7  O   UNK N   1      26.474  20.614   3.177  0.00  0.00    -0.265 OA
HETATM    8  N   UNK N   1      26.325  20.795   5.422  0.00  0.00    -0.154 N 
HETATM    9  C   UNK N   1      26.686  20.327   6.662  0.00  0.00     0.680 A 
HETATM   10  N   UNK N   1      26.170  20.941   7.820  0.00  0.00    -0.234 N 
HETATM   11  N   UNK N   1      27.537  19.260   6.780  0.00  0.00    -0.174 N 
ATOM     12  HN  UNK N   1      27.809  18.906   7.698  1.00  0.00     0.186 HD
HETATM   13  C   UNK N   1      28.010  18.687   5.647  0.00  0.00     0.161 A 
HETATM   14  H   UNK N   1      25.711  21.562   5.352  0.00  0.00     0.187 HD
HETATM   15  H   UNK N   1      26.582  20.768   8.697  0.00  0.00     0.174 HD
HETATM   16  H   UNK N   1      25.395  21.545   7.751  0.00  0.00     0.174 HD
ENDROOT
BRANCH   1  17
HETATM   17  C   UNK N   1      29.406  16.782   6.589  0.00  0.00     0.236 C 
HETATM   18  C   UNK N   1      30.842  17.166   6.896  0.00  0.00     0.088 C 
HETATM   19  C   UNK N   1      30.739  17.831   8.220  0.00  0.00     0.153 C 
HETATM   20  C   UNK N   1      29.528  17.166   8.817  0.00  0.00     0.176 C 
HETATM   21  O   UNK N   1      28.638  16.849   7.774  0.00  0.00    -0.356 OA
BRANCH  19  22
HETATM   22  O   UNK N   1      31.871  17.550   8.988  0.00  0.00    -0.393 OA
HETATM   23  H   UNK N   1      32.123  16.631   9.170  0.00  0.00     0.210 HD
ENDBRANCH  19  22
BRANCH  20  24
HETATM   24  C   UNK N   1      28.856  18.103   9.812  0.00  0.00     0.198 C 
BRANCH  24  25
HETATM   25  O   UNK N   1      27.531  18.339   9.441  0.00  0.00    -0.398 OA
HETATM   26  H   UNK N   1      27.189  19.152   9.037  0.00  0.00     0.209 HD
ENDBRANCH  24  25
ENDBRANCH  20  24
ENDBRANCH   1  17
BRANCH   2  27
HETATM   27  O   UNK N   1      29.675  16.467   3.624  0.00  0.00    -0.332 OA
HETATM   28  H   UNK N   1      29.893  16.501   2.714  0.00  0.00     0.221 HD
ENDBRANCH   2  27
TORSDOF 5
ENDMDL
MODEL 2
REMARK VINA RESULT:      -6.3      2.033      2.730
REMARK  5 active torsions:
REMARK  status: ('A' for Active; 'I' for Inactive)
REMARK    1  A    between atoms: O_1  and  C_2 
REMARK    2  A    between atoms: C_3  and  C_2 
REMARK    3  A    between atoms: C_4  and  O_5 
REMARK    4  A    between atoms: C_7  and  N_9 
REMARK    5  A    between atoms: C_10  and  O_22 
REMARK       I    between atoms: C_17  and  N_18 
ROOT
HETATM    1  N   UNK N   1      30.243  17.109   4.989  0.00  0.00    -0.269 N 
HETATM    2  C   UNK N   1      29.636  17.236   3.780  0.00  0.00     0.228 A 
HETATM    3  N   UNK N   1      28.442  17.881   3.852  0.00  0.00    -0.314 N 
ATOM      4  HN  UNK N   1      27.800  18.109   3.093  1.00  0.00     0.170 HD
HETATM    5  C   UNK N   1      28.308  18.152   5.165  0.00  0.00     0.150 A 
HETATM    6  C   UNK N   1      27.270  18.769   5.842  0.00  0.00     0.290 A 
HETATM    7  O   UNK N   1      26.285  19.180   5.254  0.00  0.00    -0.265 OA
HETATM    8  N   UNK N   1      27.377  18.894   7.209  0.00  0.00    -0.154 N 
HETATM    9  C   UNK N   1      28.480  18.420   7.877  0.00  0.00     0.680 A 
HETATM   10  N   UNK N   1      28.559  18.551   9.277  0.00  0.00    -0.234 N 
HETATM   11  N   UNK N   1      29.498  17.812   7.192  0.00  0.00    -0.174 N 
ATOM     12  HN  UNK N   1      30.319  17.455   7.681  1.00  0.00     0.186 HD
HETATM   13  C   UNK N   1      29.387  17.695   5.846  0.00  0.00     0.161 A 
HETATM   14  H   UNK N   1      26.652  19.329   7.714  0.00  0.00     0.187 HD
HETATM   15  H   UNK N   1      29.419  18.421   9.738  0.00  0.00     0.174 HD
HETATM   16  H   UNK N   1      27.752  18.772   9.796  0.00  0.00     0.174 HD
ENDROOT
BRANCH   1  17
HETATM   17  C   UNK N   1      31.517  16.430   5.272  0.00  0.00     0.236 C 
HETATM   18  C   UNK N   1      32.704  17.368   5.152  0.00  0.00     0.088 C 
HETATM   19  C   UNK N   1      33.116  17.576   6.563  0.00  0.00     0.153 C 
HETATM   20  C   UNK N   1      32.667  16.297   7.218  0.00  0.00     0.176 C 
HETATM   21  O   UNK N   1      31.508  15.846   6.560  0.00  0.00    -0.356 OA
BRANCH  19  22
HETATM   22  O   UNK N   1      34.504  17.698   6.645  0.00  0.00    -0.393 OA
HETATM   23  H   UNK N   1      34.906  18.305   7.285  0.00  0.00     0.210 HD
ENDBRANCH  19  22
BRANCH  20  24
HETATM   24  C   UNK N   1      32.371  16.541   8.691  0.00  0.00     0.198 C 
BRANCH  24  25
HETATM   25  O   UNK N   1      31.758  17.782   8.866  0.00  0.00    -0.398 OA
HETATM   26  H   UNK N   1      31.153  18.212   8.241  0.00  0.00     0.209 HD
ENDBRANCH  24  25
ENDBRANCH  20  24
ENDBRANCH   1  17
BRANCH   2  27
HETATM   27  O   UNK N   1      30.151  16.769   2.629  0.00  0.00    -0.332 OA
HETATM   28  H   UNK N   1      29.711  16.098   2.147  0.00  0.00     0.221 HD
ENDBRANCH   2  27
TORSDOF 5
ENDMDL
MODEL 3
REMARK VINA RESULT:      -6.3      2.597      5.644
REMARK  5 active torsions:
REMARK  status: ('A' for Active; 'I' for Inactive)
REMARK    1  A    between atoms: O_1  and  C_2 
REMARK    2  A    between atoms: C_3  and  C_2 
REMARK    3  A    between atoms: C_4  and  O_5 
REMARK    4  A    between atoms: C_7  and  N_9 
REMARK    5  A    between atoms: C_10  and  O_22 
REMARK       I    between atoms: C_17  and  N_18 
ROOT
HETATM    1  N   UNK N   1      30.183  17.515   7.448  0.00  0.00    -0.269 N 
HETATM    2  C   UNK N   1      30.957  17.606   8.560  0.00  0.00     0.228 A 
HETATM    3  N   UNK N   1      32.286  17.642   8.279  0.00  0.00    -0.314 N 
ATOM      4  HN  UNK N   1      33.068  17.716   8.930  1.00  0.00     0.170 HD
HETATM    5  C   UNK N   1      32.327  17.556   6.935  0.00  0.00     0.150 A 
HETATM    6  C   UNK N   1      33.417  17.513   6.083  0.00  0.00     0.290 A 
HETATM    7  O   UNK N   1      34.557  17.565   6.508  0.00  0.00    -0.265 OA
HETATM    8  N   UNK N   1      33.173  17.394   4.733  0.00  0.00    -0.154 N 
HETATM    9  C   UNK N   1      31.889  17.321   4.250  0.00  0.00     0.680 A 
HETATM   10  N   UNK N   1      31.668  17.187   2.866  0.00  0.00    -0.234 N 
HETATM   11  N   UNK N   1      30.822  17.365   5.109  0.00  0.00    -0.174 N 
ATOM     12  HN  UNK N   1      29.865  17.309   4.758  1.00  0.00     0.186 HD
HETATM   13  C   UNK N   1      31.069  17.486   6.436  0.00  0.00     0.161 A 
HETATM   14  H   UNK N   1      33.931  17.360   4.105  0.00  0.00     0.187 HD
HETATM   15  H   UNK N   1      30.773  17.354   2.490  0.00  0.00     0.174 HD
HETATM   16  H   UNK N   1      32.409  16.927   2.273  0.00  0.00     0.174 HD
ENDROOT
BRANCH   1  17
HETATM   17  C   UNK N   1      28.716  17.413   7.396  0.00  0.00     0.236 C 
HETATM   18  C   UNK N   1      28.047  18.775   7.440  0.00  0.00     0.088 C 
HETATM   19  C   UNK N   1      27.549  18.952   6.052  0.00  0.00     0.153 C 
HETATM   20  C   UNK N   1      27.334  17.530   5.607  0.00  0.00     0.176 C 
HETATM   21  O   UNK N   1      28.293  16.719   6.240  0.00  0.00    -0.356 OA
BRANCH  19  22
HETATM   22  O   UNK N   1      26.336  19.643   6.062  0.00  0.00    -0.393 OA
HETATM   23  H   UNK N   1      25.945  19.934   6.901  0.00  0.00     0.210 HD
ENDBRANCH  19  22
BRANCH  20  24
HETATM   24  C   UNK N   1      27.479  17.430   4.095  0.00  0.00     0.198 C 
BRANCH  24  25
HETATM   25  O   UNK N   1      28.562  18.193   3.657  0.00  0.00    -0.398 OA
HETATM   26  H   UNK N   1      28.951  18.950   4.123  0.00  0.00     0.209 HD
ENDBRANCH  24  25
ENDBRANCH  20  24
ENDBRANCH   1  17
BRANCH   2  27
HETATM   27  O   UNK N   1      30.469  17.651   9.813  0.00  0.00    -0.332 OA
HETATM   28  H   UNK N   1      29.663  17.225  10.025  0.00  0.00     0.221 HD
ENDBRANCH   2  27
TORSDOF 5
ENDMDL
MODEL 4
REMARK VINA RESULT:      -6.3      5.361      7.829
REMARK  5 active torsions:
REMARK  status: ('A' for Active; 'I' for Inactive)
REMARK    1  A    between atoms: O_1  and  C_2 
REMARK    2  A    between atoms: C_3  and  C_2 
REMARK    3  A    between atoms: C_4  and  O_5 
REMARK    4  A    between atoms: C_7  and  N_9 
REMARK    5  A    between atoms: C_10  and  O_22 
REMARK       I    between atoms: C_17  and  N_18 
ROOT
HETATM    1  N   UNK N   1      33.853  17.182   7.988  0.00  0.00    -0.269 N 
HETATM    2  C   UNK N   1      34.673  17.986   8.714  0.00  0.00     0.228 A 
HETATM    3  N   UNK N   1      35.122  17.395   9.852  0.00  0.00    -0.314 N 
ATOM      4  HN  UNK N   1      35.750  17.779  10.559  1.00  0.00     0.170 HD
HETATM    5  C   UNK N   1      34.541  16.180   9.827  0.00  0.00     0.150 A 
HETATM    6  C   UNK N   1      34.605  15.147  10.747  0.00  0.00     0.290 A 
HETATM    7  O   UNK N   1      35.269  15.244  11.764  0.00  0.00    -0.265 OA
HETATM    8  N   UNK N   1      33.881  14.006  10.486  0.00  0.00    -0.154 N 
HETATM    9  C   UNK N   1      33.119  13.898   9.347  0.00  0.00     0.680 A 
HETATM   10  N   UNK N   1      32.378  12.724   9.110  0.00  0.00    -0.234 N 
HETATM   11  N   UNK N   1      33.067  14.930   8.448  0.00  0.00    -0.174 N 
ATOM     12  HN  UNK N   1      32.503  14.858   7.601  1.00  0.00     0.186 HD
HETATM   13  C   UNK N   1      33.786  16.049   8.710  0.00  0.00     0.161 A 
HETATM   14  H   UNK N   1      33.908  13.257  11.125  0.00  0.00     0.187 HD
HETATM   15  H   UNK N   1      32.013  12.544   8.213  0.00  0.00     0.174 HD
HETATM   16  H   UNK N   1      32.226  12.084   9.841  0.00  0.00     0.174 HD
ENDROOT
BRANCH   1  17
HETATM   17  C   UNK N   1      33.164  17.523   6.733  0.00  0.00     0.236 C 
HETATM   18  C   UNK N   1      33.836  16.896   5.524  0.00  0.00     0.088 C 
HETATM   19  C   UNK N   1      32.888  15.823   5.129  0.00  0.00     0.153 C 
HETATM   20  C   UNK N   1      31.571  16.366   5.615  0.00  0.00     0.176 C 
HETATM   21  O   UNK N   1      31.807  17.129   6.774  0.00  0.00    -0.356 OA
BRANCH  19  22
HETATM   22  O   UNK N   1      32.871  15.687   3.740  0.00  0.00    -0.393 OA
HETATM   23  H   UNK N   1      32.923  16.470   3.170  0.00  0.00     0.210 HD
ENDBRANCH  19  22
BRANCH  20  24
HETATM   24  C   UNK N   1      30.618  15.221   5.927  0.00  0.00     0.198 C 
BRANCH  24  25
HETATM   25  O   UNK N   1      31.332  14.056   6.212  0.00  0.00    -0.398 OA
HETATM   26  H   UNK N   1      31.515  13.703   7.097  0.00  0.00     0.209 HD
ENDBRANCH  24  25
ENDBRANCH  20  24
ENDBRANCH   1  17
BRANCH   2  27
HETATM   27  O   UNK N   1      35.007  19.238   8.354  0.00  0.00    -0.332 OA
HETATM   28  H   UNK N   1      34.456  19.732   7.780  0.00  0.00     0.221 HD
ENDBRANCH   2  27
TORSDOF 5
ENDMDL
MODEL 5
REMARK VINA RESULT:      -6.2      6.789      8.106
REMARK  5 active torsions:
REMARK  status: ('A' for Active; 'I' for Inactive)
REMARK    1  A    between atoms: O_1  and  C_2 
REMARK    2  A    between atoms: C_3  and  C_2 
REMARK    3  A    between atoms: C_4  and  O_5 
REMARK    4  A    between atoms: C_7  and  N_9 
REMARK    5  A    between atoms: C_10  and  O_22 
REMARK       I    between atoms: C_17  and  N_18 
ROOT
HETATM    1  N   UNK N   1      22.515  17.210   4.793  0.00  0.00    -0.269 N 
HETATM    2  C   UNK N   1      23.707  17.851   4.907  0.00  0.00     0.228 A 
HETATM    3  N   UNK N   1      23.728  19.049   4.266  0.00  0.00    -0.314 N 
ATOM      4  HN  UNK N   1      24.493  19.721   4.207  1.00  0.00     0.170 HD
HETATM    5  C   UNK N   1      22.496  19.140   3.727  0.00  0.00     0.150 A 
HETATM    6  C   UNK N   1      21.948  20.132   2.932  0.00  0.00     0.290 A 
HETATM    7  O   UNK N   1      22.586  21.122   2.624  0.00  0.00    -0.265 OA
HETATM    8  N   UNK N   1      20.657  19.958   2.486  0.00  0.00    -0.154 N 
HETATM    9  C   UNK N   1      19.939  18.836   2.820  0.00  0.00     0.680 A 
HETATM   10  N   UNK N   1      18.624  18.677   2.340  0.00  0.00    -0.234 N 
HETATM   11  N   UNK N   1      20.498  17.864   3.607  0.00  0.00    -0.174 N 
ATOM     12  HN  UNK N   1      19.971  17.026   3.858  1.00  0.00     0.186 HD
HETATM   13  C   UNK N   1      21.767  18.043   4.045  0.00  0.00     0.161 A 
HETATM   14  H   UNK N   1      20.243  20.649   1.918  0.00  0.00     0.187 HD
HETATM   15  H   UNK N   1      18.029  18.003   2.742  0.00  0.00     0.174 HD
HETATM   16  H   UNK N   1      18.300  19.242   1.603  0.00  0.00     0.174 HD
ENDROOT
BRANCH   1  17
HETATM   17  C   UNK N   1      22.168  15.883   5.327  0.00  0.00     0.236 C 
HETATM   18  C   UNK N   1      21.747  15.945   6.784  0.00  0.00     0.088 C 
HETATM   19  C   UNK N   1      20.282  15.712   6.723  0.00  0.00     0.153 C 
HETATM   20  C   UNK N   1      20.143  14.883   5.475  0.00  0.00     0.176 C 
HETATM   21  O   UNK N   1      21.141  15.280   4.566  0.00  0.00    -0.356 OA
BRANCH  19  22
HETATM   22  O   UNK N   1      19.866  14.981   7.837  0.00  0.00    -0.393 OA
HETATM   23  H   UNK N   1      20.202  14.084   7.987  0.00  0.00     0.210 HD
ENDBRANCH  19  22
BRANCH  20  24
HETATM   24  C   UNK N   1      18.765  15.090   4.862  0.00  0.00     0.198 C 
BRANCH  24  25
HETATM   25  O   UNK N   1      17.968  15.868   5.703  0.00  0.00    -0.398 OA
HETATM   26  H   UNK N   1      18.084  16.814   5.882  0.00  0.00     0.209 HD
ENDBRANCH  24  25
ENDBRANCH  20  24
ENDBRANCH   1  17
BRANCH   2  27
HETATM   27  O   UNK N   1      24.763  17.356   5.576  0.00  0.00    -0.332 OA
HETATM   28  H   UNK N   1      25.022  16.463   5.465  0.00  0.00     0.221 HD
ENDBRANCH   2  27
TORSDOF 5
ENDMDL
MODEL 6
REMARK VINA RESULT:      -6.0      6.455      8.774
REMARK  5 active torsions:
REMARK  status: ('A' for Active; 'I' for Inactive)
REMARK    1  A    between atoms: O_1  and  C_2 
REMARK    2  A    between atoms: C_3  and  C_2 
REMARK    3  A    between atoms: C_4  and  O_5 
REMARK    4  A    between atoms: C_7  and  N_9 
REMARK    5  A    between atoms: C_10  and  O_22 
REMARK       I    between atoms: C_17  and  N_18 
ROOT
HETATM    1  N   UNK N   1      34.696  15.210  10.271  0.00  0.00    -0.269 N 
HETATM    2  C   UNK N   1      35.364  16.105  11.044  0.00  0.00     0.228 A 
HETATM    3  N   UNK N   1      35.438  17.339  10.481  0.00  0.00    -0.314 N 
ATOM      4  HN  UNK N   1      35.875  18.181  10.858  1.00  0.00     0.170 HD
HETATM    5  C   UNK N   1      34.795  17.190   9.307  0.00  0.00     0.150 A 
HETATM    6  C   UNK N   1      34.582  18.105   8.290  0.00  0.00     0.290 A 
HETATM    7  O   UNK N   1      34.984  19.252   8.375  0.00  0.00    -0.265 OA
HETATM    8  N   UNK N   1      33.910  17.676   7.168  0.00  0.00    -0.154 N 
HETATM    9  C   UNK N   1      33.467  16.380   7.063  0.00  0.00     0.680 A 
HETATM   10  N   UNK N   1      32.793  15.963   5.899  0.00  0.00    -0.234 N 
HETATM   11  N   UNK N   1      33.687  15.487   8.078  0.00  0.00    -0.174 N 
ATOM     12  HN  UNK N   1      33.363  14.522   8.007  1.00  0.00     0.186 HD
HETATM   13  C   UNK N   1      34.346  15.918   9.181  0.00  0.00     0.161 A 
HETATM   14  H   UNK N   1      33.746  18.307   6.430  0.00  0.00     0.187 HD
HETATM   15  H   UNK N   1      32.284  15.120   5.897  0.00  0.00     0.174 HD
HETATM   16  H   UNK N   1      32.830  16.516   5.085  0.00  0.00     0.174 HD
ENDROOT
BRANCH   1  17
HETATM   17  C   UNK N   1      34.473  13.784  10.559  0.00  0.00     0.236 C 
HETATM   18  C   UNK N   1      35.577  12.908   9.996  0.00  0.00     0.088 C 
HETATM   19  C   UNK N   1      36.325  12.486  11.208  0.00  0.00     0.153 C 
HETATM   20  C   UNK N   1      35.260  12.528  12.270  0.00  0.00     0.176 C 
HETATM   21  O   UNK N   1      34.355  13.557  11.949  0.00  0.00    -0.356 OA
BRANCH  19  22
HETATM   22  O   UNK N   1      36.797  11.181  11.050  0.00  0.00    -0.393 OA
HETATM   23  H   UNK N   1      37.222  10.911  10.221  0.00  0.00     0.210 HD
ENDBRANCH  19  22
BRANCH  20  24
HETATM   24  C   UNK N   1      35.891  12.792  13.631  0.00  0.00     0.198 C 
BRANCH  24  25
HETATM   25  O   UNK N   1      37.174  13.319  13.479  0.00  0.00    -0.398 OA
HETATM   26  H   UNK N   1      37.641  13.447  12.639  0.00  0.00     0.209 HD
ENDBRANCH  24  25
ENDBRANCH  20  24
ENDBRANCH   1  17
BRANCH   2  27
HETATM   27  O   UNK N   1      35.905  15.807  12.239  0.00  0.00    -0.332 OA
HETATM   28  H   UNK N   1      36.179  14.934  12.433  0.00  0.00     0.221 HD
ENDBRANCH   2  27
TORSDOF 5
ENDMDL
MODEL 7
REMARK VINA RESULT:      -6.0      6.907      9.987
REMARK  5 active torsions:
REMARK  status: ('A' for Active; 'I' for Inactive)
REMARK    1  A    between atoms: O_1  and  C_2 
REMARK    2  A    between atoms: C_3  and  C_2 
REMARK    3  A    between atoms: C_4  and  O_5 
REMARK    4  A    between atoms: C_7  and  N_9 
REMARK    5  A    between atoms: C_10  and  O_22 
REMARK       I    between atoms: C_17  and  N_18 
ROOT
HETATM    1  N   UNK N   1      34.828  14.962  10.484  0.00  0.00    -0.269 N 
HETATM    2  C   UNK N   1      35.480  16.095  10.854  0.00  0.00     0.228 A 
HETATM    3  N   UNK N   1      36.080  15.987  12.069  0.00  0.00    -0.314 N 
ATOM      4  HN  UNK N   1      36.633  16.686  12.564  1.00  0.00     0.170 HD
HETATM    5  C   UNK N   1      35.772  14.737  12.463  0.00  0.00     0.150 A 
HETATM    6  C   UNK N   1      36.084  14.077  13.640  0.00  0.00     0.290 A 
HETATM    7  O   UNK N   1      36.743  14.613  14.512  0.00  0.00    -0.265 OA
HETATM    8  N   UNK N   1      35.612  12.793  13.802  0.00  0.00    -0.154 N 
HETATM    9  C   UNK N   1      34.856  12.190  12.826  0.00  0.00     0.680 A 
HETATM   10  N   UNK N   1      34.376  10.880  13.022  0.00  0.00    -0.234 N 
HETATM   11  N   UNK N   1      34.556  12.858  11.669  0.00  0.00    -0.174 N 
ATOM     12  HN  UNK N   1      33.994  12.418  10.940  1.00  0.00     0.186 HD
HETATM   13  C   UNK N   1      35.027  14.120  11.514  0.00  0.00     0.161 A 
HETATM   14  H   UNK N   1      35.819  12.302  14.630  0.00  0.00     0.187 HD
HETATM   15  H   UNK N   1      34.029  10.362  12.260  0.00  0.00     0.174 HD
HETATM   16  H   UNK N   1      34.387  10.484  13.923  0.00  0.00     0.174 HD
ENDROOT
BRANCH   1  17
HETATM   17  C   UNK N   1      34.043  14.753   9.257  0.00  0.00     0.236 C 
HETATM   18  C   UNK N   1      32.584  15.129   9.441  0.00  0.00     0.088 C 
HETATM   19  C   UNK N   1      32.459  16.391   8.667  0.00  0.00     0.153 C 
HETATM   20  C   UNK N   1      33.526  16.228   7.618  0.00  0.00     0.176 C 
HETATM   21  O   UNK N   1      34.584  15.485   8.175  0.00  0.00    -0.356 OA
BRANCH  19  22
HETATM   22  O   UNK N   1      31.201  16.463   8.068  0.00  0.00    -0.393 OA
HETATM   23  H   UNK N   1      30.645  15.671   7.998  0.00  0.00     0.210 HD
ENDBRANCH  19  22
BRANCH  20  24
HETATM   24  C   UNK N   1      34.027  17.593   7.168  0.00  0.00     0.198 C 
BRANCH  24  25
HETATM   25  O   UNK N   1      33.684  18.572   8.102  0.00  0.00    -0.398 OA
HETATM   26  H   UNK N   1      34.201  18.817   8.885  0.00  0.00     0.209 HD
ENDBRANCH  24  25
ENDBRANCH  20  24
ENDBRANCH   1  17
BRANCH   2  27
HETATM   27  O   UNK N   1      35.527  17.212  10.107  0.00  0.00    -0.332 OA
HETATM   28  H   UNK N   1      36.258  17.793  10.165  0.00  0.00     0.221 HD
ENDBRANCH   2  27
TORSDOF 5
ENDMDL
MODEL 8
REMARK VINA RESULT:      -5.8      3.012      5.668
REMARK  5 active torsions:
REMARK  status: ('A' for Active; 'I' for Inactive)
REMARK    1  A    between atoms: O_1  and  C_2 
REMARK    2  A    between atoms: C_3  and  C_2 
REMARK    3  A    between atoms: C_4  and  O_5 
REMARK    4  A    between atoms: C_7  and  N_9 
REMARK    5  A    between atoms: C_10  and  O_22 
REMARK       I    between atoms: C_17  and  N_18 
ROOT
HETATM    1  N   UNK N   1      30.532  16.971   6.305  0.00  0.00    -0.269 N 
HETATM    2  C   UNK N   1      31.149  17.417   5.180  0.00  0.00     0.228 A 
HETATM    3  N   UNK N   1      32.498  17.256   5.217  0.00  0.00    -0.314 N 
ATOM      4  HN  UNK N   1      33.183  17.500   4.502  1.00  0.00     0.170 HD
HETATM    5  C   UNK N   1      32.716  16.696   6.423  0.00  0.00     0.150 A 
HETATM    6  C   UNK N   1      33.907  16.334   7.029  0.00  0.00     0.290 A 
HETATM    7  O   UNK N   1      34.977  16.491   6.469  0.00  0.00    -0.265 OA
HETATM    8  N   UNK N   1      33.847  15.801   8.297  0.00  0.00    -0.154 N 
HETATM    9  C   UNK N   1      32.643  15.635   8.938  0.00  0.00     0.680 A 
HETATM   10  N   UNK N   1      32.611  15.098  10.239  0.00  0.00    -0.234 N 
HETATM   11  N   UNK N   1      31.474  15.999   8.323  0.00  0.00    -0.174 N 
ATOM     12  HN  UNK N   1      30.576  15.881   8.792  1.00  0.00     0.186 HD
HETATM   13  C   UNK N   1      31.540  16.520   7.073  0.00  0.00     0.161 A 
HETATM   14  H   UNK N   1      34.680  15.536   8.751  0.00  0.00     0.187 HD
HETATM   15  H   UNK N   1      31.762  14.771  10.618  0.00  0.00     0.174 HD
HETATM   16  H   UNK N   1      33.438  15.048  10.770  0.00  0.00     0.174 HD
ENDROOT
BRANCH   1  17
HETATM   17  C   UNK N   1      29.094  17.033   6.610  0.00  0.00     0.236 C 
HETATM   18  C   UNK N   1      28.814  17.790   7.896  0.00  0.00     0.088 C 
HETATM   19  C   UNK N   1      28.223  19.065   7.416  0.00  0.00     0.153 C 
HETATM   20  C   UNK N   1      27.593  18.654   6.112  0.00  0.00     0.176 C 
HETATM   21  O   UNK N   1      28.373  17.627   5.549  0.00  0.00    -0.356 OA
BRANCH  19  22
HETATM   22  O   UNK N   1      27.243  19.504   8.308  0.00  0.00    -0.393 OA
HETATM   23  H   UNK N   1      26.388  19.823   7.978  0.00  0.00     0.210 HD
ENDBRANCH  19  22
BRANCH  20  24
HETATM   24  C   UNK N   1      27.531  19.843   5.165  0.00  0.00     0.198 C 
BRANCH  24  25
HETATM   25  O   UNK N   1      28.221  19.564   3.985  0.00  0.00    -0.398 OA
HETATM   26  H   UNK N   1      27.820  19.356   3.126  0.00  0.00     0.209 HD
ENDBRANCH  24  25
ENDBRANCH  20  24
ENDBRANCH   1  17
BRANCH   2  27
HETATM   27  O   UNK N   1      30.502  17.968   4.138  0.00  0.00    -0.332 OA
HETATM   28  H   UNK N   1      30.933  18.585   3.582  0.00  0.00     0.221 HD
ENDBRANCH   2  27
TORSDOF 5
ENDMDL
MODEL 9
REMARK VINA RESULT:      -5.8      2.048      4.181
REMARK  5 active torsions:
REMARK  status: ('A' for Active; 'I' for Inactive)
REMARK    1  A    between atoms: O_1  and  C_2 
REMARK    2  A    between atoms: C_3  and  C_2 
REMARK    3  A    between atoms: C_4  and  O_5 
REMARK    4  A    between atoms: C_7  and  N_9 
REMARK    5  A    between atoms: C_10  and  O_22 
REMARK       I    between atoms: C_17  and  N_18 
ROOT
HETATM    1  N   UNK N   1      29.464  17.636   7.871  0.00  0.00    -0.269 N 
HETATM    2  C   UNK N   1      28.146  17.833   8.138  0.00  0.00     0.228 A 
HETATM    3  N   UNK N   1      27.381  17.892   7.017  0.00  0.00    -0.314 N 
ATOM      4  HN  UNK N   1      26.372  18.023   6.946  1.00  0.00     0.170 HD
HETATM    5  C   UNK N   1      28.272  17.736   6.018  0.00  0.00     0.150 A 
HETATM    6  C   UNK N   1      28.078  17.742   4.648  0.00  0.00     0.290 A 
HETATM    7  O   UNK N   1      26.970  17.893   4.165  0.00  0.00    -0.265 OA
HETATM    8  N   UNK N   1      29.182  17.587   3.840  0.00  0.00    -0.154 N 
HETATM    9  C   UNK N   1      30.436  17.431   4.380  0.00  0.00     0.680 A 
HETATM   10  N   UNK N   1      31.551  17.285   3.532  0.00  0.00    -0.234 N 
HETATM   11  N   UNK N   1      30.610  17.427   5.739  0.00  0.00    -0.174 N 
ATOM     12  HN  UNK N   1      31.538  17.314   6.148  1.00  0.00     0.186 HD
HETATM   13  C   UNK N   1      29.518  17.577   6.528  0.00  0.00     0.161 A 
HETATM   14  H   UNK N   1      29.072  17.589   2.862  0.00  0.00     0.187 HD
HETATM   15  H   UNK N   1      32.406  16.957   3.892  0.00  0.00     0.174 HD
HETATM   16  H   UNK N   1      31.473  17.513   2.578  0.00  0.00     0.174 HD
ENDROOT
BRANCH   1  17
HETATM   17  C   UNK N   1      30.564  17.566   8.845  0.00  0.00     0.236 C 
HETATM   18  C   UNK N   1      31.058  16.145   9.048  0.00  0.00     0.088 C 
HETATM   19  C   UNK N   1      32.377  16.145   8.365  0.00  0.00     0.153 C 
HETATM   20  C   UNK N   1      32.799  17.585   8.486  0.00  0.00     0.176 C 
HETATM   21  O   UNK N   1      31.645  18.389   8.454  0.00  0.00    -0.356 OA
BRANCH  19  22
HETATM   22  O   UNK N   1      33.272  15.321   9.048  0.00  0.00    -0.393 OA
HETATM   23  H   UNK N   1      34.220  15.523   9.051  0.00  0.00     0.210 HD
ENDBRANCH  19  22
BRANCH  20  24
HETATM   24  C   UNK N   1      33.727  17.955   7.337  0.00  0.00     0.198 C 
BRANCH  24  25
HETATM   25  O   UNK N   1      33.511  17.113   6.245  0.00  0.00    -0.398 OA
HETATM   26  H   UNK N   1      34.127  16.964   5.511  0.00  0.00     0.209 HD
ENDBRANCH  24  25
ENDBRANCH  20  24
ENDBRANCH   1  17
BRANCH   2  27
HETATM   27  O   UNK N   1      27.644  17.963   9.379  0.00  0.00    -0.332 OA
HETATM   28  H   UNK N   1      28.176  17.786  10.129  0.00  0.00     0.221 HD
ENDBRANCH   2  27
TORSDOF 5
ENDMDL
