MODEL 1
REMARK VINA RESULT:      -6.2      0.000      0.000
REMARK  4 active torsions:
REMARK  status: ('A' for Active; 'I' for Inactive)
REMARK    1  A    between atoms: C_3  and  N_14 
REMARK    2  A    between atoms: C_7  and  O_8 
REMARK    3  A    between atoms: O_8  and  C_9 
REMARK    4  A    between atoms: C_9  and  C_15 
ROOT
HETATM    1  N   UNK N   1      22.271  20.665   2.074  0.00  0.00    -0.322 N 
ATOM      2  HN  UNK N   1      22.723  21.425   1.564  1.00  0.00     0.169 HD
HETATM    3  C   UNK N   1      21.018  20.247   1.692  0.00  0.00     0.102 A 
HETATM    4  C   UNK N   1      20.375  19.195   2.378  0.00  0.00     0.080 A 
HETATM    5  C   UNK N   1      21.067  18.620   3.437  0.00  0.00     0.068 A 
HETATM    6  C   UNK N   1      22.293  19.049   3.800  0.00  0.00     0.112 A 
HETATM    7  C   UNK N   1      22.926  20.081   3.128  0.00  0.00     0.173 A 
HETATM    8  N   UNK N   1      22.736  18.332   4.842  0.00  0.00    -0.347 N 
ATOM      9  HN  UNK N   1      23.625  18.424   5.334  1.00  0.00     0.167 HD
HETATM   10  C   UNK N   1      21.730  17.455   5.095  0.00  0.00     0.181 A 
HETATM   11  N   UNK N   1      20.686  17.615   4.237  0.00  0.00    -0.350 N 
HETATM   12  H   UNK N   1      19.842  17.109   4.210  0.00  0.00     0.166 HD
ENDROOT
BRANCH   7  13
HETATM   13  O   UNK N   1      24.149  20.482   3.528  0.00  0.00    -0.334 OA
BRANCH  13  14
HETATM   14  C   UNK N   1      25.307  20.312   2.807  0.00  0.00     0.182 C 
BRANCH  14  15
HETATM   15  C   UNK N   1      26.483  20.299   3.777  0.00  0.00     0.010 C 
HETATM   16  C   UNK N   1      26.067  20.800   5.164  0.00  0.00     0.007 C 
HETATM   17  C   UNK N   1      27.282  20.854   6.079  0.00  0.00     0.000 C 
HETATM   18  C   UNK N   1      27.883  19.459   6.213  0.00  0.00     0.000 C 
HETATM   19  C   UNK N   1      28.277  18.915   4.838  0.00  0.00     0.000 C 
HETATM   20  C   UNK N   1      27.073  18.897   3.894  0.00  0.00     0.007 C 
ENDBRANCH  14  15
ENDBRANCH  13  14
ENDBRANCH   7  13
BRANCH   3  21
HETATM   21  N   UNK N   1      20.366  20.875   0.613  0.00  0.00    -0.385 N 
HETATM   22  H   UNK N   1      19.707  21.587   0.782  0.00  0.00     0.157 HD
HETATM   23  H   UNK N   1      20.570  20.603  -0.311  0.00  0.00     0.157 HD
ENDBRANCH   3  21
TORSDOF 4
ENDMDL
MODEL 2
REMARK VINA RESULT:      -6.1     13.942     17.088
REMARK  4 active torsions:
REMARK  status: ('A' for Active; 'I' for Inactive)
REMARK    1  A    between atoms: C_3  and  N_14 
REMARK    2  A    between atoms: C_7  and  O_8 
REMARK    3  A    between atoms: O_8  and  C_9 
REMARK    4  A    between atoms: C_9  and  C_15 
ROOT
HETATM    1  N   UNK N   1      34.710  14.155  11.980  0.00  0.00    -0.322 N 
ATOM      2  HN  UNK N   1      34.028  14.167  12.739  1.00  0.00     0.169 HD
HETATM    3  C   UNK N   1      34.337  14.596  10.731  0.00  0.00     0.102 A 
HETATM    4  C   UNK N   1      35.264  14.596   9.667  0.00  0.00     0.080 A 
HETATM    5  C   UNK N   1      36.544  14.134   9.949  0.00  0.00     0.068 A 
HETATM    6  C   UNK N   1      36.887  13.701  11.178  0.00  0.00     0.112 A 
HETATM    7  C   UNK N   1      35.980  13.701  12.224  0.00  0.00     0.173 A 
HETATM    8  N   UNK N   1      38.170  13.314  11.183  0.00  0.00    -0.347 N 
ATOM      9  HN  UNK N   1      38.710  12.942  11.964  1.00  0.00     0.167 HD
HETATM   10  C   UNK N   1      38.588  13.530   9.908  0.00  0.00     0.181 A 
HETATM   11  N   UNK N   1      37.597  14.038   9.126  0.00  0.00    -0.350 N 
HETATM   12  H   UNK N   1      37.643  14.278   8.173  0.00  0.00     0.166 HD
ENDROOT
BRANCH   7  13
HETATM   13  O   UNK N   1      36.364  13.253  13.436  0.00  0.00    -0.334 OA
BRANCH  13  14
HETATM   14  C   UNK N   1      36.274  13.972  14.605  0.00  0.00     0.182 C 
BRANCH  14  15
HETATM   15  C   UNK N   1      36.322  12.997  15.776  0.00  0.00     0.010 C 
HETATM   16  C   UNK N   1      35.112  13.173  16.698  0.00  0.00     0.007 C 
HETATM   17  C   UNK N   1      35.238  12.244  17.898  0.00  0.00     0.000 C 
HETATM   18  C   UNK N   1      35.295  10.797  17.421  0.00  0.00     0.000 C 
HETATM   19  C   UNK N   1      36.475  10.597  16.468  0.00  0.00     0.000 C 
HETATM   20  C   UNK N   1      36.384  11.555  15.279  0.00  0.00     0.007 C 
ENDBRANCH  14  15
ENDBRANCH  13  14
ENDBRANCH   7  13
BRANCH   3  21
HETATM   21  N   UNK N   1      33.021  15.046  10.508  0.00  0.00    -0.385 N 
HETATM   22  H   UNK N   1      32.426  14.547   9.902  0.00  0.00     0.157 HD
HETATM   23  H   UNK N   1      32.696  15.859  10.957  0.00  0.00     0.157 HD
ENDBRANCH   3  21
TORSDOF 4
ENDMDL
MODEL 3
REMARK VINA RESULT:      -6.0      5.447      7.697
REMARK  4 active torsions:
REMARK  status: ('A' for Active; 'I' for Inactive)
REMARK    1  A    between atoms: C_3  and  N_14 
REMARK    2  A    between atoms: C_7  and  O_8 
REMARK    3  A    between atoms: O_8  and  C_9 
REMARK    4  A    between atoms: C_9  and  C_15 
ROOT
HETATM    1  N   UNK N   1      29.005  18.331   4.695  0.00  0.00    -0.322 N 
ATOM      2  HN  UNK N   1      29.400  18.108   3.781  1.00  0.00     0.169 HD
HETATM    3  C   UNK N   1      28.051  19.317   4.796  0.00  0.00     0.102 A 
HETATM    4  C   UNK N   1      27.485  19.638   6.048  0.00  0.00     0.080 A 
HETATM    5  C   UNK N   1      27.939  18.919   7.146  0.00  0.00     0.068 A 
HETATM    6  C   UNK N   1      28.879  17.960   7.027  0.00  0.00     0.112 A 
HETATM    7  C   UNK N   1      29.436  17.642   5.800  0.00  0.00     0.173 A 
HETATM    8  N   UNK N   1      29.137  17.422   8.227  0.00  0.00    -0.347 N 
ATOM      9  HN  UNK N   1      29.798  16.679   8.453  1.00  0.00     0.167 HD
HETATM   10  C   UNK N   1      28.315  18.094   9.076  0.00  0.00     0.181 A 
HETATM   11  N   UNK N   1      27.564  19.026   8.428  0.00  0.00    -0.350 N 
HETATM   12  H   UNK N   1      26.898  19.639   8.814  0.00  0.00     0.166 HD
ENDROOT
BRANCH   7  13
HETATM   13  O   UNK N   1      30.378  16.681   5.727  0.00  0.00    -0.334 OA
BRANCH  13  14
HETATM   14  C   UNK N   1      31.715  16.906   5.498  0.00  0.00     0.182 C 
BRANCH  14  15
HETATM   15  C   UNK N   1      32.401  17.142   6.839  0.00  0.00     0.010 C 
HETATM   16  C   UNK N   1      32.495  15.848   7.653  0.00  0.00     0.007 C 
HETATM   17  C   UNK N   1      33.107  16.140   9.017  0.00  0.00     0.000 C 
HETATM   18  C   UNK N   1      34.505  16.719   8.836  0.00  0.00     0.000 C 
HETATM   19  C   UNK N   1      34.448  17.996   7.996  0.00  0.00     0.000 C 
HETATM   20  C   UNK N   1      33.796  17.726   6.638  0.00  0.00     0.007 C 
ENDBRANCH  14  15
ENDBRANCH  13  14
ENDBRANCH   7  13
BRANCH   3  21
HETATM   21  N   UNK N   1      27.637  20.015   3.645  0.00  0.00    -0.385 N 
HETATM   22  H   UNK N   1      28.224  20.696   3.244  0.00  0.00     0.157 HD
HETATM   23  H   UNK N   1      26.760  19.822   3.241  0.00  0.00     0.157 HD
ENDBRANCH   3  21
TORSDOF 4
ENDMDL
MODEL 4
REMARK VINA RESULT:      -6.0     13.523     16.749
REMARK  4 active torsions:
REMARK  status: ('A' for Active; 'I' for Inactive)
REMARK    1  A    between atoms: C_3  and  N_14 
REMARK    2  A    between atoms: C_7  and  O_8 
REMARK    3  A    between atoms: O_8  and  C_9 
REMARK    4  A    between atoms: C_9  and  C_15 
ROOT
HETATM    1  N   UNK N   1      37.026  13.681  11.956  0.00  0.00    -0.322 N 
ATOM      2  HN  UNK N   1      37.569  13.331  12.746  1.00  0.00     0.169 HD
HETATM    3  C   UNK N   1      37.627  13.801  10.725  0.00  0.00     0.102 A 
HETATM    4  C   UNK N   1      36.895  14.276   9.615  0.00  0.00     0.080 A 
HETATM    5  C   UNK N   1      35.565  14.610   9.836  0.00  0.00     0.068 A 
HETATM    6  C   UNK N   1      34.996  14.491  11.053  0.00  0.00     0.112 A 
HETATM    7  C   UNK N   1      35.711  14.024  12.143  0.00  0.00     0.173 A 
HETATM    8  N   UNK N   1      33.714  14.875  10.996  0.00  0.00    -0.347 N 
ATOM      9  HN  UNK N   1      33.031  14.896  11.753  1.00  0.00     0.167 HD
HETATM   10  C   UNK N   1      33.530  15.230   9.697  0.00  0.00     0.181 A 
HETATM   11  N   UNK N   1      34.663  15.074   8.961  0.00  0.00    -0.350 N 
HETATM   12  H   UNK N   1      34.792  15.260   8.003  0.00  0.00     0.166 HD
ENDROOT
BRANCH   7  13
HETATM   13  O   UNK N   1      35.105  13.928  13.343  0.00  0.00    -0.334 OA
BRANCH  13  14
HETATM   14  C   UNK N   1      35.757  13.768  14.543  0.00  0.00     0.182 C 
BRANCH  14  15
HETATM   15  C   UNK N   1      35.667  12.302  14.950  0.00  0.00     0.010 C 
HETATM   16  C   UNK N   1      36.027  12.111  16.427  0.00  0.00     0.007 C 
HETATM   17  C   UNK N   1      36.010  10.629  16.774  0.00  0.00     0.000 C 
HETATM   18  C   UNK N   1      34.617  10.061  16.523  0.00  0.00     0.000 C 
HETATM   19  C   UNK N   1      34.213  10.269  15.062  0.00  0.00     0.000 C 
HETATM   20  C   UNK N   1      34.269  11.751  14.687  0.00  0.00     0.007 C 
ENDBRANCH  14  15
ENDBRANCH  13  14
ENDBRANCH   7  13
BRANCH   3  21
HETATM   21  N   UNK N   1      38.982  13.451  10.567  0.00  0.00    -0.385 N 
HETATM   22  H   UNK N   1      39.277  12.529  10.749  0.00  0.00     0.157 HD
HETATM   23  H   UNK N   1      39.634  14.128  10.274  0.00  0.00     0.157 HD
ENDBRANCH   3  21
TORSDOF 4
ENDMDL
MODEL 5
REMARK VINA RESULT:      -5.9      6.169      9.410
REMARK  4 active torsions:
REMARK  status: ('A' for Active; 'I' for Inactive)
REMARK    1  A    between atoms: C_3  and  N_14 
REMARK    2  A    between atoms: C_7  and  O_8 
REMARK    3  A    between atoms: O_8  and  C_9 
REMARK    4  A    between atoms: C_9  and  C_15 
ROOT
HETATM    1  N   UNK N   1      31.479  16.937   8.147  0.00  0.00    -0.322 N 
ATOM      2  HN  UNK N   1      30.977  16.763   9.018  1.00  0.00     0.169 HD
HETATM    3  C   UNK N   1      32.836  17.162   8.183  0.00  0.00     0.102 A 
HETATM    4  C   UNK N   1      33.553  17.399   6.991  0.00  0.00     0.080 A 
HETATM    5  C   UNK N   1      32.825  17.393   5.808  0.00  0.00     0.068 A 
HETATM    6  C   UNK N   1      31.494  17.176   5.795  0.00  0.00     0.112 A 
HETATM    7  C   UNK N   1      30.788  16.942   6.963  0.00  0.00     0.173 A 
HETATM    8  N   UNK N   1      31.038  17.221   4.535  0.00  0.00    -0.347 N 
ATOM      9  HN  UNK N   1      30.079  17.095   4.211  1.00  0.00     0.167 HD
HETATM   10  C   UNK N   1      32.144  17.473   3.789  0.00  0.00     0.181 A 
HETATM   11  N   UNK N   1      33.263  17.584   4.556  0.00  0.00    -0.350 N 
HETATM   12  H   UNK N   1      34.184  17.764   4.259  0.00  0.00     0.166 HD
ENDROOT
BRANCH   7  13
HETATM   13  O   UNK N   1      29.458  16.737   6.904  0.00  0.00    -0.334 OA
BRANCH  13  14
HETATM   14  C   UNK N   1      28.506  17.595   7.404  0.00  0.00     0.182 C 
BRANCH  14  15
HETATM   15  C   UNK N   1      28.330  18.746   6.421  0.00  0.00     0.010 C 
HETATM   16  C   UNK N   1      27.554  18.304   5.177  0.00  0.00     0.007 C 
HETATM   17  C   UNK N   1      27.472  19.454   4.183  0.00  0.00     0.000 C 
HETATM   18  C   UNK N   1      26.753  20.635   4.825  0.00  0.00     0.000 C 
HETATM   19  C   UNK N   1      27.486  21.079   6.093  0.00  0.00     0.000 C 
HETATM   20  C   UNK N   1      27.614  19.920   7.083  0.00  0.00     0.007 C 
ENDBRANCH  14  15
ENDBRANCH  13  14
ENDBRANCH   7  13
BRANCH   3  21
HETATM   21  N   UNK N   1      33.516  17.161   9.416  0.00  0.00    -0.385 N 
HETATM   22  H   UNK N   1      34.496  17.259   9.439  0.00  0.00     0.157 HD
HETATM   23  H   UNK N   1      33.012  17.062  10.256  0.00  0.00     0.157 HD
ENDBRANCH   3  21
TORSDOF 4
ENDMDL
MODEL 6
REMARK VINA RESULT:      -5.9     16.903     19.054
REMARK  4 active torsions:
REMARK  status: ('A' for Active; 'I' for Inactive)
REMARK    1  A    between atoms: C_3  and  N_14 
REMARK    2  A    between atoms: C_7  and  O_8 
REMARK    3  A    between atoms: O_8  and  C_9 
REMARK    4  A    between atoms: C_9  and  C_15 
ROOT
HETATM    1  N   UNK N   1      43.717  23.348   2.887  0.00  0.00    -0.322 N 
ATOM      2  HN  UNK N   1      44.203  24.238   2.772  1.00  0.00     0.169 HD
HETATM    3  C   UNK N   1      44.342  22.317   3.549  0.00  0.00     0.102 A 
HETATM    4  C   UNK N   1      43.687  21.080   3.726  0.00  0.00     0.080 A 
HETATM    5  C   UNK N   1      42.404  20.967   3.203  0.00  0.00     0.068 A 
HETATM    6  C   UNK N   1      41.812  21.988   2.553  0.00  0.00     0.112 A 
HETATM    7  C   UNK N   1      42.451  23.204   2.378  0.00  0.00     0.173 A 
HETATM    8  N   UNK N   1      40.586  21.623   2.153  0.00  0.00    -0.347 N 
ATOM      9  HN  UNK N   1      39.901  22.179   1.639  1.00  0.00     0.167 HD
HETATM   10  C   UNK N   1      40.462  20.341   2.587  0.00  0.00     0.181 A 
HETATM   11  N   UNK N   1      41.577  19.914   3.240  0.00  0.00    -0.350 N 
HETATM   12  H   UNK N   1      41.738  19.033   3.647  0.00  0.00     0.166 HD
ENDROOT
BRANCH   7  13
HETATM   13  O   UNK N   1      41.824  24.195   1.716  0.00  0.00    -0.334 OA
BRANCH  13  14
HETATM   14  C   UNK N   1      41.826  24.353   0.350  0.00  0.00     0.182 C 
BRANCH  14  15
HETATM   15  C   UNK N   1      40.397  24.627  -0.106  0.00  0.00     0.010 C 
HETATM   16  C   UNK N   1      40.253  26.045  -0.667  0.00  0.00     0.007 C 
HETATM   17  C   UNK N   1      38.799  26.310  -1.032  0.00  0.00     0.000 C 
HETATM   18  C   UNK N   1      38.346  25.308  -2.088  0.00  0.00     0.000 C 
HETATM   19  C   UNK N   1      38.511  23.878  -1.570  0.00  0.00     0.000 C 
HETATM   20  C   UNK N   1      39.961  23.612  -1.159  0.00  0.00     0.007 C 
ENDBRANCH  14  15
ENDBRANCH  13  14
ENDBRANCH   7  13
BRANCH   3  21
HETATM   21  N   UNK N   1      45.646  22.492   4.050  0.00  0.00    -0.385 N 
HETATM   22  H   UNK N   1      46.244  21.716   4.151  0.00  0.00     0.157 HD
HETATM   23  H   UNK N   1      45.961  23.391   4.300  0.00  0.00     0.157 HD
ENDBRANCH   3  21
TORSDOF 4
ENDMDL
MODEL 7
REMARK VINA RESULT:      -5.7      1.598      2.180
REMARK  4 active torsions:
REMARK  status: ('A' for Active; 'I' for Inactive)
REMARK    1  A    between atoms: C_3  and  N_14 
REMARK    2  A    between atoms: C_7  and  O_8 
REMARK    3  A    between atoms: O_8  and  C_9 
REMARK    4  A    between atoms: C_9  and  C_15 
ROOT
HETATM    1  N   UNK N   1      20.953  18.965   2.618  0.00  0.00    -0.322 N 
ATOM      2  HN  UNK N   1      21.038  19.620   1.840  1.00  0.00     0.169 HD
HETATM    3  C   UNK N   1      19.999  17.976   2.566  0.00  0.00     0.102 A 
HETATM    4  C   UNK N   1      19.868  17.054   3.626  0.00  0.00     0.080 A 
HETATM    5  C   UNK N   1      20.737  17.202   4.700  0.00  0.00     0.068 A 
HETATM    6  C   UNK N   1      21.662  18.182   4.733  0.00  0.00     0.112 A 
HETATM    7  C   UNK N   1      21.794  19.088   3.694  0.00  0.00     0.173 A 
HETATM    8  N   UNK N   1      22.368  18.104   5.870  0.00  0.00    -0.347 N 
ATOM      9  HN  UNK N   1      23.132  18.706   6.177  1.00  0.00     0.167 HD
HETATM   10  C   UNK N   1      21.833  17.038   6.521  0.00  0.00     0.181 A 
HETATM   11  N   UNK N   1      20.822  16.464   5.815  0.00  0.00    -0.350 N 
HETATM   12  H   UNK N   1      20.276  15.685   6.066  0.00  0.00     0.166 HD
ENDROOT
BRANCH   7  13
HETATM   13  O   UNK N   1      22.728  20.056   3.772  0.00  0.00    -0.334 OA
BRANCH  13  14
HETATM   14  C   UNK N   1      23.842  20.141   2.970  0.00  0.00     0.182 C 
BRANCH  14  15
HETATM   15  C   UNK N   1      25.053  19.684   3.776  0.00  0.00     0.010 C 
HETATM   16  C   UNK N   1      25.287  18.178   3.625  0.00  0.00     0.007 C 
HETATM   17  C   UNK N   1      26.448  17.745   4.508  0.00  0.00     0.000 C 
HETATM   18  C   UNK N   1      27.712  18.491   4.093  0.00  0.00     0.000 C 
HETATM   19  C   UNK N   1      27.498  20.001   4.199  0.00  0.00     0.000 C 
HETATM   20  C   UNK N   1      26.305  20.444   3.349  0.00  0.00     0.007 C 
ENDBRANCH  14  15
ENDBRANCH  13  14
ENDBRANCH   7  13
BRANCH   3  21
HETATM   21  N   UNK N   1      19.143  17.882   1.452  0.00  0.00    -0.385 N 
HETATM   22  H   UNK N   1      19.519  17.751   0.551  0.00  0.00     0.157 HD
HETATM   23  H   UNK N   1      18.168  17.949   1.573  0.00  0.00     0.157 HD
ENDBRANCH   3  21
TORSDOF 4
ENDMDL
MODEL 8
REMARK VINA RESULT:      -5.7      5.949      9.071
REMARK  4 active torsions:
REMARK  status: ('A' for Active; 'I' for Inactive)
REMARK    1  A    between atoms: C_3  and  N_14 
REMARK    2  A    between atoms: C_7  and  O_8 
REMARK    3  A    between atoms: O_8  and  C_9 
REMARK    4  A    between atoms: C_9  and  C_15 
ROOT
HETATM    1  N   UNK N   1      30.764  17.182   5.100  0.00  0.00    -0.322 N 
ATOM      2  HN  UNK N   1      29.907  17.070   4.557  1.00  0.00     0.169 HD
HETATM    3  C   UNK N   1      31.960  17.363   4.444  0.00  0.00     0.102 A 
HETATM    4  C   UNK N   1      33.157  17.526   5.173  0.00  0.00     0.080 A 
HETATM    5  C   UNK N   1      33.059  17.491   6.559  0.00  0.00     0.068 A 
HETATM    6  C   UNK N   1      31.878  17.306   7.182  0.00  0.00     0.112 A 
HETATM    7  C   UNK N   1      30.701  17.147   6.470  0.00  0.00     0.173 A 
HETATM    8  N   UNK N   1      32.058  17.314   8.510  0.00  0.00    -0.347 N 
ATOM      9  HN  UNK N   1      31.353  17.199   9.239  1.00  0.00     0.167 HD
HETATM   10  C   UNK N   1      33.393  17.511   8.664  0.00  0.00     0.181 A 
HETATM   11  N   UNK N   1      34.033  17.623   7.469  0.00  0.00    -0.350 N 
HETATM   12  H   UNK N   1      34.993  17.768   7.309  0.00  0.00     0.166 HD
ENDROOT
BRANCH   7  13
HETATM   13  O   UNK N   1      29.544  16.958   7.133  0.00  0.00    -0.334 OA
BRANCH  13  14
HETATM   14  C   UNK N   1      28.720  17.964   7.580  0.00  0.00     0.182 C 
BRANCH  14  15
HETATM   15  C   UNK N   1      28.261  18.783   6.379  0.00  0.00     0.010 C 
HETATM   16  C   UNK N   1      27.220  18.024   5.552  0.00  0.00     0.007 C 
HETATM   17  C   UNK N   1      26.850  18.835   4.318  0.00  0.00     0.000 C 
HETATM   18  C   UNK N   1      26.266  20.178   4.745  0.00  0.00     0.000 C 
HETATM   19  C   UNK N   1      27.271  20.946   5.604  0.00  0.00     0.000 C 
HETATM   20  C   UNK N   1      27.685  20.124   6.826  0.00  0.00     0.007 C 
ENDBRANCH  14  15
ENDBRANCH  13  14
ENDBRANCH   7  13
BRANCH   3  21
HETATM   21  N   UNK N   1      31.993  17.383   3.036  0.00  0.00    -0.385 N 
HETATM   22  H   UNK N   1      32.151  18.230   2.559  0.00  0.00     0.157 HD
HETATM   23  H   UNK N   1      31.859  16.550   2.529  0.00  0.00     0.157 HD
ENDBRANCH   3  21
TORSDOF 4
ENDMDL
MODEL 9
REMARK VINA RESULT:      -5.6     15.449     18.142
REMARK  4 active torsions:
REMARK  status: ('A' for Active; 'I' for Inactive)
REMARK    1  A    between atoms: C_3  and  N_14 
REMARK    2  A    between atoms: C_7  and  O_8 
REMARK    3  A    between atoms: O_8  and  C_9 
REMARK    4  A    between atoms: C_9  and  C_15 
ROOT
HETATM    1  N   UNK N   1      37.184  11.777  12.800  0.00  0.00    -0.322 N 
ATOM      2  HN  UNK N   1      37.293  11.109  13.565  1.00  0.00     0.169 HD
HETATM    3  C   UNK N   1      37.443  11.374  11.511  0.00  0.00     0.102 A 
HETATM    4  C   UNK N   1      37.294  12.277  10.436  0.00  0.00     0.080 A 
HETATM    5  C   UNK N   1      36.883  13.566  10.751  0.00  0.00     0.068 A 
HETATM    6  C   UNK N   1      36.640  13.942  12.023  0.00  0.00     0.112 A 
HETATM    7  C   UNK N   1      36.784  13.059  13.079  0.00  0.00     0.173 A 
HETATM    8  N   UNK N   1      36.258  15.227  12.053  0.00  0.00    -0.347 N 
ATOM      9  HN  UNK N   1      36.009  15.788  12.867  1.00  0.00     0.167 HD
HETATM   10  C   UNK N   1      36.280  15.611  10.749  0.00  0.00     0.181 A 
HETATM   11  N   UNK N   1      36.664  14.598   9.926  0.00  0.00    -0.350 N 
HETATM   12  H   UNK N   1      36.760  14.619   8.947  0.00  0.00     0.166 HD
ENDROOT
BRANCH   7  13
HETATM   13  O   UNK N   1      36.538  13.479  14.335  0.00  0.00    -0.334 OA
BRANCH  13  14
HETATM   14  C   UNK N   1      35.378  13.236  15.033  0.00  0.00     0.182 C 
BRANCH  14  15
HETATM   15  C   UNK N   1      35.747  12.736  16.425  0.00  0.00     0.010 C 
HETATM   16  C   UNK N   1      34.864  13.378  17.500  0.00  0.00     0.007 C 
HETATM   17  C   UNK N   1      35.318  12.921  18.880  0.00  0.00     0.000 C 
HETATM   18  C   UNK N   1      35.203  11.404  18.980  0.00  0.00     0.000 C 
HETATM   19  C   UNK N   1      36.047  10.734  17.895  0.00  0.00     0.000 C 
HETATM   20  C   UNK N   1      35.631  11.217  16.504  0.00  0.00     0.007 C 
ENDBRANCH  14  15
ENDBRANCH  13  14
ENDBRANCH   7  13
BRANCH   3  21
HETATM   21  N   UNK N   1      37.863  10.054  11.258  0.00  0.00    -0.385 N 
HETATM   22  H   UNK N   1      38.048   9.764  10.335  0.00  0.00     0.157 HD
HETATM   23  H   UNK N   1      37.973   9.420  12.003  0.00  0.00     0.157 HD
ENDBRANCH   3  21
TORSDOF 4
ENDMDL
