REMARK  4 active torsions:
REMARK  status: ('A' for Active; 'I' for Inactive)
REMARK    1  A    between atoms: C_3  and  N_14 
REMARK    2  A    between atoms: C_7  and  O_8 
REMARK    3  A    between atoms: O_8  and  C_9 
REMARK    4  A    between atoms: C_9  and  C_15 
ROOT
HETATM    1  N   UNK N   1       1.867  -1.890  -0.006  0.00  0.00    -0.322 N 
ATOM      2  HN  UNK N   1       2.643  -1.227  -0.007  1.00  0.00     0.169 HD
HETATM    3  C   UNK N   1       2.132  -3.239   0.036  0.00  0.00     0.102 A 
HETATM    4  C   UNK N   1       1.076  -4.175   0.045  0.00  0.00     0.080 A 
HETATM    5  C   UNK N   1      -0.216  -3.665   0.008  0.00  0.00     0.068 A 
HETATM    6  C   UNK N   1      -0.454  -2.339  -0.039  0.00  0.00     0.112 A 
HETATM    7  C   UNK N   1       0.580  -1.418  -0.047  0.00  0.00     0.173 A 
HETATM    8  N   UNK N   1      -1.775  -2.114  -0.066  0.00  0.00    -0.347 N 
ATOM      9  HN  UNK N   1      -2.258  -1.216  -0.103  1.00  0.00     0.167 HD
HETATM   10  C   UNK N   1      -2.325  -3.356  -0.034  0.00  0.00     0.181 A 
HETATM   11  N   UNK N   1      -1.378  -4.332   0.012  0.00  0.00    -0.350 N 
HETATM   12  H   UNK N   1      -1.515  -5.306   0.041  0.00  0.00     0.166 HD
ENDROOT
BRANCH   7  13
HETATM   13  O   UNK N   1       0.297  -0.102  -0.101  0.00  0.00    -0.334 OA
BRANCH  13  14
HETATM   14  C   UNK N   1       1.216   0.908   0.061  0.00  0.00     0.182 C 
BRANCH  14  15
HETATM   15  C   UNK N   1       0.550   2.230  -0.303  0.00  0.00     0.010 C 
HETATM   16  C   UNK N   1      -0.839   2.348   0.332  0.00  0.00     0.007 C 
HETATM   17  C   UNK N   1      -1.506   3.639  -0.122  0.00  0.00     0.000 C 
HETATM   18  C   UNK N   1      -0.658   4.831   0.308  0.00  0.00     0.000 C 
HETATM   19  C   UNK N   1       0.749   4.724  -0.282  0.00  0.00     0.000 C 
HETATM   20  C   UNK N   1       1.415   3.410   0.131  0.00  0.00     0.007 C 
ENDBRANCH  14  15
ENDBRANCH  13  14
ENDBRANCH   7  13
BRANCH   3  21
HETATM   21  N   UNK N   1       3.465  -3.693   0.066  0.00  0.00    -0.385 N 
HETATM   22  H   UNK N   1       3.656  -4.659   0.087  0.00  0.00     0.157 HD
HETATM   23  H   UNK N   1       4.206  -3.045   0.066  0.00  0.00     0.157 HD
ENDBRANCH   3  21
TORSDOF 4
