MODEL 1
REMARK VINA RESULT:      -6.3      0.000      0.000
REMARK  7 active torsions:
REMARK  status: ('A' for Active; 'I' for Inactive)
REMARK    1  A    between atoms: C_4  and  C_7 
REMARK    2  A    between atoms: C_5  and  O_8 
REMARK    3  A    between atoms: P_9  and  O_8 
REMARK    4  A    between atoms: P_9  and  O_10 
REMARK    5  A    between atoms: P_9  and  O_14 
REMARK    6  A    between atoms: O_10  and  C_12 
REMARK    7  A    between atoms: C_12  and  C_15 
ROOT
HETATM    1  P   UNK N   1      29.077  18.020   8.978  0.00  0.00     0.398 P 
HETATM    2  O   UNK N   1      27.808  17.278   9.476  0.00  0.00    -0.631 OA
ENDROOT
BRANCH   1   3
HETATM    3  O   UNK N   1      30.178  16.809   8.449  0.00  0.00    -0.254 OA
BRANCH   3   4
HETATM    4  C   UNK N   1      31.338  17.050   7.792  0.00  0.00     0.094 A 
HETATM    5  C   UNK N   1      31.558  16.460   6.525  0.00  0.00     0.035 A 
HETATM    6  C   UNK N   1      32.758  16.709   5.848  0.00  0.00     0.017 A 
HETATM    7  C   UNK N   1      33.736  17.529   6.414  0.00  0.00     0.001 A 
HETATM    8  C   UNK N   1      33.522  18.112   7.663  0.00  0.00     0.003 A 
HETATM    9  C   UNK N   1      32.328  17.877   8.349  0.00  0.00     0.038 A 
BRANCH   5  10
HETATM   10  C   UNK N   1      30.558  15.600   5.863  0.00  0.00     0.272 C 
HETATM   11  O   UNK N   1      30.589  14.382   5.958  0.00  0.00    -0.301 OA
ENDBRANCH   5  10
ENDBRANCH   3   4
ENDBRANCH   1   3
BRANCH   1  12
HETATM   12  O   UNK N   1      28.572  19.122   7.719  0.00  0.00    -0.296 OA
BRANCH  12  13
HETATM   13  C   UNK N   1      27.986  18.315   6.735  0.00  0.00     0.185 C 
BRANCH  13  14
HETATM   14  C   UNK N   1      28.329  18.819   5.335  0.00  0.00     0.010 C 
HETATM   15  C   UNK N   1      27.993  17.751   4.289  0.00  0.00     0.007 C 
HETATM   16  C   UNK N   1      26.494  17.716   4.002  0.00  0.00     0.000 C 
HETATM   17  C   UNK N   1      25.935  19.091   3.603  0.00  0.00     0.000 C 
HETATM   18  C   UNK N   1      26.960  20.225   3.714  0.00  0.00     0.000 C 
HETATM   19  C   UNK N   1      27.660  20.175   5.072  0.00  0.00     0.007 C 
ENDBRANCH  13  14
ENDBRANCH  12  13
ENDBRANCH   1  12
BRANCH   1  20
HETATM   20  O   UNK N   1      29.741  18.850  10.353  0.00  0.00    -0.307 OA
HETATM   21  H   UNK N   1      29.820  19.816  10.348  0.00  0.00     0.222 HD
ENDBRANCH   1  20
TORSDOF 7
ENDMDL
MODEL 2
REMARK VINA RESULT:      -6.0      1.180      2.031
REMARK  7 active torsions:
REMARK  status: ('A' for Active; 'I' for Inactive)
REMARK    1  A    between atoms: C_4  and  C_7 
REMARK    2  A    between atoms: C_5  and  O_8 
REMARK    3  A    between atoms: P_9  and  O_8 
REMARK    4  A    between atoms: P_9  and  O_10 
REMARK    5  A    between atoms: P_9  and  O_14 
REMARK    6  A    between atoms: O_10  and  C_12 
REMARK    7  A    between atoms: C_12  and  C_15 
ROOT
HETATM    1  P   UNK N   1      29.191  18.005   8.525  0.00  0.00     0.398 P 
HETATM    2  O   UNK N   1      27.886  17.256   8.904  0.00  0.00    -0.631 OA
ENDROOT
BRANCH   1   3
HETATM    3  O   UNK N   1      30.266  16.825   7.883  0.00  0.00    -0.254 OA
BRANCH   3   4
HETATM    4  C   UNK N   1      31.222  17.071   6.955  0.00  0.00     0.094 A 
HETATM    5  C   UNK N   1      32.543  17.353   7.372  0.00  0.00     0.035 A 
HETATM    6  C   UNK N   1      33.530  17.607   6.412  0.00  0.00     0.017 A 
HETATM    7  C   UNK N   1      33.219  17.588   5.051  0.00  0.00     0.001 A 
HETATM    8  C   UNK N   1      31.916  17.309   4.636  0.00  0.00     0.003 A 
HETATM    9  C   UNK N   1      30.922  17.049   5.582  0.00  0.00     0.038 A 
BRANCH   5  10
HETATM   10  C   UNK N   1      32.943  17.371   8.793  0.00  0.00     0.272 C 
HETATM   11  O   UNK N   1      34.102  17.557   9.136  0.00  0.00    -0.301 OA
ENDBRANCH   5  10
ENDBRANCH   3   4
ENDBRANCH   1   3
BRANCH   1  12
HETATM   12  O   UNK N   1      28.757  19.264   7.394  0.00  0.00    -0.296 OA
BRANCH  12  13
HETATM   13  C   UNK N   1      27.850  18.668   6.508  0.00  0.00     0.185 C 
BRANCH  13  14
HETATM   14  C   UNK N   1      28.054  19.182   5.085  0.00  0.00     0.010 C 
HETATM   15  C   UNK N   1      27.761  18.071   4.071  0.00  0.00     0.007 C 
HETATM   16  C   UNK N   1      26.257  17.883   3.880  0.00  0.00     0.000 C 
HETATM   17  C   UNK N   1      25.542  19.192   3.505  0.00  0.00     0.000 C 
HETATM   18  C   UNK N   1      26.455  20.421   3.541  0.00  0.00     0.000 C 
HETATM   19  C   UNK N   1      27.239  20.462   4.853  0.00  0.00     0.007 C 
ENDBRANCH  13  14
ENDBRANCH  12  13
ENDBRANCH   1  12
BRANCH   1  20
HETATM   20  O   UNK N   1      29.845  18.643  10.004  0.00  0.00    -0.307 OA
HETATM   21  H   UNK N   1      29.425  18.436  10.852  0.00  0.00     0.222 HD
ENDBRANCH   1  20
TORSDOF 7
ENDMDL
MODEL 3
REMARK VINA RESULT:      -6.0     12.127     15.139
REMARK  7 active torsions:
REMARK  status: ('A' for Active; 'I' for Inactive)
REMARK    1  A    between atoms: C_4  and  C_7 
REMARK    2  A    between atoms: C_5  and  O_8 
REMARK    3  A    between atoms: P_9  and  O_8 
REMARK    4  A    between atoms: P_9  and  O_10 
REMARK    5  A    between atoms: P_9  and  O_14 
REMARK    6  A    between atoms: O_10  and  C_12 
REMARK    7  A    between atoms: C_12  and  C_15 
ROOT
HETATM    1  P   UNK N   1      26.200  24.480  -5.339  0.00  0.00     0.398 P 
HETATM    2  O   UNK N   1      26.045  24.368  -3.798  0.00  0.00    -0.631 OA
ENDROOT
BRANCH   1   3
HETATM    3  O   UNK N   1      25.626  26.041  -5.778  0.00  0.00    -0.254 OA
BRANCH   3   4
HETATM    4  C   UNK N   1      26.406  27.135  -5.946  0.00  0.00     0.094 A 
HETATM    5  C   UNK N   1      26.412  28.146  -4.957  0.00  0.00     0.035 A 
HETATM    6  C   UNK N   1      27.219  29.277  -5.131  0.00  0.00     0.017 A 
HETATM    7  C   UNK N   1      28.010  29.415  -6.273  0.00  0.00     0.001 A 
HETATM    8  C   UNK N   1      28.007  28.419  -7.250  0.00  0.00     0.003 A 
HETATM    9  C   UNK N   1      27.211  27.283  -7.087  0.00  0.00     0.038 A 
BRANCH   5  10
HETATM   10  C   UNK N   1      25.614  28.054  -3.718  0.00  0.00     0.272 C 
HETATM   11  O   UNK N   1      26.041  27.504  -2.714  0.00  0.00    -0.301 OA
ENDBRANCH   5  10
ENDBRANCH   3   4
ENDBRANCH   1   3
BRANCH   1  12
HETATM   12  O   UNK N   1      27.886  24.211  -5.710  0.00  0.00    -0.296 OA
BRANCH  12  13
HETATM   13  C   UNK N   1      28.586  24.622  -4.569  0.00  0.00     0.185 C 
BRANCH  13  14
HETATM   14  C   UNK N   1      30.031  24.129  -4.603  0.00  0.00     0.010 C 
HETATM   15  C   UNK N   1      30.549  23.903  -3.179  0.00  0.00     0.007 C 
HETATM   16  C   UNK N   1      30.024  22.590  -2.604  0.00  0.00     0.000 C 
HETATM   17  C   UNK N   1      30.324  21.385  -3.510  0.00  0.00     0.000 C 
HETATM   18  C   UNK N   1      30.955  21.770  -4.852  0.00  0.00     0.000 C 
HETATM   19  C   UNK N   1      30.157  22.896  -5.510  0.00  0.00     0.007 C 
ENDBRANCH  13  14
ENDBRANCH  12  13
ENDBRANCH   1  12
BRANCH   1  20
HETATM   20  O   UNK N   1      25.170  23.264  -6.032  0.00  0.00    -0.307 OA
HETATM   21  H   UNK N   1      24.636  22.693  -5.460  0.00  0.00     0.222 HD
ENDBRANCH   1  20
TORSDOF 7
ENDMDL
MODEL 4
REMARK VINA RESULT:      -5.9      8.745     10.860
REMARK  7 active torsions:
REMARK  status: ('A' for Active; 'I' for Inactive)
REMARK    1  A    between atoms: C_4  and  C_7 
REMARK    2  A    between atoms: C_5  and  O_8 
REMARK    3  A    between atoms: P_9  and  O_8 
REMARK    4  A    between atoms: P_9  and  O_10 
REMARK    5  A    between atoms: P_9  and  O_14 
REMARK    6  A    between atoms: O_10  and  C_12 
REMARK    7  A    between atoms: C_12  and  C_15 
ROOT
HETATM    1  P   UNK N   1      36.075  13.788  13.995  0.00  0.00     0.398 P 
HETATM    2  O   UNK N   1      36.807  14.900  14.793  0.00  0.00    -0.631 OA
ENDROOT
BRANCH   1   3
HETATM    3  O   UNK N   1      34.815  13.204  15.009  0.00  0.00    -0.254 OA
BRANCH   3   4
HETATM    4  C   UNK N   1      34.989  12.718  16.261  0.00  0.00     0.094 A 
HETATM    5  C   UNK N   1      35.068  11.320  16.462  0.00  0.00     0.035 A 
HETATM    6  C   UNK N   1      35.248  10.819  17.757  0.00  0.00     0.017 A 
HETATM    7  C   UNK N   1      35.345  11.686  18.847  0.00  0.00     0.001 A 
HETATM    8  C   UNK N   1      35.268  13.066  18.652  0.00  0.00     0.003 A 
HETATM    9  C   UNK N   1      35.093  13.580  17.365  0.00  0.00     0.038 A 
BRANCH   5  10
HETATM   10  C   UNK N   1      34.992  10.350  15.352  0.00  0.00     0.272 C 
HETATM   11  O   UNK N   1      35.974  10.050  14.688  0.00  0.00    -0.301 OA
ENDBRANCH   5  10
ENDBRANCH   3   4
ENDBRANCH   1   3
BRANCH   1  12
HETATM   12  O   UNK N   1      35.514  14.505  12.504  0.00  0.00    -0.296 OA
BRANCH  12  13
HETATM   13  C   UNK N   1      36.476  14.163  11.544  0.00  0.00     0.185 C 
BRANCH  13  14
HETATM   14  C   UNK N   1      36.490  15.170  10.396  0.00  0.00     0.010 C 
HETATM   15  C   UNK N   1      36.053  14.495   9.092  0.00  0.00     0.007 C 
HETATM   16  C   UNK N   1      34.536  14.328   9.040  0.00  0.00     0.000 C 
HETATM   17  C   UNK N   1      33.787  15.651   9.268  0.00  0.00     0.000 C 
HETATM   18  C   UNK N   1      34.706  16.820   9.637  0.00  0.00     0.000 C 
HETATM   19  C   UNK N   1      35.661  16.411  10.759  0.00  0.00     0.007 C 
ENDBRANCH  13  14
ENDBRANCH  12  13
ENDBRANCH   1  12
BRANCH   1  20
HETATM   20  O   UNK N   1      37.236  12.524  13.723  0.00  0.00    -0.307 OA
HETATM   21  H   UNK N   1      38.000  12.429  14.312  0.00  0.00     0.222 HD
ENDBRANCH   1  20
TORSDOF 7
ENDMDL
MODEL 5
REMARK VINA RESULT:      -5.9      5.454      7.182
REMARK  7 active torsions:
REMARK  status: ('A' for Active; 'I' for Inactive)
REMARK    1  A    between atoms: C_4  and  C_7 
REMARK    2  A    between atoms: C_5  and  O_8 
REMARK    3  A    between atoms: P_9  and  O_8 
REMARK    4  A    between atoms: P_9  and  O_10 
REMARK    5  A    between atoms: P_9  and  O_14 
REMARK    6  A    between atoms: O_10  and  C_12 
REMARK    7  A    between atoms: C_12  and  C_15 
ROOT
HETATM    1  P   UNK N   1      34.688  15.635  10.105  0.00  0.00     0.398 P 
HETATM    2  O   UNK N   1      34.579  14.816   8.791  0.00  0.00    -0.631 OA
ENDROOT
BRANCH   1   3
HETATM    3  O   UNK N   1      36.252  15.326  10.748  0.00  0.00    -0.254 OA
BRANCH   3   4
HETATM    4  C   UNK N   1      36.830  14.103  10.829  0.00  0.00     0.094 A 
HETATM    5  C   UNK N   1      36.766  13.380  12.043  0.00  0.00     0.035 A 
HETATM    6  C   UNK N   1      37.363  12.116  12.125  0.00  0.00     0.017 A 
HETATM    7  C   UNK N   1      38.024  11.570  11.023  0.00  0.00     0.001 A 
HETATM    8  C   UNK N   1      38.088  12.281   9.824  0.00  0.00     0.003 A 
HETATM    9  C   UNK N   1      37.493  13.541   9.726  0.00  0.00     0.038 A 
BRANCH   5  10
HETATM   10  C   UNK N   1      36.067  13.891  13.239  0.00  0.00     0.272 C 
HETATM   11  O   UNK N   1      34.885  13.659  13.445  0.00  0.00    -0.301 OA
ENDBRANCH   5  10
ENDBRANCH   3   4
ENDBRANCH   1   3
BRANCH   1  12
HETATM   12  O   UNK N   1      34.404  17.310   9.696  0.00  0.00    -0.296 OA
BRANCH  12  13
HETATM   13  C   UNK N   1      34.641  17.400   8.319  0.00  0.00     0.185 C 
BRANCH  13  14
HETATM   14  C   UNK N   1      33.455  18.034   7.597  0.00  0.00     0.010 C 
HETATM   15  C   UNK N   1      33.379  17.530   6.152  0.00  0.00     0.007 C 
HETATM   16  C   UNK N   1      32.778  16.128   6.090  0.00  0.00     0.000 C 
HETATM   17  C   UNK N   1      31.411  16.039   6.790  0.00  0.00     0.000 C 
HETATM   18  C   UNK N   1      31.011  17.326   7.518  0.00  0.00     0.000 C 
HETATM   19  C   UNK N   1      32.161  17.819   8.396  0.00  0.00     0.007 C 
ENDBRANCH  13  14
ENDBRANCH  12  13
ENDBRANCH   1  12
BRANCH   1  20
HETATM   20  O   UNK N   1      33.480  15.006  11.184  0.00  0.00    -0.307 OA
HETATM   21  H   UNK N   1      32.928  14.256  10.915  0.00  0.00     0.222 HD
ENDBRANCH   1  20
TORSDOF 7
ENDMDL
MODEL 6
REMARK VINA RESULT:      -5.9      7.651      9.758
REMARK  7 active torsions:
REMARK  status: ('A' for Active; 'I' for Inactive)
REMARK    1  A    between atoms: C_4  and  C_7 
REMARK    2  A    between atoms: C_5  and  O_8 
REMARK    3  A    between atoms: P_9  and  O_8 
REMARK    4  A    between atoms: P_9  and  O_10 
REMARK    5  A    between atoms: P_9  and  O_14 
REMARK    6  A    between atoms: O_10  and  C_12 
REMARK    7  A    between atoms: C_12  and  C_15 
ROOT
HETATM    1  P   UNK N   1      36.039  13.659  12.656  0.00  0.00     0.398 P 
HETATM    2  O   UNK N   1      36.800  12.895  11.540  0.00  0.00    -0.631 OA
ENDROOT
BRANCH   1   3
HETATM    3  O   UNK N   1      36.817  13.264  14.139  0.00  0.00    -0.254 OA
BRANCH   3   4
HETATM    4  C   UNK N   1      36.621  13.910  15.313  0.00  0.00     0.094 A 
HETATM    5  C   UNK N   1      35.691  13.395  16.246  0.00  0.00     0.035 A 
HETATM    6  C   UNK N   1      35.489  14.064  17.460  0.00  0.00     0.017 A 
HETATM    7  C   UNK N   1      36.193  15.233  17.751  0.00  0.00     0.001 A 
HETATM    8  C   UNK N   1      37.112  15.744  16.833  0.00  0.00     0.003 A 
HETATM    9  C   UNK N   1      37.327  15.085  15.621  0.00  0.00     0.038 A 
BRANCH   5  10
HETATM   10  C   UNK N   1      34.928  12.154  16.008  0.00  0.00     0.272 C 
HETATM   11  O   UNK N   1      33.908  12.142  15.334  0.00  0.00    -0.301 OA
ENDBRANCH   5  10
ENDBRANCH   3   4
ENDBRANCH   1   3
BRANCH   1  12
HETATM   12  O   UNK N   1      36.095  15.358  12.253  0.00  0.00    -0.296 OA
BRANCH  12  13
HETATM   13  C   UNK N   1      34.912  15.610  11.547  0.00  0.00     0.185 C 
BRANCH  13  14
HETATM   14  C   UNK N   1      35.184  15.758  10.052  0.00  0.00     0.010 C 
HETATM   15  C   UNK N   1      34.431  14.680   9.265  0.00  0.00     0.007 C 
HETATM   16  C   UNK N   1      32.954  15.038   9.119  0.00  0.00     0.000 C 
HETATM   17  C   UNK N   1      32.741  16.433   8.509  0.00  0.00     0.000 C 
HETATM   18  C   UNK N   1      34.040  17.220   8.311  0.00  0.00     0.000 C 
HETATM   19  C   UNK N   1      34.879  17.190   9.589  0.00  0.00     0.007 C 
ENDBRANCH  13  14
ENDBRANCH  12  13
ENDBRANCH   1  12
BRANCH   1  20
HETATM   20  O   UNK N   1      34.416  13.037  12.667  0.00  0.00    -0.307 OA
HETATM   21  H   UNK N   1      34.125  12.422  11.977  0.00  0.00     0.222 HD
ENDBRANCH   1  20
TORSDOF 7
ENDMDL
MODEL 7
REMARK VINA RESULT:      -5.8     10.715     12.268
REMARK  7 active torsions:
REMARK  status: ('A' for Active; 'I' for Inactive)
REMARK    1  A    between atoms: C_4  and  C_7 
REMARK    2  A    between atoms: C_5  and  O_8 
REMARK    3  A    between atoms: P_9  and  O_8 
REMARK    4  A    between atoms: P_9  and  O_10 
REMARK    5  A    between atoms: P_9  and  O_14 
REMARK    6  A    between atoms: O_10  and  C_12 
REMARK    7  A    between atoms: C_12  and  C_15 
ROOT
HETATM    1  P   UNK N   1      29.816  23.148  -2.752  0.00  0.00     0.398 P 
HETATM    2  O   UNK N   1      30.282  23.115  -1.272  0.00  0.00    -0.631 OA
ENDROOT
BRANCH   1   3
HETATM    3  O   UNK N   1      30.166  21.599  -3.413  0.00  0.00    -0.254 OA
BRANCH   3   4
HETATM    4  C   UNK N   1      31.404  21.157  -3.738  0.00  0.00     0.094 A 
HETATM    5  C   UNK N   1      31.621  20.551  -4.997  0.00  0.00     0.035 A 
HETATM    6  C   UNK N   1      32.901  20.094  -5.332  0.00  0.00     0.017 A 
HETATM    7  C   UNK N   1      33.960  20.228  -4.432  0.00  0.00     0.001 A 
HETATM    8  C   UNK N   1      33.750  20.825  -3.189  0.00  0.00     0.003 A 
HETATM    9  C   UNK N   1      32.479  21.290  -2.843  0.00  0.00     0.038 A 
BRANCH   5  10
HETATM   10  C   UNK N   1      30.550  20.397  -6.001  0.00  0.00     0.272 C 
HETATM   11  O   UNK N   1      30.708  19.737  -7.019  0.00  0.00    -0.301 OA
ENDBRANCH   5  10
ENDBRANCH   3   4
ENDBRANCH   1   3
BRANCH   1  12
HETATM   12  O   UNK N   1      28.116  23.553  -2.751  0.00  0.00    -0.296 OA
BRANCH  12  13
HETATM   13  C   UNK N   1      27.965  24.516  -3.757  0.00  0.00     0.185 C 
BRANCH  13  14
HETATM   14  C   UNK N   1      26.533  25.045  -3.801  0.00  0.00     0.010 C 
HETATM   15  C   UNK N   1      26.496  26.514  -3.364  0.00  0.00     0.007 C 
HETATM   16  C   UNK N   1      26.962  27.434  -4.491  0.00  0.00     0.000 C 
HETATM   17  C   UNK N   1      26.179  27.214  -5.796  0.00  0.00     0.000 C 
HETATM   18  C   UNK N   1      25.205  26.033  -5.734  0.00  0.00     0.000 C 
HETATM   19  C   UNK N   1      25.908  24.794  -5.180  0.00  0.00     0.007 C 
ENDBRANCH  13  14
ENDBRANCH  12  13
ENDBRANCH   1  12
BRANCH   1  20
HETATM   20  O   UNK N   1      30.780  24.353  -3.550  0.00  0.00    -0.307 OA
HETATM   21  H   UNK N   1      30.745  24.446  -4.515  0.00  0.00     0.222 HD
ENDBRANCH   1  20
TORSDOF 7
ENDMDL
MODEL 8
REMARK VINA RESULT:      -5.8     11.544     13.737
REMARK  7 active torsions:
REMARK  status: ('A' for Active; 'I' for Inactive)
REMARK    1  A    between atoms: C_4  and  C_7 
REMARK    2  A    between atoms: C_5  and  O_8 
REMARK    3  A    between atoms: P_9  and  O_8 
REMARK    4  A    between atoms: P_9  and  O_10 
REMARK    5  A    between atoms: P_9  and  O_14 
REMARK    6  A    between atoms: O_10  and  C_12 
REMARK    7  A    between atoms: C_12  and  C_15 
ROOT
HETATM    1  P   UNK N   1      27.089  24.581  -3.893  0.00  0.00     0.398 P 
HETATM    2  O   UNK N   1      26.159  23.781  -4.844  0.00  0.00    -0.631 OA
ENDROOT
BRANCH   1   3
HETATM    3  O   UNK N   1      28.683  24.429  -4.522  0.00  0.00    -0.254 OA
BRANCH   3   4
HETATM    4  C   UNK N   1      29.306  23.255  -4.780  0.00  0.00     0.094 A 
HETATM    5  C   UNK N   1      30.251  22.748  -3.858  0.00  0.00     0.035 A 
HETATM    6  C   UNK N   1      30.895  21.534  -4.126  0.00  0.00     0.017 A 
HETATM    7  C   UNK N   1      30.614  20.825  -5.296  0.00  0.00     0.001 A 
HETATM    8  C   UNK N   1      29.682  21.322  -6.207  0.00  0.00     0.003 A 
HETATM    9  C   UNK N   1      29.028  22.529  -5.951  0.00  0.00     0.038 A 
BRANCH   5  10
HETATM   10  C   UNK N   1      30.580  23.438  -2.594  0.00  0.00     0.272 C 
HETATM   11  O   UNK N   1      30.261  22.980  -1.507  0.00  0.00    -0.301 OA
ENDBRANCH   5  10
ENDBRANCH   3   4
ENDBRANCH   1   3
BRANCH   1  12
HETATM   12  O   UNK N   1      26.495  26.223  -3.848  0.00  0.00    -0.296 OA
BRANCH  12  13
HETATM   13  C   UNK N   1      27.469  26.987  -4.504  0.00  0.00     0.185 C 
BRANCH  13  14
HETATM   14  C   UNK N   1      26.926  27.566  -5.808  0.00  0.00     0.010 C 
HETATM   15  C   UNK N   1      27.986  27.477  -6.911  0.00  0.00     0.007 C 
HETATM   16  C   UNK N   1      28.074  26.061  -7.477  0.00  0.00     0.000 C 
HETATM   17  C   UNK N   1      26.714  25.531  -7.959  0.00  0.00     0.000 C 
HETATM   18  C   UNK N   1      25.544  26.469  -7.643  0.00  0.00     0.000 C 
HETATM   19  C   UNK N   1      25.592  26.902  -6.178  0.00  0.00     0.007 C 
ENDBRANCH  13  14
ENDBRANCH  12  13
ENDBRANCH   1  12
BRANCH   1  20
HETATM   20  O   UNK N   1      27.000  23.804  -2.340  0.00  0.00    -0.307 OA
HETATM   21  H   UNK N   1      26.311  24.058  -1.707  0.00  0.00     0.222 HD
ENDBRANCH   1  20
TORSDOF 7
ENDMDL
MODEL 9
REMARK VINA RESULT:      -5.8     12.987     15.912
REMARK  7 active torsions:
REMARK  status: ('A' for Active; 'I' for Inactive)
REMARK    1  A    between atoms: C_4  and  C_7 
REMARK    2  A    between atoms: C_5  and  O_8 
REMARK    3  A    between atoms: P_9  and  O_8 
REMARK    4  A    between atoms: P_9  and  O_10 
REMARK    5  A    between atoms: P_9  and  O_14 
REMARK    6  A    between atoms: O_10  and  C_12 
REMARK    7  A    between atoms: C_12  and  C_15 
ROOT
HETATM    1  P   UNK N   1      26.031  23.956  -7.483  0.00  0.00     0.398 P 
HETATM    2  O   UNK N   1      24.806  23.158  -8.002  0.00  0.00    -0.631 OA
ENDROOT
BRANCH   1   3
HETATM    3  O   UNK N   1      25.646  25.622  -7.668  0.00  0.00    -0.254 OA
BRANCH   3   4
HETATM    4  C   UNK N   1      25.899  26.584  -6.748  0.00  0.00     0.094 A 
HETATM    5  C   UNK N   1      27.012  27.439  -6.919  0.00  0.00     0.035 A 
HETATM    6  C   UNK N   1      27.272  28.432  -5.967  0.00  0.00     0.017 A 
HETATM    7  C   UNK N   1      26.445  28.580  -4.852  0.00  0.00     0.001 A 
HETATM    8  C   UNK N   1      25.346  27.738  -4.680  0.00  0.00     0.003 A 
HETATM    9  C   UNK N   1      25.071  26.746  -5.624  0.00  0.00     0.038 A 
BRANCH   5  10
HETATM   10  C   UNK N   1      27.913  27.349  -8.084  0.00  0.00     0.272 C 
HETATM   11  O   UNK N   1      28.641  28.275  -8.412  0.00  0.00    -0.301 OA
ENDBRANCH   5  10
ENDBRANCH   3   4
ENDBRANCH   1   3
BRANCH   1  12
HETATM   12  O   UNK N   1      26.304  23.469  -5.827  0.00  0.00    -0.296 OA
BRANCH  12  13
HETATM   13  C   UNK N   1      27.687  23.579  -5.632  0.00  0.00     0.185 C 
BRANCH  13  14
HETATM   14  C   UNK N   1      28.009  24.625  -4.568  0.00  0.00     0.010 C 
HETATM   15  C   UNK N   1      27.984  23.991  -3.173  0.00  0.00     0.007 C 
HETATM   16  C   UNK N   1      29.263  23.200  -2.906  0.00  0.00     0.000 C 
HETATM   17  C   UNK N   1      30.533  24.039  -3.121  0.00  0.00     0.000 C 
HETATM   18  C   UNK N   1      30.257  25.435  -3.689  0.00  0.00     0.000 C 
HETATM   19  C   UNK N   1      29.327  25.341  -4.899  0.00  0.00     0.007 C 
ENDBRANCH  13  14
ENDBRANCH  12  13
ENDBRANCH   1  12
BRANCH   1  20
HETATM   20  O   UNK N   1      27.366  23.549  -8.518  0.00  0.00    -0.307 OA
HETATM   21  H   UNK N   1      27.485  24.008  -9.364  0.00  0.00     0.222 HD
ENDBRANCH   1  20
TORSDOF 7
ENDMDL
