MODEL 1
REMARK VINA RESULT:      -7.8      0.000      0.000
REMARK  10 active torsions:
REMARK  status: ('A' for Active; 'I' for Inactive)
REMARK    1  A    between atoms: C_2  and  C_7 
REMARK    2  A    between atoms: C_4  and  C_16 
REMARK    3  A    between atoms: C_11  and  C_13 
REMARK    4  A    between atoms: C_13  and  O_14 
REMARK    5  A    between atoms: C_17  and  O_28 
REMARK    6  A    between atoms: C_21  and  O_27 
REMARK    7  A    between atoms: C_22  and  C_23 
REMARK    8  A    between atoms: C_23  and  O_25 
REMARK    9  A    between atoms: O_28  and  C_29 
REMARK   10  A    between atoms: C_29  and  C_30 
ROOT
HETATM    1  C   UNK N   1      24.301  18.308   4.330  0.00  0.00     0.129 A 
HETATM    2  C   UNK N   1      22.904  18.246   4.499  0.00  0.00     0.039 A 
HETATM    3  C   UNK N   1      22.359  17.252   5.302  0.00  0.00     0.029 A 
HETATM    4  C   UNK N   1      23.152  16.305   5.917  0.00  0.00    -0.035 A 
HETATM    5  C   UNK N   1      24.544  16.345   5.746  0.00  0.00     0.014 A 
HETATM    6  C   UNK N   1      25.119  17.363   4.972  0.00  0.00     0.044 A 
HETATM    7  F   UNK N   1      24.866  19.248   3.532  0.00  0.00    -0.205 F 
ENDROOT
BRANCH   4   8
HETATM    8  C   UNK N   1      22.445  15.206   6.567  0.00  0.00     0.009 C 
HETATM    9  C   UNK N   1      21.380  15.397   7.334  0.00  0.00     0.000 C 
BRANCH   9  10
HETATM   10  C   UNK N   1      20.768  14.262   8.086  0.00  0.00     0.203 C 
BRANCH  10  11
HETATM   11  O   UNK N   1      21.637  13.198   8.236  0.00  0.00    -0.346 OA
BRANCH  11  12
HETATM   12  C   UNK N   1      22.133  12.846   9.447  0.00  0.00     0.088 A 
HETATM   13  C   UNK N   1      21.213  12.649  10.482  0.00  0.00     0.038 A 
HETATM   14  C   UNK N   1      21.628  12.195  11.730  0.00  0.00     0.005 A 
HETATM   15  C   UNK N   1      22.975  11.933  11.960  0.00  0.00     0.038 A 
HETATM   16  C   UNK N   1      23.923  12.145  10.958  0.00  0.00     0.084 A 
HETATM   17  C   UNK N   1      23.526  12.614   9.679  0.00  0.00     0.105 A 
BRANCH  16  18
HETATM   18  O   UNK N   1      25.218  11.947  11.256  0.00  0.00    -0.360 OA
HETATM   19  H   UNK N   1      25.785  11.436  10.713  0.00  0.00     0.217 HD
ENDBRANCH  16  18
BRANCH  17  20
HETATM   20  C   UNK N   1      24.552  12.935   8.622  0.00  0.00     0.298 C 
HETATM   21  O   UNK N   1      25.346  13.838   8.830  0.00  0.00    -0.259 OA
BRANCH  20  22
HETATM   22  O   UNK N   1      24.675  12.242   7.460  0.00  0.00    -0.322 OA
HETATM   23  C   UNK N   1      25.234  12.760   6.317  0.00  0.00     0.213 C 
ENDBRANCH  20  22
ENDBRANCH  17  20
ENDBRANCH  11  12
ENDBRANCH  10  11
ENDBRANCH   9  10
ENDBRANCH   4   8
BRANCH   2  24
HETATM   24  C   UNK N   1      21.961  19.125   3.797  0.00  0.00     0.114 A 
HETATM   25  O   UNK N   1      20.964  19.792   4.328  0.00  0.00    -0.236 OA
HETATM   26  N   UNK N   1      20.389  20.546   3.438  0.00  0.00    -0.254 N 
HETATM   27  C   UNK N   1      21.050  20.362   2.276  0.00  0.00     0.130 A 
ATOM     28  HN  UNK N   1      19.590  21.161   3.590  1.00  0.00     0.195 HD
HETATM   29  C   UNK N   1      22.064  19.459   2.461  0.00  0.00     0.078 A 
BRANCH  27  30
HETATM   30  C   UNK N   1      20.749  21.047   1.013  0.00  0.00     0.195 C 
HETATM   31  O   UNK N   1      20.849  20.448  -0.048  0.00  0.00    -0.645 OA
BRANCH  30  32
HETATM   32  O   UNK N   1      20.376  22.339   1.016  0.00  0.00    -0.772 OA
HETATM   33  H   UNK N   1      19.645  22.618   1.532  0.00  0.00     0.167 HD
ENDBRANCH  30  32
ENDBRANCH  27  30
ENDBRANCH   2  24
TORSDOF 10
ENDMDL
MODEL 2
REMARK VINA RESULT:      -7.5      4.557      9.609
REMARK  10 active torsions:
REMARK  status: ('A' for Active; 'I' for Inactive)
REMARK    1  A    between atoms: C_2  and  C_7 
REMARK    2  A    between atoms: C_4  and  C_16 
REMARK    3  A    between atoms: C_11  and  C_13 
REMARK    4  A    between atoms: C_13  and  O_14 
REMARK    5  A    between atoms: C_17  and  O_28 
REMARK    6  A    between atoms: C_21  and  O_27 
REMARK    7  A    between atoms: C_22  and  C_23 
REMARK    8  A    between atoms: C_23  and  O_25 
REMARK    9  A    between atoms: O_28  and  C_29 
REMARK   10  A    between atoms: C_29  and  C_30 
ROOT
HETATM    1  C   UNK N   1      19.839  15.701   8.281  0.00  0.00     0.129 A 
HETATM    2  C   UNK N   1      20.683  14.574   8.275  0.00  0.00     0.039 A 
HETATM    3  C   UNK N   1      21.224  14.135   7.072  0.00  0.00     0.029 A 
HETATM    4  C   UNK N   1      20.931  14.761   5.878  0.00  0.00    -0.035 A 
HETATM    5  C   UNK N   1      20.079  15.876   5.866  0.00  0.00     0.014 A 
HETATM    6  C   UNK N   1      19.554  16.360   7.073  0.00  0.00     0.044 A 
HETATM    7  F   UNK N   1      19.271  16.141   9.431  0.00  0.00    -0.205 F 
ENDROOT
BRANCH   4   8
HETATM    8  C   UNK N   1      21.401  14.087   4.673  0.00  0.00     0.009 C 
HETATM    9  C   UNK N   1      22.424  14.536   3.956  0.00  0.00     0.000 C 
BRANCH   9  10
HETATM   10  C   UNK N   1      22.788  13.892   2.659  0.00  0.00     0.203 C 
BRANCH  10  11
HETATM   11  O   UNK N   1      22.245  14.551   1.572  0.00  0.00    -0.346 OA
BRANCH  11  12
HETATM   12  C   UNK N   1      21.048  14.196   1.047  0.00  0.00     0.088 A 
HETATM   13  C   UNK N   1      20.816  12.831   0.846  0.00  0.00     0.038 A 
HETATM   14  C   UNK N   1      19.580  12.374   0.400  0.00  0.00     0.005 A 
HETATM   15  C   UNK N   1      18.556  13.281   0.145  0.00  0.00     0.038 A 
HETATM   16  C   UNK N   1      18.762  14.652   0.309  0.00  0.00     0.084 A 
HETATM   17  C   UNK N   1      20.016  15.144   0.756  0.00  0.00     0.105 A 
BRANCH  16  18
HETATM   18  O   UNK N   1      17.764  15.488  -0.022  0.00  0.00    -0.360 OA
HETATM   19  H   UNK N   1      17.753  16.386   0.244  0.00  0.00     0.217 HD
ENDBRANCH  16  18
BRANCH  17  20
HETATM   20  C   UNK N   1      20.276  16.626   0.845  0.00  0.00     0.298 C 
HETATM   21  O   UNK N   1      20.297  17.281  -0.185  0.00  0.00    -0.259 OA
BRANCH  20  22
HETATM   22  O   UNK N   1      20.444  17.289   2.018  0.00  0.00    -0.322 OA
HETATM   23  C   UNK N   1      19.822  18.477   2.321  0.00  0.00     0.213 C 
ENDBRANCH  20  22
ENDBRANCH  17  20
ENDBRANCH  11  12
ENDBRANCH  10  11
ENDBRANCH   9  10
ENDBRANCH   4   8
BRANCH   2  24
HETATM   24  C   UNK N   1      20.963  13.762   9.465  0.00  0.00     0.114 A 
HETATM   25  O   UNK N   1      20.088  13.125  10.207  0.00  0.00    -0.236 OA
HETATM   26  N   UNK N   1      20.685  12.427  11.126  0.00  0.00    -0.254 N 
HETATM   27  C   UNK N   1      22.013  12.617  10.969  0.00  0.00     0.130 A 
ATOM     28  HN  UNK N   1      20.236  11.845  11.833  1.00  0.00     0.195 HD
HETATM   29  C   UNK N   1      22.235  13.465   9.916  0.00  0.00     0.078 A 
BRANCH  27  30
HETATM   30  C   UNK N   1      23.060  11.986  11.781  0.00  0.00     0.195 C 
HETATM   31  O   UNK N   1      24.207  11.928  11.363  0.00  0.00    -0.645 OA
BRANCH  30  32
HETATM   32  O   UNK N   1      22.761  11.458  12.981  0.00  0.00    -0.772 OA
HETATM   33  H   UNK N   1      21.897  11.135  13.152  0.00  0.00     0.167 HD
ENDBRANCH  30  32
ENDBRANCH  27  30
ENDBRANCH   2  24
TORSDOF 10
ENDMDL
MODEL 3
REMARK VINA RESULT:      -7.5      1.893      3.049
REMARK  10 active torsions:
REMARK  status: ('A' for Active; 'I' for Inactive)
REMARK    1  A    between atoms: C_2  and  C_7 
REMARK    2  A    between atoms: C_4  and  C_16 
REMARK    3  A    between atoms: C_11  and  C_13 
REMARK    4  A    between atoms: C_13  and  O_14 
REMARK    5  A    between atoms: C_17  and  O_28 
REMARK    6  A    between atoms: C_21  and  O_27 
REMARK    7  A    between atoms: C_22  and  C_23 
REMARK    8  A    between atoms: C_23  and  O_25 
REMARK    9  A    between atoms: O_28  and  C_29 
REMARK   10  A    between atoms: C_29  and  C_30 
ROOT
HETATM    1  C   UNK N   1      25.836  19.532   3.583  0.00  0.00     0.129 A 
HETATM    2  C   UNK N   1      24.682  18.898   4.083  0.00  0.00     0.039 A 
HETATM    3  C   UNK N   1      24.819  17.808   4.934  0.00  0.00     0.029 A 
HETATM    4  C   UNK N   1      26.059  17.312   5.279  0.00  0.00    -0.035 A 
HETATM    5  C   UNK N   1      27.218  17.924   4.777  0.00  0.00     0.014 A 
HETATM    6  C   UNK N   1      27.104  19.050   3.948  0.00  0.00     0.044 A 
HETATM    7  F   UNK N   1      25.741  20.581   2.729  0.00  0.00    -0.205 F 
ENDROOT
BRANCH   4   8
HETATM    8  C   UNK N   1      26.061  16.052   6.014  0.00  0.00     0.009 C 
HETATM    9  C   UNK N   1      24.944  15.438   6.381  0.00  0.00     0.000 C 
BRANCH   9  10
HETATM   10  C   UNK N   1      24.990  14.222   7.246  0.00  0.00     0.203 C 
BRANCH  10  11
HETATM   11  O   UNK N   1      23.751  13.890   7.758  0.00  0.00    -0.346 OA
BRANCH  11  12
HETATM   12  C   UNK N   1      23.617  13.209   8.922  0.00  0.00     0.088 A 
HETATM   13  C   UNK N   1      24.786  12.927   9.636  0.00  0.00     0.038 A 
HETATM   14  C   UNK N   1      24.730  12.316  10.884  0.00  0.00     0.005 A 
HETATM   15  C   UNK N   1      23.499  11.976  11.436  0.00  0.00     0.038 A 
HETATM   16  C   UNK N   1      22.314  12.218  10.738  0.00  0.00     0.084 A 
HETATM   17  C   UNK N   1      22.345  12.834   9.460  0.00  0.00     0.105 A 
BRANCH  16  18
HETATM   18  O   UNK N   1      21.160  11.803  11.284  0.00  0.00    -0.360 OA
HETATM   19  H   UNK N   1      20.731  11.015  11.011  0.00  0.00     0.217 HD
ENDBRANCH  16  18
BRANCH  17  20
HETATM   20  C   UNK N   1      21.080  13.014   8.660  0.00  0.00     0.298 C 
HETATM   21  O   UNK N   1      20.223  13.775   9.081  0.00  0.00    -0.259 OA
BRANCH  20  22
HETATM   22  O   UNK N   1      20.854  12.407   7.466  0.00  0.00    -0.322 OA
HETATM   23  C   UNK N   1      20.665  13.088   6.288  0.00  0.00     0.213 C 
ENDBRANCH  20  22
ENDBRANCH  17  20
ENDBRANCH  11  12
ENDBRANCH  10  11
ENDBRANCH   9  10
ENDBRANCH   4   8
BRANCH   2  24
HETATM   24  C   UNK N   1      23.318  19.264   3.686  0.00  0.00     0.114 A 
HETATM   25  O   UNK N   1      22.932  20.398   3.149  0.00  0.00    -0.236 OA
HETATM   26  N   UNK N   1      21.671  20.353   2.835  0.00  0.00    -0.254 N 
HETATM   27  C   UNK N   1      21.219  19.129   3.183  0.00  0.00     0.130 A 
ATOM     28  HN  UNK N   1      21.126  21.101   2.408  1.00  0.00     0.195 HD
HETATM   29  C   UNK N   1      22.241  18.399   3.731  0.00  0.00     0.078 A 
BRANCH  27  30
HETATM   30  C   UNK N   1      19.850  18.642   2.974  0.00  0.00     0.195 C 
HETATM   31  O   UNK N   1      19.519  17.546   3.401  0.00  0.00    -0.645 OA
BRANCH  30  32
HETATM   32  O   UNK N   1      18.959  19.391   2.301  0.00  0.00    -0.772 OA
HETATM   33  H   UNK N   1      18.253  19.807   2.757  0.00  0.00     0.167 HD
ENDBRANCH  30  32
ENDBRANCH  27  30
ENDBRANCH   2  24
TORSDOF 10
ENDMDL
MODEL 4
REMARK VINA RESULT:      -7.4      3.650      9.793
REMARK  10 active torsions:
REMARK  status: ('A' for Active; 'I' for Inactive)
REMARK    1  A    between atoms: C_2  and  C_7 
REMARK    2  A    between atoms: C_4  and  C_16 
REMARK    3  A    between atoms: C_11  and  C_13 
REMARK    4  A    between atoms: C_13  and  O_14 
REMARK    5  A    between atoms: C_17  and  O_28 
REMARK    6  A    between atoms: C_21  and  O_27 
REMARK    7  A    between atoms: C_22  and  C_23 
REMARK    8  A    between atoms: C_23  and  O_25 
REMARK    9  A    between atoms: O_28  and  C_29 
REMARK   10  A    between atoms: C_29  and  C_30 
ROOT
HETATM    1  C   UNK N   1      23.298  11.307   7.218  0.00  0.00     0.129 A 
HETATM    2  C   UNK N   1      23.299  12.396   8.110  0.00  0.00     0.039 A 
HETATM    3  C   UNK N   1      22.957  13.659   7.643  0.00  0.00     0.029 A 
HETATM    4  C   UNK N   1      22.645  13.878   6.317  0.00  0.00    -0.035 A 
HETATM    5  C   UNK N   1      22.655  12.805   5.413  0.00  0.00     0.014 A 
HETATM    6  C   UNK N   1      22.958  11.515   5.871  0.00  0.00     0.044 A 
HETATM    7  F   UNK N   1      23.652  10.065   7.633  0.00  0.00    -0.205 F 
ENDROOT
BRANCH   4   8
HETATM    8  C   UNK N   1      22.499  15.274   5.918  0.00  0.00     0.009 C 
HETATM    9  C   UNK N   1      23.460  15.943   5.294  0.00  0.00     0.000 C 
BRANCH   9  10
HETATM   10  C   UNK N   1      23.321  17.404   5.022  0.00  0.00     0.203 C 
BRANCH  10  11
HETATM   11  O   UNK N   1      23.047  17.671   3.695  0.00  0.00    -0.346 OA
BRANCH  11  12
HETATM   12  C   UNK N   1      22.043  18.503   3.325  0.00  0.00     0.088 A 
HETATM   13  C   UNK N   1      22.370  19.845   3.110  0.00  0.00     0.038 A 
HETATM   14  C   UNK N   1      21.420  20.745   2.637  0.00  0.00     0.005 A 
HETATM   15  C   UNK N   1      20.125  20.312   2.375  0.00  0.00     0.038 A 
HETATM   16  C   UNK N   1      19.757  18.984   2.605  0.00  0.00     0.084 A 
HETATM   17  C   UNK N   1      20.706  18.049   3.093  0.00  0.00     0.105 A 
BRANCH  16  18
HETATM   18  O   UNK N   1      18.475  18.637   2.406  0.00  0.00    -0.360 OA
HETATM   19  H   UNK N   1      18.130  17.812   2.686  0.00  0.00     0.217 HD
ENDBRANCH  16  18
BRANCH  17  20
HETATM   20  C   UNK N   1      20.294  16.639   3.433  0.00  0.00     0.298 C 
HETATM   21  O   UNK N   1      19.481  16.464   4.326  0.00  0.00    -0.259 OA
BRANCH  20  22
HETATM   22  O   UNK N   1      20.745  15.545   2.767  0.00  0.00    -0.322 OA
HETATM   23  C   UNK N   1      20.652  15.387   1.406  0.00  0.00     0.213 C 
ENDBRANCH  20  22
ENDBRANCH  17  20
ENDBRANCH  11  12
ENDBRANCH  10  11
ENDBRANCH   9  10
ENDBRANCH   4   8
BRANCH   2  24
HETATM   24  C   UNK N   1      23.731  12.300   9.510  0.00  0.00     0.114 A 
HETATM   25  O   UNK N   1      24.902  12.638   9.996  0.00  0.00    -0.236 OA
HETATM   26  N   UNK N   1      24.916  12.513  11.290  0.00  0.00    -0.254 N 
HETATM   27  C   UNK N   1      23.693  12.077  11.660  0.00  0.00     0.130 A 
ATOM     28  HN  UNK N   1      25.703  12.707  11.909  1.00  0.00     0.195 HD
HETATM   29  C   UNK N   1      22.903  11.928  10.551  0.00  0.00     0.078 A 
BRANCH  27  30
HETATM   30  C   UNK N   1      23.264  11.832  13.042  0.00  0.00     0.195 C 
HETATM   31  O   UNK N   1      23.906  12.296  13.974  0.00  0.00    -0.645 OA
BRANCH  30  32
HETATM   32  O   UNK N   1      22.174  11.085  13.291  0.00  0.00    -0.772 OA
HETATM   33  H   UNK N   1      21.587  11.324  13.982  0.00  0.00     0.167 HD
ENDBRANCH  30  32
ENDBRANCH  27  30
ENDBRANCH   2  24
TORSDOF 10
ENDMDL
MODEL 5
REMARK VINA RESULT:      -7.3      4.444      7.983
REMARK  10 active torsions:
REMARK  status: ('A' for Active; 'I' for Inactive)
REMARK    1  A    between atoms: C_2  and  C_7 
REMARK    2  A    between atoms: C_4  and  C_16 
REMARK    3  A    between atoms: C_11  and  C_13 
REMARK    4  A    between atoms: C_13  and  O_14 
REMARK    5  A    between atoms: C_17  and  O_28 
REMARK    6  A    between atoms: C_21  and  O_27 
REMARK    7  A    between atoms: C_22  and  C_23 
REMARK    8  A    between atoms: C_23  and  O_25 
REMARK    9  A    between atoms: O_28  and  C_29 
REMARK   10  A    between atoms: C_29  and  C_30 
ROOT
HETATM    1  C   UNK N   1      21.877  12.445  10.518  0.00  0.00     0.129 A 
HETATM    2  C   UNK N   1      21.779  13.452   9.538  0.00  0.00     0.039 A 
HETATM    3  C   UNK N   1      22.840  13.657   8.664  0.00  0.00     0.029 A 
HETATM    4  C   UNK N   1      24.001  12.917   8.752  0.00  0.00    -0.035 A 
HETATM    5  C   UNK N   1      24.119  11.920   9.733  0.00  0.00     0.014 A 
HETATM    6  C   UNK N   1      23.045  11.670  10.599  0.00  0.00     0.044 A 
HETATM    7  F   UNK N   1      20.873  12.236  11.404  0.00  0.00    -0.205 F 
ENDROOT
BRANCH   4   8
HETATM    8  C   UNK N   1      25.107  13.361   7.910  0.00  0.00     0.009 C 
HETATM    9  C   UNK N   1      24.989  14.361   7.046  0.00  0.00     0.000 C 
BRANCH   9  10
HETATM   10  C   UNK N   1      26.103  14.696   6.111  0.00  0.00     0.203 C 
BRANCH  10  11
HETATM   11  O   UNK N   1      26.683  15.917   6.396  0.00  0.00    -0.346 OA
BRANCH  11  12
HETATM   12  C   UNK N   1      26.673  16.939   5.506  0.00  0.00     0.088 A 
HETATM   13  C   UNK N   1      25.524  17.095   4.725  0.00  0.00     0.038 A 
HETATM   14  C   UNK N   1      25.392  18.174   3.856  0.00  0.00     0.005 A 
HETATM   15  C   UNK N   1      26.414  19.112   3.754  0.00  0.00     0.038 A 
HETATM   16  C   UNK N   1      27.587  18.971   4.499  0.00  0.00     0.084 A 
HETATM   17  C   UNK N   1      27.748  17.876   5.388  0.00  0.00     0.105 A 
BRANCH  16  18
HETATM   18  O   UNK N   1      28.571  19.864   4.307  0.00  0.00    -0.360 OA
HETATM   19  H   UNK N   1      28.961  20.008   3.467  0.00  0.00     0.217 HD
ENDBRANCH  16  18
BRANCH  17  20
HETATM   20  C   UNK N   1      29.047  17.666   6.124  0.00  0.00     0.298 C 
HETATM   21  O   UNK N   1      30.027  17.305   5.493  0.00  0.00    -0.259 OA
BRANCH  20  22
HETATM   22  O   UNK N   1      29.202  17.898   7.453  0.00  0.00    -0.322 OA
HETATM   23  C   UNK N   1      28.383  18.724   8.184  0.00  0.00     0.213 C 
ENDBRANCH  20  22
ENDBRANCH  17  20
ENDBRANCH  11  12
ENDBRANCH  10  11
ENDBRANCH   9  10
ENDBRANCH   4   8
BRANCH   2  24
HETATM   24  C   UNK N   1      20.644  14.377   9.433  0.00  0.00     0.114 A 
HETATM   25  O   UNK N   1      19.407  14.149   9.808  0.00  0.00    -0.236 OA
HETATM   26  N   UNK N   1      18.678  15.215   9.659  0.00  0.00    -0.254 N 
HETATM   27  C   UNK N   1      19.483  16.181   9.169  0.00  0.00     0.130 A 
ATOM     28  HN  UNK N   1      17.685  15.305   9.873  1.00  0.00     0.195 HD
HETATM   29  C   UNK N   1      20.751  15.687   9.009  0.00  0.00     0.078 A 
BRANCH  27  30
HETATM   30  C   UNK N   1      19.072  17.561   8.881  0.00  0.00     0.195 C 
HETATM   31  O   UNK N   1      19.912  18.405   8.606  0.00  0.00    -0.645 OA
BRANCH  30  32
HETATM   32  O   UNK N   1      17.773  17.905   8.933  0.00  0.00    -0.772 OA
HETATM   33  H   UNK N   1      17.228  17.587   9.626  0.00  0.00     0.167 HD
ENDBRANCH  30  32
ENDBRANCH  27  30
ENDBRANCH   2  24
TORSDOF 10
ENDMDL
MODEL 6
REMARK VINA RESULT:      -7.2      8.834     12.707
REMARK  10 active torsions:
REMARK  status: ('A' for Active; 'I' for Inactive)
REMARK    1  A    between atoms: C_2  and  C_7 
REMARK    2  A    between atoms: C_4  and  C_16 
REMARK    3  A    between atoms: C_11  and  C_13 
REMARK    4  A    between atoms: C_13  and  O_14 
REMARK    5  A    between atoms: C_17  and  O_28 
REMARK    6  A    between atoms: C_21  and  O_27 
REMARK    7  A    between atoms: C_22  and  C_23 
REMARK    8  A    between atoms: C_23  and  O_25 
REMARK    9  A    between atoms: O_28  and  C_29 
REMARK   10  A    between atoms: C_29  and  C_30 
ROOT
HETATM    1  C   UNK N   1      34.783  15.948   6.849  0.00  0.00     0.129 A 
HETATM    2  C   UNK N   1      34.495  16.066   8.223  0.00  0.00     0.039 A 
HETATM    3  C   UNK N   1      33.337  16.722   8.621  0.00  0.00     0.029 A 
HETATM    4  C   UNK N   1      32.476  17.288   7.703  0.00  0.00    -0.035 A 
HETATM    5  C   UNK N   1      32.757  17.191   6.332  0.00  0.00     0.014 A 
HETATM    6  C   UNK N   1      33.900  16.499   5.906  0.00  0.00     0.044 A 
HETATM    7  F   UNK N   1      35.917  15.338   6.425  0.00  0.00    -0.205 F 
ENDROOT
BRANCH   4   8
HETATM    8  C   UNK N   1      31.407  18.114   8.256  0.00  0.00     0.009 C 
HETATM    9  C   UNK N   1      30.317  17.596   8.807  0.00  0.00     0.000 C 
BRANCH   9  10
HETATM   10  C   UNK N   1      29.190  18.474   9.240  0.00  0.00     0.203 C 
BRANCH  10  11
HETATM   11  O   UNK N   1      28.056  18.295   8.471  0.00  0.00    -0.346 OA
BRANCH  11  12
HETATM   12  C   UNK N   1      27.904  18.903   7.270  0.00  0.00     0.088 A 
HETATM   13  C   UNK N   1      27.563  20.259   7.278  0.00  0.00     0.038 A 
HETATM   14  C   UNK N   1      27.480  20.982   6.092  0.00  0.00     0.005 A 
HETATM   15  C   UNK N   1      27.736  20.354   4.877  0.00  0.00     0.038 A 
HETATM   16  C   UNK N   1      28.052  18.995   4.831  0.00  0.00     0.084 A 
HETATM   17  C   UNK N   1      28.136  18.234   6.026  0.00  0.00     0.105 A 
BRANCH  16  18
HETATM   18  O   UNK N   1      28.216  18.422   3.627  0.00  0.00    -0.360 OA
HETATM   19  H   UNK N   1      29.052  18.365   3.209  0.00  0.00     0.217 HD
ENDBRANCH  16  18
BRANCH  17  20
HETATM   20  C   UNK N   1      28.384  16.748   5.978  0.00  0.00     0.298 C 
HETATM   21  O   UNK N   1      27.529  15.996   6.419  0.00  0.00    -0.259 OA
BRANCH  20  22
HETATM   22  O   UNK N   1      29.492  16.189   5.428  0.00  0.00    -0.322 OA
HETATM   23  C   UNK N   1      29.879  14.888   5.643  0.00  0.00     0.213 C 
ENDBRANCH  20  22
ENDBRANCH  17  20
ENDBRANCH  11  12
ENDBRANCH  10  11
ENDBRANCH   9  10
ENDBRANCH   4   8
BRANCH   2  24
HETATM   24  C   UNK N   1      35.399  15.610   9.285  0.00  0.00     0.114 A 
HETATM   25  O   UNK N   1      35.930  16.344  10.235  0.00  0.00    -0.236 OA
HETATM   26  N   UNK N   1      36.606  15.605  11.063  0.00  0.00    -0.254 N 
HETATM   27  C   UNK N   1      36.505  14.330  10.632  0.00  0.00     0.130 A 
ATOM     28  HN  UNK N   1      37.117  15.928  11.885  1.00  0.00     0.195 HD
HETATM   29  C   UNK N   1      35.740  14.288   9.495  0.00  0.00     0.078 A 
BRANCH  27  30
HETATM   30  C   UNK N   1      37.096  13.161  11.296  0.00  0.00     0.195 C 
HETATM   31  O   UNK N   1      36.377  12.264  11.709  0.00  0.00    -0.645 OA
BRANCH  30  32
HETATM   32  O   UNK N   1      38.427  13.080  11.466  0.00  0.00    -0.772 OA
HETATM   33  H   UNK N   1      38.967  13.833  11.323  0.00  0.00     0.167 HD
ENDBRANCH  30  32
ENDBRANCH  27  30
ENDBRANCH   2  24
TORSDOF 10
ENDMDL
MODEL 7
REMARK VINA RESULT:      -7.2     14.400     16.732
REMARK  10 active torsions:
REMARK  status: ('A' for Active; 'I' for Inactive)
REMARK    1  A    between atoms: C_2  and  C_7 
REMARK    2  A    between atoms: C_4  and  C_16 
REMARK    3  A    between atoms: C_11  and  C_13 
REMARK    4  A    between atoms: C_13  and  O_14 
REMARK    5  A    between atoms: C_17  and  O_28 
REMARK    6  A    between atoms: C_21  and  O_27 
REMARK    7  A    between atoms: C_22  and  C_23 
REMARK    8  A    between atoms: C_23  and  O_25 
REMARK    9  A    between atoms: O_28  and  C_29 
REMARK   10  A    between atoms: C_29  and  C_30 
ROOT
HETATM    1  C   UNK N   1      30.776  19.711  -8.324  0.00  0.00     0.129 A 
HETATM    2  C   UNK N   1      30.351  20.305  -7.120  0.00  0.00     0.039 A 
HETATM    3  C   UNK N   1      29.135  20.977  -7.085  0.00  0.00     0.029 A 
HETATM    4  C   UNK N   1      28.347  21.102  -8.210  0.00  0.00    -0.035 A 
HETATM    5  C   UNK N   1      28.764  20.528  -9.420  0.00  0.00     0.014 A 
HETATM    6  C   UNK N   1      29.968  19.811  -9.469  0.00  0.00     0.044 A 
HETATM    7  F   UNK N   1      31.968  19.070  -8.402  0.00  0.00    -0.205 F 
ENDROOT
BRANCH   4   8
HETATM    8  C   UNK N   1      27.198  21.994  -8.088  0.00  0.00     0.009 C 
HETATM    9  C   UNK N   1      26.965  22.713  -6.998  0.00  0.00     0.000 C 
BRANCH   9  10
HETATM   10  C   UNK N   1      25.710  23.510  -6.864  0.00  0.00     0.203 C 
BRANCH  10  11
HETATM   11  O   UNK N   1      25.487  23.932  -5.567  0.00  0.00    -0.346 OA
BRANCH  11  12
HETATM   12  C   UNK N   1      25.607  25.233  -5.208  0.00  0.00     0.088 A 
HETATM   13  C   UNK N   1      24.851  26.166  -5.924  0.00  0.00     0.038 A 
HETATM   14  C   UNK N   1      24.842  27.508  -5.560  0.00  0.00     0.005 A 
HETATM   15  C   UNK N   1      25.595  27.937  -4.472  0.00  0.00     0.038 A 
HETATM   16  C   UNK N   1      26.384  27.037  -3.752  0.00  0.00     0.084 A 
HETATM   17  C   UNK N   1      26.414  25.663  -4.108  0.00  0.00     0.105 A 
BRANCH  16  18
HETATM   18  O   UNK N   1      27.148  27.517  -2.758  0.00  0.00    -0.360 OA
HETATM   19  H   UNK N   1      27.714  28.255  -2.872  0.00  0.00     0.217 HD
ENDBRANCH  16  18
BRANCH  17  20
HETATM   20  C   UNK N   1      27.334  24.703  -3.396  0.00  0.00     0.298 C 
HETATM   21  O   UNK N   1      26.843  23.820  -2.711  0.00  0.00    -0.259 OA
BRANCH  20  22
HETATM   22  O   UNK N   1      28.686  24.735  -3.510  0.00  0.00    -0.322 OA
HETATM   23  C   UNK N   1      29.363  24.426  -4.665  0.00  0.00     0.213 C 
ENDBRANCH  20  22
ENDBRANCH  17  20
ENDBRANCH  11  12
ENDBRANCH  10  11
ENDBRANCH   9  10
ENDBRANCH   4   8
BRANCH   2  24
HETATM   24  C   UNK N   1      31.164  20.338  -5.898  0.00  0.00     0.114 A 
HETATM   25  O   UNK N   1      32.309  19.728  -5.699  0.00  0.00    -0.236 OA
HETATM   26  N   UNK N   1      32.804  20.047  -4.540  0.00  0.00    -0.254 N 
HETATM   27  C   UNK N   1      31.940  20.909  -3.963  0.00  0.00     0.130 A 
ATOM     28  HN  UNK N   1      33.681  19.710  -4.142  1.00  0.00     0.195 HD
HETATM   29  C   UNK N   1      30.875  21.122  -4.799  0.00  0.00     0.078 A 
BRANCH  27  30
HETATM   30  C   UNK N   1      32.127  21.546  -2.653  0.00  0.00     0.195 C 
HETATM   31  O   UNK N   1      33.106  21.273  -1.975  0.00  0.00    -0.645 OA
BRANCH  30  32
HETATM   32  O   UNK N   1      31.216  22.419  -2.188  0.00  0.00    -0.772 OA
HETATM   33  H   UNK N   1      31.139  23.270  -2.574  0.00  0.00     0.167 HD
ENDBRANCH  30  32
ENDBRANCH  27  30
ENDBRANCH   2  24
TORSDOF 10
ENDMDL
MODEL 8
REMARK VINA RESULT:      -7.1      5.174      7.551
REMARK  10 active torsions:
REMARK  status: ('A' for Active; 'I' for Inactive)
REMARK    1  A    between atoms: C_2  and  C_7 
REMARK    2  A    between atoms: C_4  and  C_16 
REMARK    3  A    between atoms: C_11  and  C_13 
REMARK    4  A    between atoms: C_13  and  O_14 
REMARK    5  A    between atoms: C_17  and  O_28 
REMARK    6  A    between atoms: C_21  and  O_27 
REMARK    7  A    between atoms: C_22  and  C_23 
REMARK    8  A    between atoms: C_23  and  O_25 
REMARK    9  A    between atoms: O_28  and  C_29 
REMARK   10  A    between atoms: C_29  and  C_30 
ROOT
HETATM    1  C   UNK N   1      24.261  20.177   3.246  0.00  0.00     0.129 A 
HETATM    2  C   UNK N   1      24.139  19.119   4.167  0.00  0.00     0.039 A 
HETATM    3  C   UNK N   1      25.287  18.561   4.718  0.00  0.00     0.029 A 
HETATM    4  C   UNK N   1      26.545  19.001   4.362  0.00  0.00    -0.035 A 
HETATM    5  C   UNK N   1      26.682  20.045   3.434  0.00  0.00     0.014 A 
HETATM    6  C   UNK N   1      25.537  20.648   2.896  0.00  0.00     0.044 A 
HETATM    7  F   UNK N   1      23.164  20.727   2.668  0.00  0.00    -0.205 F 
ENDROOT
BRANCH   4   8
HETATM    8  C   UNK N   1      27.663  18.205   4.859  0.00  0.00     0.009 C 
HETATM    9  C   UNK N   1      28.662  17.812   4.079  0.00  0.00     0.000 C 
BRANCH   9  10
HETATM   10  C   UNK N   1      29.715  16.889   4.596  0.00  0.00     0.203 C 
BRANCH  10  11
HETATM   11  O   UNK N   1      30.054  17.156   5.909  0.00  0.00    -0.346 OA
BRANCH  11  12
HETATM   12  C   UNK N   1      31.345  17.213   6.316  0.00  0.00     0.088 A 
HETATM   13  C   UNK N   1      32.331  17.143   5.328  0.00  0.00     0.038 A 
HETATM   14  C   UNK N   1      33.677  17.290   5.650  0.00  0.00     0.005 A 
HETATM   15  C   UNK N   1      34.054  17.507   6.972  0.00  0.00     0.038 A 
HETATM   16  C   UNK N   1      33.097  17.554   7.987  0.00  0.00     0.084 A 
HETATM   17  C   UNK N   1      31.719  17.401   7.685  0.00  0.00     0.105 A 
BRANCH  16  18
HETATM   18  O   UNK N   1      33.522  17.692   9.254  0.00  0.00    -0.360 OA
HETATM   19  H   UNK N   1      32.942  17.915   9.956  0.00  0.00     0.217 HD
ENDBRANCH  16  18
BRANCH  17  20
HETATM   20  C   UNK N   1      30.689  17.358   8.785  0.00  0.00     0.298 C 
HETATM   21  O   UNK N   1      30.682  16.402   9.544  0.00  0.00    -0.259 OA
BRANCH  20  22
HETATM   22  O   UNK N   1      29.789  18.349   9.010  0.00  0.00    -0.322 OA
HETATM   23  C   UNK N   1      28.433  18.144   9.099  0.00  0.00     0.213 C 
ENDBRANCH  20  22
ENDBRANCH  17  20
ENDBRANCH  11  12
ENDBRANCH  10  11
ENDBRANCH   9  10
ENDBRANCH   4   8
BRANCH   2  24
HETATM   24  C   UNK N   1      22.860  18.494   4.523  0.00  0.00     0.114 A 
HETATM   25  O   UNK N   1      22.390  18.298   5.733  0.00  0.00    -0.236 OA
HETATM   26  N   UNK N   1      21.188  17.806   5.685  0.00  0.00    -0.254 N 
HETATM   27  C   UNK N   1      20.862  17.681   4.381  0.00  0.00     0.130 A 
ATOM     28  HN  UNK N   1      20.602  17.560   6.483  1.00  0.00     0.195 HD
HETATM   29  C   UNK N   1      21.904  18.111   3.603  0.00  0.00     0.078 A 
BRANCH  27  30
HETATM   30  C   UNK N   1      19.574  17.191   3.874  0.00  0.00     0.195 C 
HETATM   31  O   UNK N   1      18.889  16.447   4.560  0.00  0.00    -0.645 OA
BRANCH  30  32
HETATM   32  O   UNK N   1      19.149  17.547   2.649  0.00  0.00    -0.772 OA
HETATM   33  H   UNK N   1      18.298  17.923   2.536  0.00  0.00     0.167 HD
ENDBRANCH  30  32
ENDBRANCH  27  30
ENDBRANCH   2  24
TORSDOF 10
ENDMDL
MODEL 9
REMARK VINA RESULT:      -7.1      4.812     10.200
REMARK  10 active torsions:
REMARK  status: ('A' for Active; 'I' for Inactive)
REMARK    1  A    between atoms: C_2  and  C_7 
REMARK    2  A    between atoms: C_4  and  C_16 
REMARK    3  A    between atoms: C_11  and  C_13 
REMARK    4  A    between atoms: C_13  and  O_14 
REMARK    5  A    between atoms: C_17  and  O_28 
REMARK    6  A    between atoms: C_21  and  O_27 
REMARK    7  A    between atoms: C_22  and  C_23 
REMARK    8  A    between atoms: C_23  and  O_25 
REMARK    9  A    between atoms: O_28  and  C_29 
REMARK   10  A    between atoms: C_29  and  C_30 
ROOT
HETATM    1  C   UNK N   1      23.451  10.179   7.261  0.00  0.00     0.129 A 
HETATM    2  C   UNK N   1      23.231  11.430   7.870  0.00  0.00     0.039 A 
HETATM    3  C   UNK N   1      22.678  12.463   7.123  0.00  0.00     0.029 A 
HETATM    4  C   UNK N   1      22.365  12.301   5.790  0.00  0.00    -0.035 A 
HETATM    5  C   UNK N   1      22.592  11.066   5.165  0.00  0.00     0.014 A 
HETATM    6  C   UNK N   1      23.113   9.998   5.910  0.00  0.00     0.044 A 
HETATM    7  F   UNK N   1      24.014   9.157   7.952  0.00  0.00    -0.205 F 
ENDROOT
BRANCH   4   8
HETATM    8  C   UNK N   1      21.978  13.513   5.074  0.00  0.00     0.009 C 
HETATM    9  C   UNK N   1      22.458  13.819   3.876  0.00  0.00     0.000 C 
BRANCH   9  10
HETATM   10  C   UNK N   1      22.139  15.130   3.238  0.00  0.00     0.203 C 
BRANCH  10  11
HETATM   11  O   UNK N   1      22.043  15.040   1.863  0.00  0.00    -0.346 OA
BRANCH  11  12
HETATM   12  C   UNK N   1      20.939  14.544   1.254  0.00  0.00     0.088 A 
HETATM   13  C   UNK N   1      20.827  13.153   1.166  0.00  0.00     0.038 A 
HETATM   14  C   UNK N   1      19.682  12.560   0.643  0.00  0.00     0.005 A 
HETATM   15  C   UNK N   1      18.632  13.355   0.196  0.00  0.00     0.038 A 
HETATM   16  C   UNK N   1      18.722  14.748   0.243  0.00  0.00     0.084 A 
HETATM   17  C   UNK N   1      19.881  15.376   0.767  0.00  0.00     0.105 A 
BRANCH  16  18
HETATM   18  O   UNK N   1      17.710  15.467  -0.269  0.00  0.00    -0.360 OA
HETATM   19  H   UNK N   1      17.150  15.996   0.264  0.00  0.00     0.217 HD
ENDBRANCH  16  18
BRANCH  17  20
HETATM   20  C   UNK N   1      20.026  16.877   0.736  0.00  0.00     0.298 C 
HETATM   21  O   UNK N   1      20.372  17.411  -0.306  0.00  0.00    -0.259 OA
BRANCH  20  22
HETATM   22  O   UNK N   1      19.746  17.680   1.794  0.00  0.00    -0.322 OA
HETATM   23  C   UNK N   1      20.707  18.256   2.590  0.00  0.00     0.213 C 
ENDBRANCH  20  22
ENDBRANCH  17  20
ENDBRANCH  11  12
ENDBRANCH  10  11
ENDBRANCH   9  10
ENDBRANCH   4   8
BRANCH   2  24
HETATM   24  C   UNK N   1      23.638  11.747   9.244  0.00  0.00     0.114 A 
HETATM   25  O   UNK N   1      24.635  12.518   9.611  0.00  0.00    -0.236 OA
HETATM   26  N   UNK N   1      24.655  12.659  10.904  0.00  0.00    -0.254 N 
HETATM   27  C   UNK N   1      23.619  11.949  11.397  0.00  0.00     0.130 A 
ATOM     28  HN  UNK N   1      25.328  13.204  11.443  1.00  0.00     0.195 HD
HETATM   29  C   UNK N   1      22.941  11.349  10.369  0.00  0.00     0.078 A 
BRANCH  27  30
HETATM   30  C   UNK N   1      23.254  11.858  12.816  0.00  0.00     0.195 C 
HETATM   31  O   UNK N   1      23.979  12.352  13.667  0.00  0.00    -0.645 OA
BRANCH  30  32
HETATM   32  O   UNK N   1      22.130  11.221  13.187  0.00  0.00    -0.772 OA
HETATM   33  H   UNK N   1      21.632  10.738  12.556  0.00  0.00     0.167 HD
ENDBRANCH  30  32
ENDBRANCH  27  30
ENDBRANCH   2  24
TORSDOF 10
ENDMDL
