REMARK  10 active torsions:
REMARK  status: ('A' for Active; 'I' for Inactive)
REMARK    1  A    between atoms: C_2  and  C_7 
REMARK    2  A    between atoms: C_4  and  C_16 
REMARK    3  A    between atoms: C_11  and  C_13 
REMARK    4  A    between atoms: C_13  and  O_14 
REMARK    5  A    between atoms: C_17  and  O_28 
REMARK    6  A    between atoms: C_21  and  O_27 
REMARK    7  A    between atoms: C_22  and  C_23 
REMARK    8  A    between atoms: C_23  and  O_25 
REMARK    9  A    between atoms: O_28  and  C_29 
REMARK   10  A    between atoms: C_29  and  C_30 
ROOT
HETATM    1  C   UNK N   1       4.224  -2.622  -0.076  0.00  0.00     0.129 A 
HETATM    2  C   UNK N   1       2.901  -3.099  -0.153  0.00  0.00     0.039 A 
HETATM    3  C   UNK N   1       1.848  -2.193  -0.118  0.00  0.00     0.029 A 
HETATM    4  C   UNK N   1       2.066  -0.838   0.020  0.00  0.00    -0.035 A 
HETATM    5  C   UNK N   1       3.378  -0.349   0.113  0.00  0.00     0.014 A 
HETATM    6  C   UNK N   1       4.457  -1.242   0.040  0.00  0.00     0.044 A 
HETATM    7  F   UNK N   1       5.275  -3.479  -0.080  0.00  0.00    -0.205 F 
ENDROOT
BRANCH   4   8
HETATM    8  C   UNK N   1       0.878  -0.020   0.241  0.00  0.00     0.009 C 
HETATM    9  C   UNK N   1       0.920   1.143   0.878  0.00  0.00     0.000 C 
BRANCH   9  10
HETATM   10  C   UNK N   1      -0.336   1.883   1.199  0.00  0.00     0.203 C 
BRANCH  10  11
HETATM   11  O   UNK N   1      -1.409   1.457   0.440  0.00  0.00    -0.346 OA
BRANCH  11  12
HETATM   12  C   UNK N   1      -2.445   2.278   0.143  0.00  0.00     0.088 A 
HETATM   13  C   UNK N   1      -3.733   1.742   0.235  0.00  0.00     0.038 A 
HETATM   14  C   UNK N   1      -4.855   2.541   0.040  0.00  0.00     0.005 A 
HETATM   15  C   UNK N   1      -4.702   3.892  -0.254  0.00  0.00     0.038 A 
HETATM   16  C   UNK N   1      -3.430   4.454  -0.381  0.00  0.00     0.084 A 
HETATM   17  C   UNK N   1      -2.270   3.658  -0.193  0.00  0.00     0.105 A 
BRANCH  16  18
HETATM   18  O   UNK N   1      -3.339   5.745  -0.739  0.00  0.00    -0.360 OA
HETATM   19  H   UNK N   1      -2.527   6.140  -0.989  0.00  0.00     0.217 HD
ENDBRANCH  16  18
BRANCH  17  20
HETATM   20  C   UNK N   1      -0.895   4.234  -0.420  0.00  0.00     0.298 C 
HETATM   21  O   UNK N   1      -0.035   3.522  -0.913  0.00  0.00    -0.259 OA
BRANCH  20  22
HETATM   22  O   UNK N   1      -0.567   5.523  -0.147  0.00  0.00    -0.322 OA
HETATM   23  C   UNK N   1      -1.189   6.282   0.815  0.00  0.00     0.213 C 
ENDBRANCH  20  22
ENDBRANCH  17  20
ENDBRANCH  11  12
ENDBRANCH  10  11
ENDBRANCH   9  10
ENDBRANCH   4   8
BRANCH   2  24
HETATM   24  C   UNK N   1       2.551  -4.524  -0.179  0.00  0.00     0.114 A 
HETATM   25  O   UNK N   1       3.380  -5.539  -0.106  0.00  0.00    -0.236 OA
HETATM   26  N   UNK N   1       2.728  -6.663  -0.062  0.00  0.00    -0.254 N 
HETATM   27  C   UNK N   1       1.413  -6.361  -0.104  0.00  0.00     0.130 A 
ATOM     28  HN  UNK N   1       3.134  -7.597  -0.006  1.00  0.00     0.195 HD
HETATM   29  C   UNK N   1       1.255  -5.002  -0.179  0.00  0.00     0.078 A 
BRANCH  27  30
HETATM   30  C   UNK N   1       0.318  -7.337  -0.045  0.00  0.00     0.195 C 
HETATM   31  O   UNK N   1      -0.843  -6.957  -0.083  0.00  0.00    -0.645 OA
BRANCH  30  32
HETATM   32  O   UNK N   1       0.586  -8.650   0.066  0.00  0.00    -0.772 OA
HETATM   33  H   UNK N   1      -0.114  -9.269   0.144  0.00  0.00     0.167 HD
ENDBRANCH  30  32
ENDBRANCH  27  30
ENDBRANCH   2  24
TORSDOF 10
