MODEL 1
REMARK VINA RESULT:      -7.3      0.000      0.000
REMARK  6 active torsions:
REMARK  status: ('A' for Active; 'I' for Inactive)
REMARK    1  A    between atoms: C_3  and  N_4 
REMARK    2  A    between atoms: C_3  and  C_5 
REMARK    3  A    between atoms: C_10  and  C_15 
REMARK       I    between atoms: C_15  and  N_17 
REMARK    4  A    between atoms: N_17  and  C_18 
REMARK    5  A    between atoms: C_21  and  C_24 
REMARK    6  A    between atoms: C_24  and  N_25 
ROOT
HETATM    1  C   UNK N   1      21.585  19.599   2.899  0.00  0.00     0.008 A 
HETATM    2  C   UNK N   1      22.757  20.274   2.543  0.00  0.00     0.027 A 
HETATM    3  C   UNK N   1      23.960  19.973   3.174  0.00  0.00    -0.025 A 
HETATM    4  C   UNK N   1      25.121  20.651   2.813  0.00  0.00     0.013 A 
HETATM    5  C   UNK N   1      26.323  20.347   3.447  0.00  0.00     0.018 A 
HETATM    6  C   UNK N   1      26.374  19.364   4.446  0.00  0.00     0.033 A 
HETATM    7  C   UNK N   1      25.208  18.680   4.812  0.00  0.00     0.029 A 
HETATM    8  C   UNK N   1      24.001  18.981   4.180  0.00  0.00    -0.025 A 
HETATM    9  C   UNK N   1      22.834  18.305   4.538  0.00  0.00     0.013 A 
HETATM   10  C   UNK N   1      21.630  18.613   3.900  0.00  0.00     0.016 A 
ENDROOT
BRANCH   6  11
HETATM   11  C   UNK N   1      27.656  19.064   5.098  0.00  0.00     0.256 C 
HETATM   12  O   UNK N   1      28.645  19.736   4.851  0.00  0.00    -0.267 OA
HETATM   13  N   UNK N   1      27.706  18.027   5.975  0.00  0.00    -0.323 N 
HETATM   14  H   UNK N   1      26.868  17.533   6.122  0.00  0.00     0.169 HD
BRANCH  13  15
HETATM   15  C   UNK N   1      28.838  17.582   6.701  0.00  0.00     0.035 A 
HETATM   16  C   UNK N   1      29.634  16.589   6.129  0.00  0.00     0.030 A 
HETATM   17  C   UNK N   1      30.758  16.115   6.800  0.00  0.00     0.011 A 
HETATM   18  C   UNK N   1      31.100  16.632   8.056  0.00  0.00    -0.041 A 
HETATM   19  C   UNK N   1      30.306  17.628   8.634  0.00  0.00     0.011 A 
HETATM   20  C   UNK N   1      29.177  18.103   7.959  0.00  0.00     0.030 A 
BRANCH  18  21
HETATM   21  C   UNK N   1      32.303  16.142   8.800  0.00  0.00     0.150 C 
BRANCH  21  22
HETATM   22  N   UNK N   1      31.936  15.302   9.931  0.00  0.00    -0.426 N 
HETATM   23  H   UNK N   1      32.216  15.566  10.874  0.00  0.00     0.150 HD
HETATM   24  H   UNK N   1      31.399  14.448   9.778  0.00  0.00     0.150 HD
ENDBRANCH  21  22
ENDBRANCH  18  21
ENDBRANCH  13  15
ENDBRANCH   6  11
BRANCH   1  25
HETATM   25  C   UNK N   1      20.318  19.929   2.221  0.00  0.00     0.102 C 
HETATM   26  N   UNK N   1      19.223  19.368   2.582  0.00  0.00    -0.385 N 
HETATM   27  H   UNK N   1      18.379  19.593   2.126  0.00  0.00     0.157 HD
ATOM     28  HN  UNK N   1      19.224  18.689   3.343  1.00  0.00     0.157 HD
BRANCH  25  29
HETATM   29  N   UNK N   1      20.301  20.868   1.164  0.00  0.00    -0.385 N 
HETATM   30  H   UNK N   1      19.463  21.046   0.678  0.00  0.00     0.157 HD
HETATM   31  H   UNK N   1      21.125  21.344   0.914  0.00  0.00     0.157 HD
ENDBRANCH  25  29
ENDBRANCH   1  25
TORSDOF 6
ENDMDL
MODEL 2
REMARK VINA RESULT:      -7.2     10.353     16.508
REMARK  6 active torsions:
REMARK  status: ('A' for Active; 'I' for Inactive)
REMARK    1  A    between atoms: C_3  and  N_4 
REMARK    2  A    between atoms: C_3  and  C_5 
REMARK    3  A    between atoms: C_10  and  C_15 
REMARK       I    between atoms: C_15  and  N_17 
REMARK    4  A    between atoms: N_17  and  C_18 
REMARK    5  A    between atoms: C_21  and  C_24 
REMARK    6  A    between atoms: C_24  and  N_25 
ROOT
HETATM    1  C   UNK N   1      35.469  11.573  19.275  0.00  0.00     0.008 A 
HETATM    2  C   UNK N   1      35.850  10.831  18.152  0.00  0.00     0.027 A 
HETATM    3  C   UNK N   1      35.904  11.433  16.898  0.00  0.00    -0.025 A 
HETATM    4  C   UNK N   1      36.285  10.686  15.787  0.00  0.00     0.013 A 
HETATM    5  C   UNK N   1      36.338  11.291  14.534  0.00  0.00     0.018 A 
HETATM    6  C   UNK N   1      36.011  12.647  14.382  0.00  0.00     0.033 A 
HETATM    7  C   UNK N   1      35.628  13.401  15.498  0.00  0.00     0.029 A 
HETATM    8  C   UNK N   1      35.573  12.799  16.755  0.00  0.00    -0.025 A 
HETATM    9  C   UNK N   1      35.193  13.543  17.873  0.00  0.00     0.013 A 
HETATM   10  C   UNK N   1      35.141  12.932  19.129  0.00  0.00     0.016 A 
ENDROOT
BRANCH   6  11
HETATM   11  C   UNK N   1      36.075  13.260  13.049  0.00  0.00     0.256 C 
HETATM   12  O   UNK N   1      37.066  13.113  12.350  0.00  0.00    -0.267 OA
HETATM   13  N   UNK N   1      35.010  13.987  12.621  0.00  0.00    -0.323 N 
HETATM   14  H   UNK N   1      34.249  14.060  13.240  0.00  0.00     0.169 HD
BRANCH  13  15
HETATM   15  C   UNK N   1      34.879  14.652  11.377  0.00  0.00     0.035 A 
HETATM   16  C   UNK N   1      35.250  15.995  11.310  0.00  0.00     0.030 A 
HETATM   17  C   UNK N   1      35.141  16.696  10.112  0.00  0.00     0.011 A 
HETATM   18  C   UNK N   1      34.658  16.057   8.962  0.00  0.00    -0.041 A 
HETATM   19  C   UNK N   1      34.285  14.711   9.024  0.00  0.00     0.011 A 
HETATM   20  C   UNK N   1      34.395  14.009  10.228  0.00  0.00     0.030 A 
BRANCH  18  21
HETATM   21  C   UNK N   1      34.531  16.786   7.660  0.00  0.00     0.150 C 
BRANCH  21  22
HETATM   22  N   UNK N   1      34.351  18.217   7.856  0.00  0.00    -0.426 N 
HETATM   23  H   UNK N   1      33.467  18.575   8.215  0.00  0.00     0.150 HD
HETATM   24  H   UNK N   1      35.109  18.862   7.633  0.00  0.00     0.150 HD
ENDBRANCH  21  22
ENDBRANCH  18  21
ENDBRANCH  13  15
ENDBRANCH   6  11
BRANCH   1  25
HETATM   25  C   UNK N   1      35.417  10.921  20.597  0.00  0.00     0.102 C 
HETATM   26  N   UNK N   1      34.289  10.650  21.142  0.00  0.00    -0.385 N 
HETATM   27  H   UNK N   1      34.260  10.214  22.025  0.00  0.00     0.157 HD
ATOM     28  HN  UNK N   1      33.420  10.884  20.661  1.00  0.00     0.157 HD
BRANCH  25  29
HETATM   29  N   UNK N   1      36.613  10.590  21.274  0.00  0.00    -0.385 N 
HETATM   30  H   UNK N   1      36.983  11.206  21.947  0.00  0.00     0.157 HD
HETATM   31  H   UNK N   1      37.075   9.745  21.073  0.00  0.00     0.157 HD
ENDBRANCH  25  29
ENDBRANCH   1  25
TORSDOF 6
ENDMDL
MODEL 3
REMARK VINA RESULT:      -7.1      1.622      9.803
REMARK  6 active torsions:
REMARK  status: ('A' for Active; 'I' for Inactive)
REMARK    1  A    between atoms: C_3  and  N_4 
REMARK    2  A    between atoms: C_3  and  C_5 
REMARK    3  A    between atoms: C_10  and  C_15 
REMARK       I    between atoms: C_15  and  N_17 
REMARK    4  A    between atoms: N_17  and  C_18 
REMARK    5  A    between atoms: C_21  and  C_24 
REMARK    6  A    between atoms: C_24  and  N_25 
ROOT
HETATM    1  C   UNK N   1      32.733  17.151   8.120  0.00  0.00     0.008 A 
HETATM    2  C   UNK N   1      31.444  17.381   8.613  0.00  0.00     0.027 A 
HETATM    3  C   UNK N   1      30.374  17.532   7.736  0.00  0.00    -0.025 A 
HETATM    4  C   UNK N   1      29.095  17.760   8.235  0.00  0.00     0.013 A 
HETATM    5  C   UNK N   1      28.027  17.910   7.356  0.00  0.00     0.018 A 
HETATM    6  C   UNK N   1      28.228  17.834   5.969  0.00  0.00     0.033 A 
HETATM    7  C   UNK N   1      29.514  17.604   5.463  0.00  0.00     0.029 A 
HETATM    8  C   UNK N   1      30.587  17.453   6.341  0.00  0.00    -0.025 A 
HETATM    9  C   UNK N   1      31.871  17.224   5.846  0.00  0.00     0.013 A 
HETATM   10  C   UNK N   1      32.941  17.073   6.733  0.00  0.00     0.016 A 
ENDROOT
BRANCH   6  11
HETATM   11  C   UNK N   1      27.083  17.996   5.064  0.00  0.00     0.256 C 
HETATM   12  O   UNK N   1      26.958  17.269   4.091  0.00  0.00    -0.267 OA
HETATM   13  N   UNK N   1      26.176  18.970   5.339  0.00  0.00    -0.323 N 
HETATM   14  H   UNK N   1      26.345  19.516   6.140  0.00  0.00     0.169 HD
BRANCH  13  15
HETATM   15  C   UNK N   1      25.014  19.284   4.594  0.00  0.00     0.035 A 
HETATM   16  C   UNK N   1      23.856  18.545   4.844  0.00  0.00     0.030 A 
HETATM   17  C   UNK N   1      22.685  18.813   4.140  0.00  0.00     0.011 A 
HETATM   18  C   UNK N   1      22.659  19.827   3.173  0.00  0.00    -0.041 A 
HETATM   19  C   UNK N   1      23.816  20.570   2.920  0.00  0.00     0.011 A 
HETATM   20  C   UNK N   1      24.991  20.300   3.628  0.00  0.00     0.030 A 
BRANCH  18  21
HETATM   21  C   UNK N   1      21.414  20.136   2.401  0.00  0.00     0.150 C 
BRANCH  21  22
HETATM   22  N   UNK N   1      20.426  20.824   3.219  0.00  0.00    -0.426 N 
HETATM   23  H   UNK N   1      20.305  20.566   4.198  0.00  0.00     0.150 HD
HETATM   24  H   UNK N   1      19.853  21.564   2.813  0.00  0.00     0.150 HD
ENDBRANCH  21  22
ENDBRANCH  18  21
ENDBRANCH  13  15
ENDBRANCH   6  11
BRANCH   1  25
HETATM   25  C   UNK N   1      33.857  16.993   9.062  0.00  0.00     0.102 C 
HETATM   26  N   UNK N   1      34.829  17.829   9.058  0.00  0.00    -0.385 N 
HETATM   27  H   UNK N   1      35.577  17.718   9.689  0.00  0.00     0.157 HD
ATOM     28  HN  UNK N   1      34.829  18.608   8.400  1.00  0.00     0.157 HD
BRANCH  25  29
HETATM   29  N   UNK N   1      33.870  15.918   9.979  0.00  0.00    -0.385 N 
HETATM   30  H   UNK N   1      33.393  15.083   9.765  0.00  0.00     0.157 HD
HETATM   31  H   UNK N   1      34.356  16.002  10.831  0.00  0.00     0.157 HD
ENDBRANCH  25  29
ENDBRANCH   1  25
TORSDOF 6
ENDMDL
MODEL 4
REMARK VINA RESULT:      -7.1      1.663      9.499
REMARK  6 active torsions:
REMARK  status: ('A' for Active; 'I' for Inactive)
REMARK    1  A    between atoms: C_3  and  N_4 
REMARK    2  A    between atoms: C_3  and  C_5 
REMARK    3  A    between atoms: C_10  and  C_15 
REMARK       I    between atoms: C_15  and  N_17 
REMARK    4  A    between atoms: N_17  and  C_18 
REMARK    5  A    between atoms: C_21  and  C_24 
REMARK    6  A    between atoms: C_24  and  N_25 
ROOT
HETATM    1  C   UNK N   1      31.861  17.533   8.039  0.00  0.00     0.008 A 
HETATM    2  C   UNK N   1      31.683  17.226   6.686  0.00  0.00     0.027 A 
HETATM    3  C   UNK N   1      30.433  17.369   6.092  0.00  0.00    -0.025 A 
HETATM    4  C   UNK N   1      30.265  17.062   4.746  0.00  0.00     0.013 A 
HETATM    5  C   UNK N   1      29.013  17.205   4.156  0.00  0.00     0.018 A 
HETATM    6  C   UNK N   1      27.917  17.657   4.907  0.00  0.00     0.033 A 
HETATM    7  C   UNK N   1      28.082  17.967   6.263  0.00  0.00     0.029 A 
HETATM    8  C   UNK N   1      29.335  17.824   6.858  0.00  0.00    -0.025 A 
HETATM    9  C   UNK N   1      29.509  18.131   8.208  0.00  0.00     0.013 A 
HETATM   10  C   UNK N   1      30.768  17.985   8.797  0.00  0.00     0.016 A 
ENDROOT
BRANCH   6  11
HETATM   11  C   UNK N   1      26.607  17.798   4.258  0.00  0.00     0.256 C 
HETATM   12  O   UNK N   1      26.272  17.030   3.370  0.00  0.00    -0.267 OA
HETATM   13  N   UNK N   1      25.788  18.801   4.672  0.00  0.00    -0.323 N 
HETATM   14  H   UNK N   1      26.128  19.379   5.392  0.00  0.00     0.169 HD
BRANCH  13  15
HETATM   15  C   UNK N   1      24.496  19.102   4.177  0.00  0.00     0.035 A 
HETATM   16  C   UNK N   1      24.358  20.201   3.329  0.00  0.00     0.030 A 
HETATM   17  C   UNK N   1      23.110  20.541   2.813  0.00  0.00     0.011 A 
HETATM   18  C   UNK N   1      21.980  19.781   3.143  0.00  0.00    -0.041 A 
HETATM   19  C   UNK N   1      22.113  18.678   3.993  0.00  0.00     0.011 A 
HETATM   20  C   UNK N   1      23.366  18.338   4.509  0.00  0.00     0.030 A 
BRANCH  18  21
HETATM   21  C   UNK N   1      20.626  20.123   2.604  0.00  0.00     0.150 C 
BRANCH  21  22
HETATM   22  N   UNK N   1      20.307  19.352   1.411  0.00  0.00    -0.426 N 
HETATM   23  H   UNK N   1      19.338  19.261   1.107  0.00  0.00     0.150 HD
HETATM   24  H   UNK N   1      21.052  18.901   0.880  0.00  0.00     0.150 HD
ENDBRANCH  21  22
ENDBRANCH  18  21
ENDBRANCH  13  15
ENDBRANCH   6  11
BRANCH   1  25
HETATM   25  C   UNK N   1      33.193  17.377   8.654  0.00  0.00     0.102 C 
HETATM   26  N   UNK N   1      33.435  16.392   9.439  0.00  0.00    -0.385 N 
HETATM   27  H   UNK N   1      34.326  16.293   9.846  0.00  0.00     0.157 HD
ATOM     28  HN  UNK N   1      32.703  15.711   9.642  1.00  0.00     0.157 HD
BRANCH  25  29
HETATM   29  N   UNK N   1      34.216  18.314   8.381  0.00  0.00    -0.385 N 
HETATM   30  H   UNK N   1      34.602  18.847   9.113  0.00  0.00     0.157 HD
HETATM   31  H   UNK N   1      34.542  18.433   7.460  0.00  0.00     0.157 HD
ENDBRANCH  25  29
ENDBRANCH   1  25
TORSDOF 6
ENDMDL
MODEL 5
REMARK VINA RESULT:      -7.0      1.074      2.131
REMARK  6 active torsions:
REMARK  status: ('A' for Active; 'I' for Inactive)
REMARK    1  A    between atoms: C_3  and  N_4 
REMARK    2  A    between atoms: C_3  and  C_5 
REMARK    3  A    between atoms: C_10  and  C_15 
REMARK       I    between atoms: C_15  and  N_17 
REMARK    4  A    between atoms: N_17  and  C_18 
REMARK    5  A    between atoms: C_21  and  C_24 
REMARK    6  A    between atoms: C_24  and  N_25 
ROOT
HETATM    1  C   UNK N   1      21.534  18.993   3.079  0.00  0.00     0.008 A 
HETATM    2  C   UNK N   1      22.174  17.962   3.775  0.00  0.00     0.027 A 
HETATM    3  C   UNK N   1      23.502  18.100   4.169  0.00  0.00    -0.025 A 
HETATM    4  C   UNK N   1      24.130  17.069   4.861  0.00  0.00     0.013 A 
HETATM    5  C   UNK N   1      25.458  17.210   5.253  0.00  0.00     0.018 A 
HETATM    6  C   UNK N   1      26.169  18.383   4.958  0.00  0.00     0.033 A 
HETATM    7  C   UNK N   1      25.539  19.423   4.262  0.00  0.00     0.029 A 
HETATM    8  C   UNK N   1      24.209  19.286   3.866  0.00  0.00    -0.025 A 
HETATM    9  C   UNK N   1      23.574  20.316   3.172  0.00  0.00     0.013 A 
HETATM   10  C   UNK N   1      22.240  20.170   2.780  0.00  0.00     0.016 A 
ENDROOT
BRANCH   6  11
HETATM   11  C   UNK N   1      27.569  18.505   5.384  0.00  0.00     0.256 C 
HETATM   12  O   UNK N   1      28.287  19.368   4.905  0.00  0.00    -0.267 OA
HETATM   13  N   UNK N   1      28.036  17.637   6.320  0.00  0.00    -0.323 N 
HETATM   14  H   UNK N   1      27.398  16.969   6.659  0.00  0.00     0.169 HD
BRANCH  13  15
HETATM   15  C   UNK N   1      29.345  17.591   6.858  0.00  0.00     0.035 A 
HETATM   16  C   UNK N   1      29.560  18.171   8.109  0.00  0.00     0.030 A 
HETATM   17  C   UNK N   1      30.828  18.153   8.684  0.00  0.00     0.011 A 
HETATM   18  C   UNK N   1      31.900  17.552   8.011  0.00  0.00    -0.041 A 
HETATM   19  C   UNK N   1      31.689  16.969   6.757  0.00  0.00     0.011 A 
HETATM   20  C   UNK N   1      30.416  16.988   6.181  0.00  0.00     0.030 A 
BRANCH  18  21
HETATM   21  C   UNK N   1      33.274  17.519   8.605  0.00  0.00     0.150 C 
BRANCH  21  22
HETATM   22  N   UNK N   1      33.437  16.408   9.531  0.00  0.00    -0.426 N 
HETATM   23  H   UNK N   1      32.813  16.315  10.331  0.00  0.00     0.150 HD
HETATM   24  H   UNK N   1      34.176  15.721   9.378  0.00  0.00     0.150 HD
ENDBRANCH  21  22
ENDBRANCH  18  21
ENDBRANCH  13  15
ENDBRANCH   6  11
BRANCH   1  25
HETATM   25  C   UNK N   1      20.127  18.832   2.668  0.00  0.00     0.102 C 
HETATM   26  N   UNK N   1      19.552  19.728   1.952  0.00  0.00    -0.385 N 
HETATM   27  H   UNK N   1      18.613  19.615   1.681  0.00  0.00     0.157 HD
ATOM     28  HN  UNK N   1      20.070  20.559   1.664  1.00  0.00     0.157 HD
BRANCH  25  29
HETATM   29  N   UNK N   1      19.398  17.686   3.060  0.00  0.00    -0.385 N 
HETATM   30  H   UNK N   1      18.494  17.783   3.437  0.00  0.00     0.157 HD
HETATM   31  H   UNK N   1      19.795  16.791   2.958  0.00  0.00     0.157 HD
ENDBRANCH  25  29
ENDBRANCH   1  25
TORSDOF 6
ENDMDL
MODEL 6
REMARK VINA RESULT:      -6.8     15.480     19.272
REMARK  6 active torsions:
REMARK  status: ('A' for Active; 'I' for Inactive)
REMARK    1  A    between atoms: C_3  and  N_4 
REMARK    2  A    between atoms: C_3  and  C_5 
REMARK    3  A    between atoms: C_10  and  C_15 
REMARK       I    between atoms: C_15  and  N_17 
REMARK    4  A    between atoms: N_17  and  C_18 
REMARK    5  A    between atoms: C_21  and  C_24 
REMARK    6  A    between atoms: C_24  and  N_25 
ROOT
HETATM    1  C   UNK N   1      36.352  12.768  14.870  0.00  0.00     0.008 A 
HETATM    2  C   UNK N   1      35.967  13.444  16.032  0.00  0.00     0.027 A 
HETATM    3  C   UNK N   1      35.655  12.733  17.187  0.00  0.00    -0.025 A 
HETATM    4  C   UNK N   1      35.273  13.415  18.338  0.00  0.00     0.013 A 
HETATM    5  C   UNK N   1      34.961  12.701  19.492  0.00  0.00     0.018 A 
HETATM    6  C   UNK N   1      35.030  11.299  19.504  0.00  0.00     0.033 A 
HETATM    7  C   UNK N   1      35.414  10.610  18.347  0.00  0.00     0.029 A 
HETATM    8  C   UNK N   1      35.727  11.322  17.189  0.00  0.00    -0.025 A 
HETATM    9  C   UNK N   1      36.111  10.644  16.031  0.00  0.00     0.013 A 
HETATM   10  C   UNK N   1      36.423  11.365  14.875  0.00  0.00     0.016 A 
ENDROOT
BRANCH   6  11
HETATM   11  C   UNK N   1      34.696  10.571  20.735  0.00  0.00     0.256 C 
HETATM   12  O   UNK N   1      35.555   9.940  21.331  0.00  0.00    -0.267 OA
HETATM   13  N   UNK N   1      33.414  10.620  21.186  0.00  0.00    -0.323 N 
HETATM   14  H   UNK N   1      32.779  11.149  20.652  0.00  0.00     0.169 HD
BRANCH  13  15
HETATM   15  C   UNK N   1      32.896   9.991  22.344  0.00  0.00     0.035 A 
HETATM   16  C   UNK N   1      32.394   8.696  22.217  0.00  0.00     0.030 A 
HETATM   17  C   UNK N   1      31.873   8.031  23.324  0.00  0.00     0.011 A 
HETATM   18  C   UNK N   1      31.848   8.658  24.577  0.00  0.00    -0.041 A 
HETATM   19  C   UNK N   1      32.351   9.957  24.709  0.00  0.00     0.011 A 
HETATM   20  C   UNK N   1      32.874  10.623  23.597  0.00  0.00     0.030 A 
BRANCH  18  21
HETATM   21  C   UNK N   1      31.294   7.968  25.784  0.00  0.00     0.150 C 
BRANCH  21  22
HETATM   22  N   UNK N   1      30.143   8.672  26.330  0.00  0.00    -0.426 N 
HETATM   23  H   UNK N   1      29.858   8.511  27.295  0.00  0.00     0.150 HD
HETATM   24  H   UNK N   1      29.621   9.326  25.746  0.00  0.00     0.150 HD
ENDBRANCH  21  22
ENDBRANCH  18  21
ENDBRANCH  13  15
ENDBRANCH   6  11
BRANCH   1  25
HETATM   25  C   UNK N   1      36.680  13.536  13.653  0.00  0.00     0.102 C 
HETATM   26  N   UNK N   1      37.189  12.950  12.633  0.00  0.00    -0.385 N 
HETATM   27  H   UNK N   1      37.406  13.467  11.824  0.00  0.00     0.157 HD
ATOM     28  HN  UNK N   1      37.371  11.946  12.660  1.00  0.00     0.157 HD
BRANCH  25  29
HETATM   29  N   UNK N   1      36.434  14.927  13.603  0.00  0.00    -0.385 N 
HETATM   30  H   UNK N   1      36.203  15.355  12.747  0.00  0.00     0.157 HD
HETATM   31  H   UNK N   1      36.493  15.468  14.424  0.00  0.00     0.157 HD
ENDBRANCH  25  29
ENDBRANCH   1  25
TORSDOF 6
ENDMDL
MODEL 7
REMARK VINA RESULT:      -6.7      8.795     14.987
REMARK  6 active torsions:
REMARK  status: ('A' for Active; 'I' for Inactive)
REMARK    1  A    between atoms: C_3  and  N_4 
REMARK    2  A    between atoms: C_3  and  C_5 
REMARK    3  A    between atoms: C_10  and  C_15 
REMARK       I    between atoms: C_15  and  N_17 
REMARK    4  A    between atoms: N_17  and  C_18 
REMARK    5  A    between atoms: C_21  and  C_24 
REMARK    6  A    between atoms: C_24  and  N_25 
ROOT
HETATM    1  C   UNK N   1      35.064  10.928  16.753  0.00  0.00     0.008 A 
HETATM    2  C   UNK N   1      35.776  12.106  16.504  0.00  0.00     0.027 A 
HETATM    3  C   UNK N   1      35.738  12.696  15.244  0.00  0.00    -0.025 A 
HETATM    4  C   UNK N   1      36.449  13.868  15.005  0.00  0.00     0.013 A 
HETATM    5  C   UNK N   1      36.409  14.455  13.744  0.00  0.00     0.018 A 
HETATM    6  C   UNK N   1      35.656  13.876  12.711  0.00  0.00     0.033 A 
HETATM    7  C   UNK N   1      34.939  12.697  12.948  0.00  0.00     0.029 A 
HETATM    8  C   UNK N   1      34.977  12.105  14.210  0.00  0.00    -0.025 A 
HETATM    9  C   UNK N   1      34.265  10.930  14.455  0.00  0.00     0.013 A 
HETATM   10  C   UNK N   1      34.308  10.343  15.723  0.00  0.00     0.016 A 
ENDROOT
BRANCH   6  11
HETATM   11  C   UNK N   1      35.631  14.517  11.390  0.00  0.00     0.256 C 
HETATM   12  O   UNK N   1      36.648  14.581  10.716  0.00  0.00    -0.267 OA
HETATM   13  N   UNK N   1      34.455  15.032  10.945  0.00  0.00    -0.323 N 
HETATM   14  H   UNK N   1      33.680  14.942  11.545  0.00  0.00     0.169 HD
BRANCH  13  15
HETATM   15  C   UNK N   1      34.226  15.685   9.709  0.00  0.00     0.035 A 
HETATM   16  C   UNK N   1      33.608  14.960   8.690  0.00  0.00     0.030 A 
HETATM   17  C   UNK N   1      33.360  15.553   7.455  0.00  0.00     0.011 A 
HETATM   18  C   UNK N   1      33.728  16.886   7.225  0.00  0.00    -0.041 A 
HETATM   19  C   UNK N   1      34.348  17.617   8.245  0.00  0.00     0.011 A 
HETATM   20  C   UNK N   1      34.596  17.019   9.484  0.00  0.00     0.030 A 
BRANCH  18  21
HETATM   21  C   UNK N   1      33.473  17.549   5.908  0.00  0.00     0.150 C 
BRANCH  21  22
HETATM   22  N   UNK N   1      32.185  17.168   5.349  0.00  0.00    -0.426 N 
HETATM   23  H   UNK N   1      31.963  17.392   4.380  0.00  0.00     0.150 HD
HETATM   24  H   UNK N   1      31.504  16.676   5.928  0.00  0.00     0.150 HD
ENDBRANCH  21  22
ENDBRANCH  18  21
ENDBRANCH  13  15
ENDBRANCH   6  11
BRANCH   1  25
HETATM   25  C   UNK N   1      35.114  10.315  18.094  0.00  0.00     0.102 C 
HETATM   26  N   UNK N   1      34.607   9.155  18.297  0.00  0.00    -0.385 N 
HETATM   27  H   UNK N   1      34.644   8.750  19.194  0.00  0.00     0.157 HD
ATOM     28  HN  UNK N   1      34.165   8.650  17.528  1.00  0.00     0.157 HD
BRANCH  25  29
HETATM   29  N   UNK N   1      35.724  11.003  19.168  0.00  0.00    -0.385 N 
HETATM   30  H   UNK N   1      35.269  11.772  19.581  0.00  0.00     0.157 HD
HETATM   31  H   UNK N   1      36.603  10.714  19.503  0.00  0.00     0.157 HD
ENDBRANCH  25  29
ENDBRANCH   1  25
TORSDOF 6
ENDMDL
MODEL 8
REMARK VINA RESULT:      -6.6      1.819      3.305
REMARK  6 active torsions:
REMARK  status: ('A' for Active; 'I' for Inactive)
REMARK    1  A    between atoms: C_3  and  N_4 
REMARK    2  A    between atoms: C_3  and  C_5 
REMARK    3  A    between atoms: C_10  and  C_15 
REMARK       I    between atoms: C_15  and  N_17 
REMARK    4  A    between atoms: N_17  and  C_18 
REMARK    5  A    between atoms: C_21  and  C_24 
REMARK    6  A    between atoms: C_24  and  N_25 
ROOT
HETATM    1  C   UNK N   1      23.931  19.341   3.714  0.00  0.00     0.008 A 
HETATM    2  C   UNK N   1      24.296  18.179   4.403  0.00  0.00     0.027 A 
HETATM    3  C   UNK N   1      25.622  17.967   4.768  0.00  0.00    -0.025 A 
HETATM    4  C   UNK N   1      25.975  16.809   5.454  0.00  0.00     0.013 A 
HETATM    5  C   UNK N   1      27.302  16.600   5.817  0.00  0.00     0.018 A 
HETATM    6  C   UNK N   1      28.287  17.547   5.499  0.00  0.00     0.033 A 
HETATM    7  C   UNK N   1      27.935  18.714   4.810  0.00  0.00     0.029 A 
HETATM    8  C   UNK N   1      26.606  18.928   4.443  0.00  0.00    -0.025 A 
HETATM    9  C   UNK N   1      26.246  20.087   3.756  0.00  0.00     0.013 A 
HETATM   10  C   UNK N   1      24.912  20.293   3.392  0.00  0.00     0.016 A 
ENDROOT
BRANCH   6  11
HETATM   11  C   UNK N   1      29.680  17.301   5.896  0.00  0.00     0.256 C 
HETATM   12  O   UNK N   1      30.559  17.232   5.051  0.00  0.00    -0.267 OA
HETATM   13  N   UNK N   1      29.958  17.153   7.218  0.00  0.00    -0.323 N 
HETATM   14  H   UNK N   1      29.197  17.221   7.838  0.00  0.00     0.169 HD
BRANCH  13  15
HETATM   15  C   UNK N   1      31.227  16.911   7.798  0.00  0.00     0.035 A 
HETATM   16  C   UNK N   1      32.040  18.010   8.078  0.00  0.00     0.030 A 
HETATM   17  C   UNK N   1      33.297  17.829   8.648  0.00  0.00     0.011 A 
HETATM   18  C   UNK N   1      33.757  16.539   8.946  0.00  0.00    -0.041 A 
HETATM   19  C   UNK N   1      32.946  15.434   8.667  0.00  0.00     0.011 A 
HETATM   20  C   UNK N   1      31.684  15.618   8.094  0.00  0.00     0.030 A 
BRANCH  18  21
HETATM   21  C   UNK N   1      35.104  16.314   9.559  0.00  0.00     0.150 C 
BRANCH  21  22
HETATM   22  N   UNK N   1      35.230  16.976  10.849  0.00  0.00    -0.426 N 
HETATM   23  H   UNK N   1      34.573  16.761  11.598  0.00  0.00     0.150 HD
HETATM   24  H   UNK N   1      35.976  17.654  11.003  0.00  0.00     0.150 HD
ENDBRANCH  21  22
ENDBRANCH  18  21
ENDBRANCH  13  15
ENDBRANCH   6  11
BRANCH   1  25
HETATM   25  C   UNK N   1      22.521  19.551   3.334  0.00  0.00     0.102 C 
HETATM   26  N   UNK N   1      22.196  20.519   2.558  0.00  0.00    -0.385 N 
HETATM   27  H   UNK N   1      21.253  20.654   2.307  0.00  0.00     0.157 HD
ATOM     28  HN  UNK N   1      22.913  21.149   2.200  1.00  0.00     0.157 HD
BRANCH  25  29
HETATM   29  N   UNK N   1      21.516  18.686   3.823  0.00  0.00    -0.385 N 
HETATM   30  H   UNK N   1      21.433  18.526   4.791  0.00  0.00     0.157 HD
HETATM   31  H   UNK N   1      20.899  18.243   3.196  0.00  0.00     0.157 HD
ENDBRANCH  25  29
ENDBRANCH   1  25
TORSDOF 6
ENDMDL
MODEL 9
REMARK VINA RESULT:      -6.4      4.363      7.844
REMARK  6 active torsions:
REMARK  status: ('A' for Active; 'I' for Inactive)
REMARK    1  A    between atoms: C_3  and  N_4 
REMARK    2  A    between atoms: C_3  and  C_5 
REMARK    3  A    between atoms: C_10  and  C_15 
REMARK       I    between atoms: C_15  and  N_17 
REMARK    4  A    between atoms: N_17  and  C_18 
REMARK    5  A    between atoms: C_21  and  C_24 
REMARK    6  A    between atoms: C_24  and  N_25 
ROOT
HETATM    1  C   UNK N   1      28.563  18.262   6.096  0.00  0.00     0.008 A 
HETATM    2  C   UNK N   1      29.696  17.678   5.520  0.00  0.00     0.027 A 
HETATM    3  C   UNK N   1      30.703  17.155   6.325  0.00  0.00    -0.025 A 
HETATM    4  C   UNK N   1      31.827  16.576   5.743  0.00  0.00     0.013 A 
HETATM    5  C   UNK N   1      32.832  16.054   6.552  0.00  0.00     0.018 A 
HETATM    6  C   UNK N   1      32.723  16.106   7.950  0.00  0.00     0.033 A 
HETATM    7  C   UNK N   1      31.593  16.688   8.539  0.00  0.00     0.029 A 
HETATM    8  C   UNK N   1      30.584  17.212   7.733  0.00  0.00    -0.025 A 
HETATM    9  C   UNK N   1      29.455  17.794   8.311  0.00  0.00     0.013 A 
HETATM   10  C   UNK N   1      28.448  18.317   7.495  0.00  0.00     0.016 A 
ENDROOT
BRANCH   6  11
HETATM   11  C   UNK N   1      33.799  15.547   8.779  0.00  0.00     0.256 C 
HETATM   12  O   UNK N   1      34.918  15.393   8.315  0.00  0.00    -0.267 OA
HETATM   13  N   UNK N   1      33.514  15.210  10.064  0.00  0.00    -0.323 N 
HETATM   14  H   UNK N   1      32.589  15.364  10.365  0.00  0.00     0.169 HD
BRANCH  13  15
HETATM   15  C   UNK N   1      34.406  14.661  11.017  0.00  0.00     0.035 A 
HETATM   16  C   UNK N   1      34.464  13.272  11.136  0.00  0.00     0.030 A 
HETATM   17  C   UNK N   1      35.324  12.681  12.058  0.00  0.00     0.011 A 
HETATM   18  C   UNK N   1      36.140  13.476  12.873  0.00  0.00    -0.041 A 
HETATM   19  C   UNK N   1      36.085  14.869  12.757  0.00  0.00     0.011 A 
HETATM   20  C   UNK N   1      35.221  15.461  11.832  0.00  0.00     0.030 A 
BRANCH  18  21
HETATM   21  C   UNK N   1      37.074  12.868  13.872  0.00  0.00     0.150 C 
BRANCH  21  22
HETATM   22  N   UNK N   1      37.246  13.717  15.042  0.00  0.00    -0.426 N 
HETATM   23  H   UNK N   1      36.559  14.439  15.252  0.00  0.00     0.150 HD
HETATM   24  H   UNK N   1      38.054  13.588  15.652  0.00  0.00     0.150 HD
ENDBRANCH  21  22
ENDBRANCH  18  21
ENDBRANCH  13  15
ENDBRANCH   6  11
BRANCH   1  25
HETATM   25  C   UNK N   1      27.504  18.812   5.229  0.00  0.00     0.102 C 
HETATM   26  N   UNK N   1      26.313  18.967   5.677  0.00  0.00    -0.385 N 
HETATM   27  H   UNK N   1      25.611  19.334   5.093  0.00  0.00     0.157 HD
ATOM     28  HN  UNK N   1      26.093  18.709   6.639  1.00  0.00     0.157 HD
BRANCH  25  29
HETATM   29  N   UNK N   1      27.796  19.173   3.893  0.00  0.00    -0.385 N 
HETATM   30  H   UNK N   1      27.210  19.804   3.416  0.00  0.00     0.157 HD
HETATM   31  H   UNK N   1      28.584  18.794   3.441  0.00  0.00     0.157 HD
ENDBRANCH  25  29
ENDBRANCH   1  25
TORSDOF 6
ENDMDL
