MODEL 1
REMARK VINA RESULT:      -5.5      0.000      0.000
REMARK  5 active torsions:
REMARK  status: ('A' for Active; 'I' for Inactive)
REMARK    1  A    between atoms: C_4  and  C_7 
REMARK    2  A    between atoms: C_7  and  C_8 
REMARK    3  A    between atoms: C_7  and  S_10 
REMARK    4  A    between atoms: C_8  and  O_9 
REMARK    5  A    between atoms: S_10  and  O_11 
ROOT
HETATM    1  C   UNK N   1      35.429  13.404  15.470  0.00  0.00     0.252 C 
ENDROOT
BRANCH   1   2
HETATM    2  C   UNK N   1      35.439  12.722  16.837  0.00  0.00    -0.028 A 
HETATM    3  C   UNK N   1      35.106  13.476  17.976  0.00  0.00     0.009 A 
HETATM    4  C   UNK N   1      35.114  12.895  19.246  0.00  0.00     0.001 A 
HETATM    5  C   UNK N   1      35.474  11.555  19.400  0.00  0.00     0.000 A 
HETATM    6  C   UNK N   1      35.821  10.795  18.281  0.00  0.00     0.001 A 
HETATM    7  C   UNK N   1      35.801  11.374  17.009  0.00  0.00     0.009 A 
ENDBRANCH   1   2
BRANCH   1   8
HETATM    8  C   UNK N   1      36.717  14.070  15.008  0.00  0.00     0.165 C 
HETATM    9  O   UNK N   1      37.479  14.614  15.792  0.00  0.00    -0.649 OA
BRANCH   8  10
HETATM   10  O   UNK N   1      37.031  14.057  13.698  0.00  0.00    -0.775 OA
HETATM   11  H   UNK N   1      36.397  13.843  13.042  0.00  0.00     0.167 HD
ENDBRANCH   8  10
ENDBRANCH   1   8
BRANCH   1  12
HETATM   12  S   UNK N   1      34.905  12.220  14.177  0.00  0.00     0.113 S 
HETATM   13  O   UNK N   1      36.071  11.329  13.723  0.00  0.00    -0.601 OA
HETATM   14  O   UNK N   1      34.504  12.896  12.856  0.00  0.00    -0.601 OA
BRANCH  12  15
HETATM   15  O   UNK N   1      33.641  11.110  14.521  0.00  0.00    -0.295 OA
HETATM   16  H   UNK N   1      33.447  10.390  13.902  0.00  0.00     0.232 HD
ENDBRANCH  12  15
ENDBRANCH   1  12
TORSDOF 5
ENDMDL
MODEL 2
REMARK VINA RESULT:      -5.3      8.865     10.079
REMARK  5 active torsions:
REMARK  status: ('A' for Active; 'I' for Inactive)
REMARK    1  A    between atoms: C_4  and  C_7 
REMARK    2  A    between atoms: C_7  and  C_8 
REMARK    3  A    between atoms: C_7  and  S_10 
REMARK    4  A    between atoms: C_8  and  O_9 
REMARK    5  A    between atoms: S_10  and  O_11 
ROOT
HETATM    1  C   UNK N   1      33.024  16.605   7.886  0.00  0.00     0.252 C 
ENDROOT
BRANCH   1   2
HETATM    2  C   UNK N   1      31.601  17.159   7.826  0.00  0.00    -0.028 A 
HETATM    3  C   UNK N   1      30.794  16.839   6.721  0.00  0.00     0.009 A 
HETATM    4  C   UNK N   1      29.491  17.334   6.619  0.00  0.00     0.001 A 
HETATM    5  C   UNK N   1      28.983  18.173   7.612  0.00  0.00     0.000 A 
HETATM    6  C   UNK N   1      29.776  18.512   8.710  0.00  0.00     0.001 A 
HETATM    7  C   UNK N   1      31.074  18.006   8.817  0.00  0.00     0.009 A 
ENDBRANCH   1   2
BRANCH   1   8
HETATM    8  C   UNK N   1      34.118  17.532   8.395  0.00  0.00     0.165 C 
HETATM    9  O   UNK N   1      34.666  18.344   7.667  0.00  0.00    -0.649 OA
BRANCH   8  10
HETATM   10  O   UNK N   1      34.490  17.461   9.688  0.00  0.00    -0.775 OA
HETATM   11  H   UNK N   1      34.669  18.230  10.192  0.00  0.00     0.167 HD
ENDBRANCH   8  10
ENDBRANCH   1   8
BRANCH   1  12
HETATM   12  S   UNK N   1      33.063  15.073   8.887  0.00  0.00     0.113 S 
HETATM   13  O   UNK N   1      34.478  14.479   8.951  0.00  0.00    -0.601 OA
HETATM   14  O   UNK N   1      32.272  13.914   8.262  0.00  0.00    -0.601 OA
BRANCH  12  15
HETATM   15  O   UNK N   1      32.561  15.133  10.529  0.00  0.00    -0.295 OA
HETATM   16  H   UNK N   1      33.146  14.799  11.226  0.00  0.00     0.232 HD
ENDBRANCH  12  15
ENDBRANCH   1  12
TORSDOF 5
ENDMDL
MODEL 3
REMARK VINA RESULT:      -5.2      9.447     10.397
REMARK  5 active torsions:
REMARK  status: ('A' for Active; 'I' for Inactive)
REMARK    1  A    between atoms: C_4  and  C_7 
REMARK    2  A    between atoms: C_7  and  C_8 
REMARK    3  A    between atoms: C_7  and  S_10 
REMARK    4  A    between atoms: C_8  and  O_9 
REMARK    5  A    between atoms: S_10  and  O_11 
ROOT
HETATM    1  C   UNK N   1      32.759  16.706   7.347  0.00  0.00     0.252 C 
ENDROOT
BRANCH   1   2
HETATM    2  C   UNK N   1      31.374  17.253   7.691  0.00  0.00    -0.028 A 
HETATM    3  C   UNK N   1      31.248  18.159   8.758  0.00  0.00     0.009 A 
HETATM    4  C   UNK N   1      30.000  18.675   9.115  0.00  0.00     0.001 A 
HETATM    5  C   UNK N   1      28.856  18.278   8.422  0.00  0.00     0.000 A 
HETATM    6  C   UNK N   1      28.961  17.368   7.368  0.00  0.00     0.001 A 
HETATM    7  C   UNK N   1      30.212  16.863   7.004  0.00  0.00     0.009 A 
ENDBRANCH   1   2
BRANCH   1   8
HETATM    8  C   UNK N   1      33.739  17.651   6.667  0.00  0.00     0.165 C 
HETATM    9  O   UNK N   1      34.613  18.232   7.291  0.00  0.00    -0.649 OA
BRANCH   8  10
HETATM   10  O   UNK N   1      33.644  17.851   5.338  0.00  0.00    -0.775 OA
HETATM   11  H   UNK N   1      33.266  17.210   4.769  0.00  0.00     0.167 HD
ENDBRANCH   8  10
ENDBRANCH   1   8
BRANCH   1  12
HETATM   12  S   UNK N   1      33.563  16.033   8.847  0.00  0.00     0.113 S 
HETATM   13  O   UNK N   1      34.710  15.075   8.489  0.00  0.00    -0.601 OA
HETATM   14  O   UNK N   1      32.646  15.119   9.674  0.00  0.00    -0.601 OA
BRANCH  12  15
HETATM   15  O   UNK N   1      34.264  17.118   9.979  0.00  0.00    -0.295 OA
HETATM   16  H   UNK N   1      35.187  17.001  10.254  0.00  0.00     0.232 HD
ENDBRANCH  12  15
ENDBRANCH   1  12
TORSDOF 5
ENDMDL
MODEL 4
REMARK VINA RESULT:      -5.2      1.354      3.104
REMARK  5 active torsions:
REMARK  status: ('A' for Active; 'I' for Inactive)
REMARK    1  A    between atoms: C_4  and  C_7 
REMARK    2  A    between atoms: C_7  and  C_8 
REMARK    3  A    between atoms: C_7  and  S_10 
REMARK    4  A    between atoms: C_8  and  O_9 
REMARK    5  A    between atoms: S_10  and  O_11 
ROOT
HETATM    1  C   UNK N   1      35.312  11.030  15.392  0.00  0.00     0.252 C 
ENDROOT
BRANCH   1   2
HETATM    2  C   UNK N   1      35.332  11.618  16.803  0.00  0.00    -0.028 A 
HETATM    3  C   UNK N   1      35.529  10.755  17.895  0.00  0.00     0.009 A 
HETATM    4  C   UNK N   1      35.543  11.248  19.203  0.00  0.00     0.001 A 
HETATM    5  C   UNK N   1      35.341  12.609  19.439  0.00  0.00     0.000 A 
HETATM    6  C   UNK N   1      35.130  13.477  18.366  0.00  0.00     0.001 A 
HETATM    7  C   UNK N   1      35.129  12.985  17.058  0.00  0.00     0.009 A 
ENDBRANCH   1   2
BRANCH   1   8
HETATM    8  C   UNK N   1      34.151  11.417  14.487  0.00  0.00     0.165 C 
HETATM    9  O   UNK N   1      33.086  10.821  14.515  0.00  0.00    -0.649 OA
BRANCH   8  10
HETATM   10  O   UNK N   1      34.298  12.449  13.634  0.00  0.00    -0.775 OA
HETATM   11  H   UNK N   1      33.598  12.734  13.080  0.00  0.00     0.167 HD
ENDBRANCH   8  10
ENDBRANCH   1   8
BRANCH   1  12
HETATM   12  S   UNK N   1      36.871  11.428  14.520  0.00  0.00     0.113 S 
HETATM   13  O   UNK N   1      36.804  11.030  13.038  0.00  0.00    -0.601 OA
HETATM   14  O   UNK N   1      38.070  10.599  15.005  0.00  0.00    -0.601 OA
BRANCH  12  15
HETATM   15  O   UNK N   1      37.423  13.053  14.491  0.00  0.00    -0.295 OA
HETATM   16  H   UNK N   1      38.300  13.261  14.132  0.00  0.00     0.232 HD
ENDBRANCH  12  15
ENDBRANCH   1  12
TORSDOF 5
ENDMDL
MODEL 5
REMARK VINA RESULT:      -5.1     10.110     11.221
REMARK  5 active torsions:
REMARK  status: ('A' for Active; 'I' for Inactive)
REMARK    1  A    between atoms: C_4  and  C_7 
REMARK    2  A    between atoms: C_7  and  C_8 
REMARK    3  A    between atoms: C_7  and  S_10 
REMARK    4  A    between atoms: C_8  and  O_9 
REMARK    5  A    between atoms: S_10  and  O_11 
ROOT
HETATM    1  C   UNK N   1      32.523  16.127   7.223  0.00  0.00     0.252 C 
ENDROOT
BRANCH   1   2
HETATM    2  C   UNK N   1      31.327  17.018   7.557  0.00  0.00    -0.028 A 
HETATM    3  C   UNK N   1      31.385  17.830   8.703  0.00  0.00     0.009 A 
HETATM    4  C   UNK N   1      30.309  18.651   9.052  0.00  0.00     0.001 A 
HETATM    5  C   UNK N   1      29.153  18.658   8.271  0.00  0.00     0.000 A 
HETATM    6  C   UNK N   1      29.073  17.846   7.138  0.00  0.00     0.001 A 
HETATM    7  C   UNK N   1      30.154  17.035   6.782  0.00  0.00     0.009 A 
ENDBRANCH   1   2
BRANCH   1   8
HETATM    8  C   UNK N   1      32.276  14.932   6.313  0.00  0.00     0.165 C 
HETATM    9  O   UNK N   1      31.831  13.878   6.739  0.00  0.00    -0.649 OA
BRANCH   8  10
HETATM   10  O   UNK N   1      32.550  15.040   4.999  0.00  0.00    -0.775 OA
HETATM   11  H   UNK N   1      32.694  15.872   4.592  0.00  0.00     0.167 HD
ENDBRANCH   8  10
ENDBRANCH   1   8
BRANCH   1  12
HETATM   12  S   UNK N   1      33.872  17.127   6.496  0.00  0.00     0.113 S 
HETATM   13  O   UNK N   1      33.403  17.877   5.239  0.00  0.00    -0.601 OA
HETATM   14  O   UNK N   1      35.026  16.282   5.936  0.00  0.00    -0.601 OA
BRANCH  12  15
HETATM   15  O   UNK N   1      34.621  18.342   7.451  0.00  0.00    -0.295 OA
HETATM   16  H   UNK N   1      34.216  18.618   8.289  0.00  0.00     0.232 HD
ENDBRANCH  12  15
ENDBRANCH   1  12
TORSDOF 5
ENDMDL
MODEL 6
REMARK VINA RESULT:      -5.0      8.903      9.994
REMARK  5 active torsions:
REMARK  status: ('A' for Active; 'I' for Inactive)
REMARK    1  A    between atoms: C_4  and  C_7 
REMARK    2  A    between atoms: C_7  and  C_8 
REMARK    3  A    between atoms: C_7  and  S_10 
REMARK    4  A    between atoms: C_8  and  O_9 
REMARK    5  A    between atoms: S_10  and  O_11 
ROOT
HETATM    1  C   UNK N   1      33.897  17.041   7.707  0.00  0.00     0.252 C 
ENDROOT
BRANCH   1   2
HETATM    2  C   UNK N   1      32.394  17.296   7.602  0.00  0.00    -0.028 A 
HETATM    3  C   UNK N   1      31.734  17.921   8.674  0.00  0.00     0.009 A 
HETATM    4  C   UNK N   1      30.359  18.163   8.626  0.00  0.00     0.001 A 
HETATM    5  C   UNK N   1      29.619  17.766   7.511  0.00  0.00     0.000 A 
HETATM    6  C   UNK N   1      30.256  17.131   6.443  0.00  0.00     0.001 A 
HETATM    7  C   UNK N   1      31.634  16.901   6.487  0.00  0.00     0.009 A 
ENDBRANCH   1   2
BRANCH   1   8
HETATM    8  C   UNK N   1      34.707  17.973   8.596  0.00  0.00     0.165 C 
HETATM    9  O   UNK N   1      34.950  19.124   8.272  0.00  0.00    -0.649 OA
BRANCH   8  10
HETATM   10  O   UNK N   1      35.165  17.519   9.779  0.00  0.00    -0.775 OA
HETATM   11  H   UNK N   1      36.046  17.672  10.057  0.00  0.00     0.167 HD
ENDBRANCH   8  10
ENDBRANCH   1   8
BRANCH   1  12
HETATM   12  S   UNK N   1      34.209  15.321   8.250  0.00  0.00     0.113 S 
HETATM   13  O   UNK N   1      33.597  15.048   9.633  0.00  0.00    -0.601 OA
HETATM   14  O   UNK N   1      35.693  15.022   8.508  0.00  0.00    -0.601 OA
BRANCH  12  15
HETATM   15  O   UNK N   1      33.645  14.022   7.280  0.00  0.00    -0.295 OA
HETATM   16  H   UNK N   1      32.823  13.562   7.516  0.00  0.00     0.232 HD
ENDBRANCH  12  15
ENDBRANCH   1  12
TORSDOF 5
ENDMDL
MODEL 7
REMARK VINA RESULT:      -5.0     17.144     18.596
REMARK  5 active torsions:
REMARK  status: ('A' for Active; 'I' for Inactive)
REMARK    1  A    between atoms: C_4  and  C_7 
REMARK    2  A    between atoms: C_7  and  C_8 
REMARK    3  A    between atoms: C_7  and  S_10 
REMARK    4  A    between atoms: C_8  and  O_9 
REMARK    5  A    between atoms: S_10  and  O_11 
ROOT
HETATM    1  C   UNK N   1      43.479  23.096   3.357  0.00  0.00     0.252 C 
ENDROOT
BRANCH   1   2
HETATM    2  C   UNK N   1      42.438  22.162   2.742  0.00  0.00    -0.028 A 
HETATM    3  C   UNK N   1      42.559  20.777   2.953  0.00  0.00     0.009 A 
HETATM    4  C   UNK N   1      41.636  19.886   2.400  0.00  0.00     0.001 A 
HETATM    5  C   UNK N   1      40.589  20.365   1.611  0.00  0.00     0.000 A 
HETATM    6  C   UNK N   1      40.462  21.736   1.380  0.00  0.00     0.001 A 
HETATM    7  C   UNK N   1      41.378  22.628   1.944  0.00  0.00     0.009 A 
ENDBRANCH   1   2
BRANCH   1   8
HETATM    8  C   UNK N   1      44.324  22.552   4.500  0.00  0.00     0.165 C 
HETATM    9  O   UNK N   1      43.905  22.505   5.646  0.00  0.00    -0.649 OA
BRANCH   8  10
HETATM   10  O   UNK N   1      45.568  22.103   4.242  0.00  0.00    -0.775 OA
HETATM   11  H   UNK N   1      45.751  21.559   3.501  0.00  0.00     0.167 HD
ENDBRANCH   8  10
ENDBRANCH   1   8
BRANCH   1  12
HETATM   12  S   UNK N   1      44.610  23.722   2.061  0.00  0.00     0.113 S 
HETATM   13  O   UNK N   1      45.763  24.538   2.666  0.00  0.00    -0.601 OA
HETATM   14  O   UNK N   1      43.959  24.756   1.130  0.00  0.00    -0.601 OA
BRANCH  12  15
HETATM   15  O   UNK N   1      45.392  22.602   1.021  0.00  0.00    -0.295 OA
HETATM   16  H   UNK N   1      45.479  22.798   0.075  0.00  0.00     0.232 HD
ENDBRANCH  12  15
ENDBRANCH   1  12
TORSDOF 5
ENDMDL
MODEL 8
REMARK VINA RESULT:      -4.9      9.558     11.545
REMARK  5 active torsions:
REMARK  status: ('A' for Active; 'I' for Inactive)
REMARK    1  A    between atoms: C_4  and  C_7 
REMARK    2  A    between atoms: C_7  and  C_8 
REMARK    3  A    between atoms: C_7  and  S_10 
REMARK    4  A    between atoms: C_8  and  O_9 
REMARK    5  A    between atoms: S_10  and  O_11 
ROOT
HETATM    1  C   UNK N   1      32.484  17.723   7.398  0.00  0.00     0.252 C 
ENDROOT
BRANCH   1   2
HETATM    2  C   UNK N   1      32.421  17.027   6.040  0.00  0.00    -0.028 A 
HETATM    3  C   UNK N   1      32.932  17.692   4.912  0.00  0.00     0.009 A 
HETATM    4  C   UNK N   1      32.884  17.097   3.648  0.00  0.00     0.001 A 
HETATM    5  C   UNK N   1      32.307  15.836   3.491  0.00  0.00     0.000 A 
HETATM    6  C   UNK N   1      31.781  15.168   4.598  0.00  0.00     0.001 A 
HETATM    7  C   UNK N   1      31.841  15.758   5.864  0.00  0.00     0.009 A 
ENDBRANCH   1   2
BRANCH   1   8
HETATM    8  C   UNK N   1      31.481  17.289   8.457  0.00  0.00     0.165 C 
HETATM    9  O   UNK N   1      30.383  17.812   8.559  0.00  0.00    -0.649 OA
BRANCH   8  10
HETATM   10  O   UNK N   1      31.810  16.295   9.305  0.00  0.00    -0.775 OA
HETATM   11  H   UNK N   1      31.592  16.332  10.216  0.00  0.00     0.167 HD
ENDBRANCH   8  10
ENDBRANCH   1   8
BRANCH   1  12
HETATM   12  S   UNK N   1      34.164  17.571   8.109  0.00  0.00     0.113 S 
HETATM   13  O   UNK N   1      34.995  18.841   7.865  0.00  0.00    -0.601 OA
HETATM   14  O   UNK N   1      35.026  16.505   7.417  0.00  0.00    -0.601 OA
BRANCH  12  15
HETATM   15  O   UNK N   1      34.338  17.276   9.791  0.00  0.00    -0.295 OA
HETATM   16  H   UNK N   1      34.904  17.852  10.328  0.00  0.00     0.232 HD
ENDBRANCH  12  15
ENDBRANCH   1  12
TORSDOF 5
ENDMDL
MODEL 9
REMARK VINA RESULT:      -4.9      3.271      4.387
REMARK  5 active torsions:
REMARK  status: ('A' for Active; 'I' for Inactive)
REMARK    1  A    between atoms: C_4  and  C_7 
REMARK    2  A    between atoms: C_7  and  C_8 
REMARK    3  A    between atoms: C_7  and  S_10 
REMARK    4  A    between atoms: C_8  and  O_9 
REMARK    5  A    between atoms: S_10  and  O_11 
ROOT
HETATM    1  C   UNK N   1      35.723  14.139  11.549  0.00  0.00     0.252 C 
ENDROOT
BRANCH   1   2
HETATM    2  C   UNK N   1      35.692  13.724  13.019  0.00  0.00    -0.028 A 
HETATM    3  C   UNK N   1      36.533  14.387  13.930  0.00  0.00     0.009 A 
HETATM    4  C   UNK N   1      36.545  14.032  15.282  0.00  0.00     0.001 A 
HETATM    5  C   UNK N   1      35.729  12.995  15.739  0.00  0.00     0.000 A 
HETATM    6  C   UNK N   1      34.898  12.317  14.845  0.00  0.00     0.001 A 
HETATM    7  C   UNK N   1      34.878  12.682  13.496  0.00  0.00     0.009 A 
ENDBRANCH   1   2
BRANCH   1   8
HETATM    8  C   UNK N   1      35.971  15.608  11.239  0.00  0.00     0.165 C 
HETATM    9  O   UNK N   1      35.102  16.453  11.382  0.00  0.00    -0.649 OA
BRANCH   8  10
HETATM   10  O   UNK N   1      37.186  15.991  10.800  0.00  0.00    -0.775 OA
HETATM   11  H   UNK N   1      37.504  16.862  10.931  0.00  0.00     0.167 HD
ENDBRANCH   8  10
ENDBRANCH   1   8
BRANCH   1  12
HETATM   12  S   UNK N   1      36.964  13.148  10.640  0.00  0.00     0.113 S 
HETATM   13  O   UNK N   1      36.963  13.482   9.140  0.00  0.00    -0.601 OA
HETATM   14  O   UNK N   1      36.648  11.645  10.618  0.00  0.00    -0.601 OA
BRANCH  12  15
HETATM   15  O   UNK N   1      38.618  13.259  11.090  0.00  0.00    -0.295 OA
HETATM   16  H   UNK N   1      38.970  14.093  11.439  0.00  0.00     0.232 HD
ENDBRANCH  12  15
ENDBRANCH   1  12
TORSDOF 5
ENDMDL
