MODEL 1
REMARK VINA RESULT:      -5.2      0.000      0.000
REMARK  5 active torsions:
REMARK  status: ('A' for Active; 'I' for Inactive)
REMARK    1  A    between atoms: C_5  and  O_8 
REMARK    2  A    between atoms: C_6  and  C_7 
REMARK    3  A    between atoms: O_8  and  P_9 
REMARK    4  A    between atoms: P_9  and  O_10 
REMARK    5  A    between atoms: P_9  and  O_11 
ROOT
HETATM    1  C   UNK N   1      35.280  12.611  19.305  0.00  0.00     0.017 A 
HETATM    2  C   UNK N   1      35.247  11.216  19.251  0.00  0.00     0.001 A 
HETATM    3  C   UNK N   1      35.245  10.567  18.018  0.00  0.00     0.003 A 
HETATM    4  C   UNK N   1      35.277  11.311  16.839  0.00  0.00     0.038 A 
HETATM    5  C   UNK N   1      35.302  12.717  16.874  0.00  0.00     0.094 A 
HETATM    6  C   UNK N   1      35.309  13.374  18.131  0.00  0.00     0.035 A 
ENDROOT
BRANCH   5   7
HETATM    7  O   UNK N   1      35.326  13.439  15.716  0.00  0.00    -0.254 OA
BRANCH   7   8
HETATM    8  P   UNK N   1      36.211  12.988  14.293  0.00  0.00     0.396 P 
HETATM    9  O   UNK N   1      34.975  13.609  13.585  0.00  0.00    -0.631 OA
BRANCH   8  10
HETATM   10  O   UNK N   1      36.944  14.114  13.197  0.00  0.00    -0.307 OA
HETATM   11  H   UNK N   1      37.783  14.593  13.284  0.00  0.00     0.222 HD
ENDBRANCH   8  10
BRANCH   8  12
HETATM   12  O   UNK N   1      37.021  14.287  15.111  0.00  0.00    -0.307 OA
HETATM   13  H   UNK N   1      37.643  14.865  14.642  0.00  0.00     0.222 HD
ENDBRANCH   8  12
ENDBRANCH   7   8
ENDBRANCH   5   7
BRANCH   6  14
HETATM   14  C   UNK N   1      35.357  14.841  18.274  0.00  0.00     0.272 C 
HETATM   15  O   UNK N   1      36.372  15.480  18.045  0.00  0.00    -0.301 OA
ENDBRANCH   6  14
TORSDOF 5
ENDMDL
MODEL 2
REMARK VINA RESULT:      -4.9     26.023     27.229
REMARK  5 active torsions:
REMARK  status: ('A' for Active; 'I' for Inactive)
REMARK    1  A    between atoms: C_5  and  O_8 
REMARK    2  A    between atoms: C_6  and  C_7 
REMARK    3  A    between atoms: O_8  and  P_9 
REMARK    4  A    between atoms: P_9  and  O_10 
REMARK    5  A    between atoms: P_9  and  O_11 
ROOT
HETATM    1  C   UNK N   1      26.338  26.542  -3.318  0.00  0.00     0.017 A 
HETATM    2  C   UNK N   1      25.808  27.784  -3.670  0.00  0.00     0.001 A 
HETATM    3  C   UNK N   1      25.150  27.941  -4.887  0.00  0.00     0.003 A 
HETATM    4  C   UNK N   1      25.022  26.856  -5.754  0.00  0.00     0.038 A 
HETATM    5  C   UNK N   1      25.557  25.599  -5.420  0.00  0.00     0.094 A 
HETATM    6  C   UNK N   1      26.221  25.442  -4.178  0.00  0.00     0.035 A 
ENDROOT
BRANCH   5   7
HETATM    7  O   UNK N   1      25.434  24.543  -6.277  0.00  0.00    -0.254 OA
BRANCH   7   8
HETATM    8  P   UNK N   1      25.956  24.553  -7.931  0.00  0.00     0.396 P 
HETATM    9  O   UNK N   1      27.314  24.165  -7.283  0.00  0.00    -0.631 OA
BRANCH   8  10
HETATM   10  O   UNK N   1      26.399  23.135  -8.828  0.00  0.00    -0.307 OA
HETATM   11  H   UNK N   1      25.884  22.328  -8.987  0.00  0.00     0.222 HD
ENDBRANCH   8  10
BRANCH   8  12
HETATM   12  O   UNK N   1      24.875  23.222  -7.656  0.00  0.00    -0.307 OA
HETATM   13  H   UNK N   1      24.121  23.059  -8.244  0.00  0.00     0.222 HD
ENDBRANCH   8  12
ENDBRANCH   7   8
ENDBRANCH   5   7
BRANCH   6  14
HETATM   14  C   UNK N   1      26.797  24.161  -3.726  0.00  0.00     0.272 C 
HETATM   15  O   UNK N   1      26.949  23.903  -2.543  0.00  0.00    -0.301 OA
ENDBRANCH   6  14
TORSDOF 5
ENDMDL
MODEL 3
REMARK VINA RESULT:      -4.8     10.163     11.435
REMARK  5 active torsions:
REMARK  status: ('A' for Active; 'I' for Inactive)
REMARK    1  A    between atoms: C_5  and  O_8 
REMARK    2  A    between atoms: C_6  and  C_7 
REMARK    3  A    between atoms: O_8  and  P_9 
REMARK    4  A    between atoms: P_9  and  O_10 
REMARK    5  A    between atoms: P_9  and  O_11 
ROOT
HETATM    1  C   UNK N   1      30.223  16.779   5.928  0.00  0.00     0.017 A 
HETATM    2  C   UNK N   1      30.827  16.611   4.681  0.00  0.00     0.001 A 
HETATM    3  C   UNK N   1      32.172  16.927   4.510  0.00  0.00     0.003 A 
HETATM    4  C   UNK N   1      32.915  17.413   5.586  0.00  0.00     0.038 A 
HETATM    5  C   UNK N   1      32.322  17.598   6.847  0.00  0.00     0.094 A 
HETATM    6  C   UNK N   1      30.953  17.270   7.018  0.00  0.00     0.035 A 
ENDROOT
BRANCH   5   7
HETATM    7  O   UNK N   1      33.053  18.080   7.894  0.00  0.00    -0.254 OA
BRANCH   7   8
HETATM    8  P   UNK N   1      34.625  17.501   8.346  0.00  0.00     0.396 P 
HETATM    9  O   UNK N   1      34.936  19.022   8.405  0.00  0.00    -0.631 OA
BRANCH   8  10
HETATM   10  O   UNK N   1      35.316  17.672   9.927  0.00  0.00    -0.307 OA
HETATM   11  H   UNK N   1      34.921  18.054  10.727  0.00  0.00     0.222 HD
ENDBRANCH   8  10
BRANCH   8  12
HETATM   12  O   UNK N   1      33.484  17.176   9.614  0.00  0.00    -0.307 OA
HETATM   13  H   UNK N   1      33.778  17.006  10.522  0.00  0.00     0.222 HD
ENDBRANCH   8  12
ENDBRANCH   7   8
ENDBRANCH   5   7
BRANCH   6  14
HETATM   14  C   UNK N   1      30.245  17.406   8.305  0.00  0.00     0.272 C 
HETATM   15  O   UNK N   1      30.516  16.709   9.269  0.00  0.00    -0.301 OA
ENDBRANCH   6  14
TORSDOF 5
ENDMDL
MODEL 4
REMARK VINA RESULT:      -4.7     27.254     28.261
REMARK  5 active torsions:
REMARK  status: ('A' for Active; 'I' for Inactive)
REMARK    1  A    between atoms: C_5  and  O_8 
REMARK    2  A    between atoms: C_6  and  C_7 
REMARK    3  A    between atoms: O_8  and  P_9 
REMARK    4  A    between atoms: P_9  and  O_10 
REMARK    5  A    between atoms: P_9  and  O_11 
ROOT
HETATM    1  C   UNK N   1      27.216  29.227  -5.262  0.00  0.00     0.017 A 
HETATM    2  C   UNK N   1      28.154  29.442  -6.273  0.00  0.00     0.001 A 
HETATM    3  C   UNK N   1      28.252  28.545  -7.334  0.00  0.00     0.003 A 
HETATM    4  C   UNK N   1      27.414  27.432  -7.385  0.00  0.00     0.038 A 
HETATM    5  C   UNK N   1      26.469  27.194  -6.370  0.00  0.00     0.094 A 
HETATM    6  C   UNK N   1      26.369  28.112  -5.295  0.00  0.00     0.035 A 
ENDROOT
BRANCH   5   7
HETATM    7  O   UNK N   1      25.656  26.099  -6.422  0.00  0.00    -0.254 OA
BRANCH   7   8
HETATM    8  P   UNK N   1      26.184  24.468  -6.149  0.00  0.00     0.396 P 
HETATM    9  O   UNK N   1      25.096  24.526  -5.042  0.00  0.00    -0.631 OA
BRANCH   8  10
HETATM   10  O   UNK N   1      25.233  23.059  -6.495  0.00  0.00    -0.307 OA
HETATM   11  H   UNK N   1      24.445  22.977  -7.054  0.00  0.00     0.222 HD
ENDBRANCH   8  10
BRANCH   8  12
HETATM   12  O   UNK N   1      25.352  24.578  -7.670  0.00  0.00    -0.307 OA
HETATM   13  H   UNK N   1      24.696  23.914  -7.931  0.00  0.00     0.222 HD
ENDBRANCH   8  12
ENDBRANCH   7   8
ENDBRANCH   5   7
BRANCH   6  14
HETATM   14  C   UNK N   1      25.397  27.964  -4.195  0.00  0.00     0.272 C 
HETATM   15  O   UNK N   1      25.740  27.646  -3.068  0.00  0.00    -0.301 OA
ENDBRANCH   6  14
TORSDOF 5
ENDMDL
MODEL 5
REMARK VINA RESULT:      -4.7      1.973      2.614
REMARK  5 active torsions:
REMARK  status: ('A' for Active; 'I' for Inactive)
REMARK    1  A    between atoms: C_5  and  O_8 
REMARK    2  A    between atoms: C_6  and  C_7 
REMARK    3  A    between atoms: O_8  and  P_9 
REMARK    4  A    between atoms: P_9  and  O_10 
REMARK    5  A    between atoms: P_9  and  O_11 
ROOT
HETATM    1  C   UNK N   1      35.508  11.738  16.666  0.00  0.00     0.017 A 
HETATM    2  C   UNK N   1      34.810  10.572  16.347  0.00  0.00     0.001 A 
HETATM    3  C   UNK N   1      34.200  10.444  15.102  0.00  0.00     0.003 A 
HETATM    4  C   UNK N   1      34.285  11.481  14.174  0.00  0.00     0.038 A 
HETATM    5  C   UNK N   1      34.976  12.668  14.480  0.00  0.00     0.094 A 
HETATM    6  C   UNK N   1      35.601  12.792  15.747  0.00  0.00     0.035 A 
ENDROOT
BRANCH   5   7
HETATM    7  O   UNK N   1      35.050  13.682  13.570  0.00  0.00    -0.254 OA
BRANCH   7   8
HETATM    8  P   UNK N   1      35.439  13.471  11.892  0.00  0.00     0.396 P 
HETATM    9  O   UNK N   1      34.378  14.593  11.724  0.00  0.00    -0.631 OA
BRANCH   8  10
HETATM   10  O   UNK N   1      36.288  14.636  10.928  0.00  0.00    -0.307 OA
HETATM   11  H   UNK N   1      36.110  14.921  10.018  0.00  0.00     0.222 HD
ENDBRANCH   8  10
BRANCH   8  12
HETATM   12  O   UNK N   1      36.784  14.179  12.730  0.00  0.00    -0.307 OA
HETATM   13  H   UNK N   1      36.735  14.383  13.676  0.00  0.00     0.222 HD
ENDBRANCH   8  12
ENDBRANCH   7   8
ENDBRANCH   5   7
BRANCH   6  14
HETATM   14  C   UNK N   1      36.367  13.985  16.155  0.00  0.00     0.272 C 
HETATM   15  O   UNK N   1      37.426  14.284  15.627  0.00  0.00    -0.301 OA
ENDBRANCH   6  14
TORSDOF 5
ENDMDL
MODEL 6
REMARK VINA RESULT:      -4.7     16.996     18.399
REMARK  5 active torsions:
REMARK  status: ('A' for Active; 'I' for Inactive)
REMARK    1  A    between atoms: C_5  and  O_8 
REMARK    2  A    between atoms: C_6  and  C_7 
REMARK    3  A    between atoms: O_8  and  P_9 
REMARK    4  A    between atoms: P_9  and  O_10 
REMARK    5  A    between atoms: P_9  and  O_11 
ROOT
HETATM    1  C   UNK N   1      39.909  20.931   1.234  0.00  0.00     0.017 A 
HETATM    2  C   UNK N   1      39.798  21.834   0.176  0.00  0.00     0.001 A 
HETATM    3  C   UNK N   1      40.643  22.940   0.112  0.00  0.00     0.003 A 
HETATM    4  C   UNK N   1      41.599  23.144   1.106  0.00  0.00     0.038 A 
HETATM    5  C   UNK N   1      41.720  22.250   2.185  0.00  0.00     0.094 A 
HETATM    6  C   UNK N   1      40.862  21.123   2.244  0.00  0.00     0.035 A 
ENDROOT
BRANCH   5   7
HETATM    7  O   UNK N   1      42.653  22.460   3.159  0.00  0.00    -0.254 OA
BRANCH   7   8
HETATM    8  P   UNK N   1      44.358  22.603   2.872  0.00  0.00     0.396 P 
HETATM    9  O   UNK N   1      44.151  23.961   3.597  0.00  0.00    -0.631 OA
BRANCH   8  10
HETATM   10  O   UNK N   1      45.570  22.546   4.112  0.00  0.00    -0.307 OA
HETATM   11  H   UNK N   1      46.519  22.736   4.047  0.00  0.00     0.222 HD
ENDBRANCH   8  10
BRANCH   8  12
HETATM   12  O   UNK N   1      44.055  21.361   4.046  0.00  0.00    -0.307 OA
HETATM   13  H   UNK N   1      43.155  21.048   4.223  0.00  0.00     0.222 HD
ENDBRANCH   8  12
ENDBRANCH   7   8
ENDBRANCH   5   7
BRANCH   6  14
HETATM   14  C   UNK N   1      40.924  20.116   3.320  0.00  0.00     0.272 C 
HETATM   15  O   UNK N   1      41.829  19.300   3.389  0.00  0.00    -0.301 OA
ENDBRANCH   6  14
TORSDOF 5
ENDMDL
MODEL 7
REMARK VINA RESULT:      -4.6     14.977     16.020
REMARK  5 active torsions:
REMARK  status: ('A' for Active; 'I' for Inactive)
REMARK    1  A    between atoms: C_5  and  O_8 
REMARK    2  A    between atoms: C_6  and  C_7 
REMARK    3  A    between atoms: O_8  and  P_9 
REMARK    4  A    between atoms: P_9  and  O_10 
REMARK    5  A    between atoms: P_9  and  O_11 
ROOT
HETATM    1  C   UNK N   1      23.996  12.457  10.060  0.00  0.00     0.017 A 
HETATM    2  C   UNK N   1      23.719  11.934  11.324  0.00  0.00     0.001 A 
HETATM    3  C   UNK N   1      22.413  11.932  11.806  0.00  0.00     0.003 A 
HETATM    4  C   UNK N   1      21.382  12.454  11.026  0.00  0.00     0.038 A 
HETATM    5  C   UNK N   1      21.642  12.994   9.754  0.00  0.00     0.094 A 
HETATM    6  C   UNK N   1      22.973  12.989   9.264  0.00  0.00     0.035 A 
ENDROOT
BRANCH   5   7
HETATM    7  O   UNK N   1      20.629  13.510   8.999  0.00  0.00    -0.254 OA
BRANCH   7   8
HETATM    8  P   UNK N   1      20.286  15.204   8.839  0.00  0.00     0.396 P 
HETATM    9  O   UNK N   1      20.017  14.794   7.365  0.00  0.00    -0.631 OA
BRANCH   8  10
HETATM   10  O   UNK N   1      18.706  15.861   8.557  0.00  0.00    -0.307 OA
HETATM   11  H   UNK N   1      18.460  16.749   8.254  0.00  0.00     0.222 HD
ENDBRANCH   8  10
BRANCH   8  12
HETATM   12  O   UNK N   1      19.061  14.436   9.800  0.00  0.00    -0.307 OA
HETATM   13  H   UNK N   1      18.828  13.505   9.665  0.00  0.00     0.222 HD
ENDBRANCH   8  12
ENDBRANCH   7   8
ENDBRANCH   5   7
BRANCH   6  14
HETATM   14  C   UNK N   1      23.346  13.511   7.936  0.00  0.00     0.272 C 
HETATM   15  O   UNK N   1      24.497  13.807   7.658  0.00  0.00    -0.301 OA
ENDBRANCH   6  14
TORSDOF 5
ENDMDL
MODEL 8
REMARK VINA RESULT:      -4.6     23.060     24.271
REMARK  5 active torsions:
REMARK  status: ('A' for Active; 'I' for Inactive)
REMARK    1  A    between atoms: C_5  and  O_8 
REMARK    2  A    between atoms: C_6  and  C_7 
REMARK    3  A    between atoms: O_8  and  P_9 
REMARK    4  A    between atoms: P_9  and  O_10 
REMARK    5  A    between atoms: P_9  and  O_11 
ROOT
HETATM    1  C   UNK N   1      30.864  21.381  -4.430  0.00  0.00     0.017 A 
HETATM    2  C   UNK N   1      30.393  20.914  -5.658  0.00  0.00     0.001 A 
HETATM    3  C   UNK N   1      29.368  21.593  -6.313  0.00  0.00     0.003 A 
HETATM    4  C   UNK N   1      28.812  22.736  -5.741  0.00  0.00     0.038 A 
HETATM    5  C   UNK N   1      29.268  23.216  -4.499  0.00  0.00     0.094 A 
HETATM    6  C   UNK N   1      30.315  22.526  -3.838  0.00  0.00     0.035 A 
ENDROOT
BRANCH   5   7
HETATM    7  O   UNK N   1      28.715  24.332  -3.942  0.00  0.00    -0.254 OA
BRANCH   7   8
HETATM    8  P   UNK N   1      27.027  24.729  -4.003  0.00  0.00     0.396 P 
HETATM    9  O   UNK N   1      27.035  24.062  -2.601  0.00  0.00    -0.631 OA
BRANCH   8  10
HETATM   10  O   UNK N   1      26.267  25.937  -3.017  0.00  0.00    -0.307 OA
HETATM   11  H   UNK N   1      26.595  26.359  -2.208  0.00  0.00     0.222 HD
ENDBRANCH   8  10
BRANCH   8  12
HETATM   12  O   UNK N   1      27.975  26.178  -3.871  0.00  0.00    -0.307 OA
HETATM   13  H   UNK N   1      28.447  26.395  -3.052  0.00  0.00     0.222 HD
ENDBRANCH   8  12
ENDBRANCH   7   8
ENDBRANCH   5   7
BRANCH   6  14
HETATM   14  C   UNK N   1      30.878  22.960  -2.546  0.00  0.00     0.272 C 
HETATM   15  O   UNK N   1      30.232  22.911  -1.511  0.00  0.00    -0.301 OA
ENDBRANCH   6  14
TORSDOF 5
ENDMDL
MODEL 9
REMARK VINA RESULT:      -4.6     10.850     12.088
REMARK  5 active torsions:
REMARK  status: ('A' for Active; 'I' for Inactive)
REMARK    1  A    between atoms: C_5  and  O_8 
REMARK    2  A    between atoms: C_6  and  C_7 
REMARK    3  A    between atoms: O_8  and  P_9 
REMARK    4  A    between atoms: P_9  and  O_10 
REMARK    5  A    between atoms: P_9  and  O_11 
ROOT
HETATM    1  C   UNK N   1      32.758  16.931   5.719  0.00  0.00     0.017 A 
HETATM    2  C   UNK N   1      33.786  17.592   6.392  0.00  0.00     0.001 A 
HETATM    3  C   UNK N   1      33.580  18.065   7.686  0.00  0.00     0.003 A 
HETATM    4  C   UNK N   1      32.346  17.877   8.307  0.00  0.00     0.038 A 
HETATM    5  C   UNK N   1      31.295  17.221   7.641  0.00  0.00     0.094 A 
HETATM    6  C   UNK N   1      31.511  16.737   6.326  0.00  0.00     0.035 A 
ENDROOT
BRANCH   5   7
HETATM    7  O   UNK N   1      30.087  17.047   8.253  0.00  0.00    -0.254 OA
BRANCH   7   8
HETATM    8  P   UNK N   1      28.855  18.264   8.360  0.00  0.00     0.396 P 
HETATM    9  O   UNK N   1      28.005  17.163   7.668  0.00  0.00    -0.631 OA
BRANCH   8  10
HETATM   10  O   UNK N   1      27.468  18.165   9.397  0.00  0.00    -0.307 OA
HETATM   11  H   UNK N   1      26.567  17.872   9.185  0.00  0.00     0.222 HD
ENDBRANCH   8  10
BRANCH   8  12
HETATM   12  O   UNK N   1      29.244  17.669   9.944  0.00  0.00    -0.307 OA
HETATM   13  H   UNK N   1      28.618  17.756  10.680  0.00  0.00     0.222 HD
ENDBRANCH   8  12
ENDBRANCH   7   8
ENDBRANCH   5   7
BRANCH   6  14
HETATM   14  C   UNK N   1      30.482  16.017   5.552  0.00  0.00     0.272 C 
HETATM   15  O   UNK N   1      30.221  14.843   5.760  0.00  0.00    -0.301 OA
ENDBRANCH   6  14
TORSDOF 5
ENDMDL
