MODEL 1
REMARK VINA RESULT:      -7.2      0.000      0.000
REMARK  9 active torsions:
REMARK  status: ('A' for Active; 'I' for Inactive)
REMARK    1  A    between atoms: C_7  and  C_10 
REMARK       I    between atoms: C_10  and  N_12 
REMARK    2  A    between atoms: N_12  and  C_14 
REMARK    3  A    between atoms: C_14  and  C_15 
REMARK    4  A    between atoms: C_15  and  N_16 
REMARK    5  A    between atoms: C_15  and  O_17 
REMARK    6  A    between atoms: N_16  and  C_18 
REMARK    7  A    between atoms: N_16  and  C_19 
REMARK    8  A    between atoms: C_19  and  C_22 
REMARK    9  A    between atoms: C_22  and  O_25 
ROOT
HETATM    1  C   UNK N   1      34.805  18.266   8.757  0.00  0.00     0.268 C 
HETATM    2  N   UNK N   1      35.310  17.530   9.780  0.00  0.00    -0.351 N 
HETATM    3  O   UNK N   1      35.301  19.360   8.531  0.00  0.00    -0.266 OA
HETATM    4  H   UNK N   1      36.084  17.902  10.261  0.00  0.00     0.162 HD
ENDROOT
BRANCH   2   5
HETATM    5  C   UNK N   1      34.813  16.247  10.224  0.00  0.00     0.187 C 
BRANCH   5   6
HETATM    6  C   UNK N   1      35.811  15.543  11.164  0.00  0.00     0.374 C 
BRANCH   6   7
HETATM    7  N   UNK N   1      35.792  14.039  11.158  0.00  0.00     0.125 N 
BRANCH   7   8
HETATM    8  C   UNK N   1      36.055  13.353  12.443  0.00  0.00     0.226 C 
HETATM    9  C   UNK N   1      34.868  12.492  12.868  0.00  0.00     0.036 C 
HETATM   10  C   UNK N   1      34.944  12.389  14.379  0.00  0.00     0.002 C 
HETATM   11  C   UNK N   1      35.894  13.481  14.833  0.00  0.00     0.002 C 
HETATM   12  C   UNK N   1      36.162  14.322  13.605  0.00  0.00     0.036 C 
ENDBRANCH   7   8
BRANCH   7  13
HETATM   13  C   UNK N   1      36.628  13.445  10.108  0.00  0.00     0.302 C 
BRANCH  13  14
HETATM   14  C   UNK N   1      37.825  12.745  10.721  0.00  0.00     0.194 C 
BRANCH  14  15
HETATM   15  O   UNK N   1      38.929  13.595  10.669  0.00  0.00    -0.399 OA
HETATM   16  H   UNK N   1      39.864  13.344  10.614  0.00  0.00     0.209 HD
ENDBRANCH  14  15
ENDBRANCH  13  14
ENDBRANCH   7  13
ENDBRANCH   6   7
BRANCH   6  17
HETATM   17  O   UNK N   1      37.078  16.048  10.863  0.00  0.00    -0.366 OA
HETATM   18  H   UNK N   1      37.194  16.976  10.603  0.00  0.00     0.212 HD
ENDBRANCH   6  17
ENDBRANCH   5   6
ENDBRANCH   2   5
BRANCH   1  19
HETATM   19  C   UNK N   1      33.666  17.823   7.916  0.00  0.00     0.102 A 
HETATM   20  C   UNK N   1      33.790  17.476   6.569  0.00  0.00     0.049 A 
HETATM   21  C   UNK N   1      32.516  17.143   6.178  0.00  0.00    -0.005 A 
HETATM   22  C   UNK N   1      31.695  17.283   7.261  0.00  0.00     0.043 A 
HETATM   23  C   UNK N   1      32.039  16.737   4.936  0.00  0.00     0.037 A 
HETATM   24  N   UNK N   1      32.381  17.703   8.338  0.00  0.00    -0.351 N 
HETATM   25  C   UNK N   1      30.330  17.013   7.186  0.00  0.00     0.032 A 
HETATM   26  H   UNK N   1      32.027  17.885   9.238  0.00  0.00     0.166 HD
HETATM   27  C   UNK N   1      29.813  16.597   5.942  0.00  0.00     0.026 A 
HETATM   28  C   UNK N   1      30.665  16.464   4.820  0.00  0.00     0.035 A 
HETATM   29 Cl   UNK N   1      30.005  15.968   3.277  0.00  0.00    -0.084 Cl
ENDBRANCH   1  19
TORSDOF 9
ENDMDL
MODEL 2
REMARK VINA RESULT:      -7.1      4.170      6.773
REMARK  9 active torsions:
REMARK  status: ('A' for Active; 'I' for Inactive)
REMARK    1  A    between atoms: C_7  and  C_10 
REMARK       I    between atoms: C_10  and  N_12 
REMARK    2  A    between atoms: N_12  and  C_14 
REMARK    3  A    between atoms: C_14  and  C_15 
REMARK    4  A    between atoms: C_15  and  N_16 
REMARK    5  A    between atoms: C_15  and  O_17 
REMARK    6  A    between atoms: N_16  and  C_18 
REMARK    7  A    between atoms: N_16  and  C_19 
REMARK    8  A    between atoms: C_19  and  C_22 
REMARK    9  A    between atoms: C_22  and  O_25 
ROOT
HETATM    1  C   UNK N   1      28.789  17.375   9.378  0.00  0.00     0.268 C 
HETATM    2  N   UNK N   1      30.119  17.248   9.618  0.00  0.00    -0.351 N 
HETATM    3  O   UNK N   1      28.012  16.735  10.072  0.00  0.00    -0.266 OA
HETATM    4  H   UNK N   1      30.386  16.676  10.373  0.00  0.00     0.162 HD
ENDROOT
BRANCH   2   5
HETATM    5  C   UNK N   1      31.177  17.882   8.864  0.00  0.00     0.187 C 
BRANCH   5   6
HETATM    6  C   UNK N   1      32.404  16.960   8.718  0.00  0.00     0.374 C 
BRANCH   6   7
HETATM    7  N   UNK N   1      32.620  16.341   7.364  0.00  0.00     0.125 N 
BRANCH   7   8
HETATM    8  C   UNK N   1      32.038  17.043   6.198  0.00  0.00     0.226 C 
HETATM    9  C   UNK N   1      31.138  16.118   5.383  0.00  0.00     0.036 C 
HETATM   10  C   UNK N   1      31.141  16.668   3.969  0.00  0.00     0.002 C 
HETATM   11  C   UNK N   1      32.315  17.625   3.888  0.00  0.00     0.002 C 
HETATM   12  C   UNK N   1      33.088  17.431   5.173  0.00  0.00     0.036 C 
ENDBRANCH   7   8
BRANCH   7  13
HETATM   13  C   UNK N   1      32.263  14.918   7.304  0.00  0.00     0.302 C 
BRANCH  13  14
HETATM   14  C   UNK N   1      33.100  14.124   8.288  0.00  0.00     0.194 C 
BRANCH  14  15
HETATM   15  O   UNK N   1      32.272  13.257   8.999  0.00  0.00    -0.399 OA
HETATM   16  H   UNK N   1      32.516  12.684   9.742  0.00  0.00     0.209 HD
ENDBRANCH  14  15
ENDBRANCH  13  14
ENDBRANCH   7  13
ENDBRANCH   6   7
BRANCH   6  17
HETATM   17  O   UNK N   1      33.516  17.694   9.138  0.00  0.00    -0.366 OA
HETATM   18  H   UNK N   1      34.216  17.936   8.512  0.00  0.00     0.212 HD
ENDBRANCH   6  17
ENDBRANCH   5   6
ENDBRANCH   2   5
BRANCH   1  19
HETATM   19  C   UNK N   1      28.230  18.230   8.302  0.00  0.00     0.102 A 
HETATM   20  C   UNK N   1      28.243  17.879   6.951  0.00  0.00     0.049 A 
HETATM   21  C   UNK N   1      27.647  18.938   6.311  0.00  0.00    -0.005 A 
HETATM   22  C   UNK N   1      27.295  19.856   7.260  0.00  0.00     0.043 A 
HETATM   23  C   UNK N   1      27.407  19.144   4.957  0.00  0.00     0.037 A 
HETATM   24  N   UNK N   1      27.647  19.442   8.488  0.00  0.00    -0.351 N 
HETATM   25  C   UNK N   1      26.661  21.050   6.923  0.00  0.00     0.032 A 
HETATM   26  H   UNK N   1      27.512  19.916   9.340  0.00  0.00     0.166 HD
HETATM   27  C   UNK N   1      26.399  21.291   5.560  0.00  0.00     0.026 A 
HETATM   28  C   UNK N   1      26.776  20.343   4.579  0.00  0.00     0.035 A 
HETATM   29 Cl   UNK N   1      26.465  20.666   2.888  0.00  0.00    -0.084 Cl
ENDBRANCH   1  19
TORSDOF 9
ENDMDL
MODEL 3
REMARK VINA RESULT:      -7.0      3.599      8.073
REMARK  9 active torsions:
REMARK  status: ('A' for Active; 'I' for Inactive)
REMARK    1  A    between atoms: C_7  and  C_10 
REMARK       I    between atoms: C_10  and  N_12 
REMARK    2  A    between atoms: N_12  and  C_14 
REMARK    3  A    between atoms: C_14  and  C_15 
REMARK    4  A    between atoms: C_15  and  N_16 
REMARK    5  A    between atoms: C_15  and  O_17 
REMARK    6  A    between atoms: N_16  and  C_18 
REMARK    7  A    between atoms: N_16  and  C_19 
REMARK    8  A    between atoms: C_19  and  C_22 
REMARK    9  A    between atoms: C_22  and  O_25 
ROOT
HETATM    1  C   UNK N   1      35.685  12.802   9.830  0.00  0.00     0.268 C 
HETATM    2  N   UNK N   1      34.808  13.380   8.970  0.00  0.00    -0.351 N 
HETATM    3  O   UNK N   1      36.794  12.503   9.412  0.00  0.00    -0.266 OA
HETATM    4  H   UNK N   1      35.131  13.568   8.059  0.00  0.00     0.162 HD
ENDROOT
BRANCH   2   5
HETATM    5  C   UNK N   1      33.444  13.747   9.274  0.00  0.00     0.187 C 
BRANCH   5   6
HETATM    6  C   UNK N   1      33.369  15.085  10.036  0.00  0.00     0.374 C 
BRANCH   6   7
HETATM    7  N   UNK N   1      33.579  16.333   9.222  0.00  0.00     0.125 N 
BRANCH   7   8
HETATM    8  C   UNK N   1      33.286  16.253   7.773  0.00  0.00     0.226 C 
HETATM    9  C   UNK N   1      34.192  17.181   6.969  0.00  0.00     0.036 C 
HETATM   10  C   UNK N   1      33.430  17.518   5.701  0.00  0.00     0.002 C 
HETATM   11  C   UNK N   1      31.986  17.130   5.958  0.00  0.00     0.002 C 
HETATM   12  C   UNK N   1      31.911  16.794   7.430  0.00  0.00     0.036 C 
ENDBRANCH   7   8
BRANCH   7  13
HETATM   13  C   UNK N   1      34.897  16.948   9.419  0.00  0.00     0.302 C 
BRANCH  13  14
HETATM   14  C   UNK N   1      35.415  16.647  10.812  0.00  0.00     0.194 C 
BRANCH  14  15
HETATM   15  O   UNK N   1      36.749  16.250  10.728  0.00  0.00    -0.399 OA
HETATM   16  H   UNK N   1      37.358  16.380   9.985  0.00  0.00     0.209 HD
ENDBRANCH  14  15
ENDBRANCH  13  14
ENDBRANCH   7  13
ENDBRANCH   6   7
BRANCH   6  17
HETATM   17  O   UNK N   1      32.144  15.102  10.708  0.00  0.00    -0.366 OA
HETATM   18  H   UNK N   1      31.984  14.514  11.462  0.00  0.00     0.212 HD
ENDBRANCH   6  17
ENDBRANCH   5   6
ENDBRANCH   2   5
BRANCH   1  19
HETATM   19  C   UNK N   1      35.360  12.493  11.245  0.00  0.00     0.102 A 
HETATM   20  C   UNK N   1      35.830  13.240  12.326  0.00  0.00     0.049 A 
HETATM   21  C   UNK N   1      35.309  12.615  13.432  0.00  0.00    -0.005 A 
HETATM   22  C   UNK N   1      34.558  11.558  13.001  0.00  0.00     0.043 A 
HETATM   23  C   UNK N   1      35.461  12.912  14.782  0.00  0.00     0.037 A 
HETATM   24  N   UNK N   1      34.579  11.463  11.661  0.00  0.00    -0.351 N 
HETATM   25  C   UNK N   1      33.890  10.722  13.894  0.00  0.00     0.032 A 
HETATM   26  H   UNK N   1      34.127  10.791  11.103  0.00  0.00     0.166 HD
HETATM   27  C   UNK N   1      34.020  10.996  15.270  0.00  0.00     0.026 A 
HETATM   28  C   UNK N   1      34.807  12.085  15.713  0.00  0.00     0.035 A 
HETATM   29 Cl   UNK N   1      34.977  12.400  17.425  0.00  0.00    -0.084 Cl
ENDBRANCH   1  19
TORSDOF 9
ENDMDL
MODEL 4
REMARK VINA RESULT:      -6.8      3.416      8.238
REMARK  9 active torsions:
REMARK  status: ('A' for Active; 'I' for Inactive)
REMARK    1  A    between atoms: C_7  and  C_10 
REMARK       I    between atoms: C_10  and  N_12 
REMARK    2  A    between atoms: N_12  and  C_14 
REMARK    3  A    between atoms: C_14  and  C_15 
REMARK    4  A    between atoms: C_15  and  N_16 
REMARK    5  A    between atoms: C_15  and  O_17 
REMARK    6  A    between atoms: N_16  and  C_18 
REMARK    7  A    between atoms: N_16  and  C_19 
REMARK    8  A    between atoms: C_19  and  C_22 
REMARK    9  A    between atoms: C_22  and  O_25 
ROOT
HETATM    1  C   UNK N   1      35.767  15.692  10.820  0.00  0.00     0.268 C 
HETATM    2  N   UNK N   1      34.717  15.872   9.977  0.00  0.00    -0.351 N 
HETATM    3  O   UNK N   1      36.808  16.286  10.583  0.00  0.00    -0.266 OA
HETATM    4  H   UNK N   1      34.840  16.511   9.238  0.00  0.00     0.162 HD
ENDROOT
BRANCH   2   5
HETATM    5  C   UNK N   1      33.436  15.211  10.071  0.00  0.00     0.187 C 
BRANCH   5   6
HETATM    6  C   UNK N   1      32.558  15.490   8.834  0.00  0.00     0.374 C 
BRANCH   6   7
HETATM    7  N   UNK N   1      31.954  16.865   8.738  0.00  0.00     0.125 N 
BRANCH   7   8
HETATM    8  C   UNK N   1      30.478  16.962   8.809  0.00  0.00     0.226 C 
HETATM    9  C   UNK N   1      29.859  17.066   7.417  0.00  0.00     0.036 C 
HETATM   10  C   UNK N   1      28.538  17.788   7.599  0.00  0.00     0.002 C 
HETATM   11  C   UNK N   1      28.590  18.431   8.972  0.00  0.00     0.002 C 
HETATM   12  C   UNK N   1      30.014  18.256   9.449  0.00  0.00     0.036 C 
ENDBRANCH   7   8
BRANCH   7  13
HETATM   13  C   UNK N   1      32.439  17.641   7.590  0.00  0.00     0.302 C 
BRANCH  13  14
HETATM   14  C   UNK N   1      33.650  18.463   7.986  0.00  0.00     0.194 C 
BRANCH  14  15
HETATM   15  O   UNK N   1      34.792  17.898   7.419  0.00  0.00    -0.399 OA
HETATM   16  H   UNK N   1      35.547  17.505   7.882  0.00  0.00     0.209 HD
ENDBRANCH  14  15
ENDBRANCH  13  14
ENDBRANCH   7  13
ENDBRANCH   6   7
BRANCH   6  17
HETATM   17  O   UNK N   1      33.330  15.181   7.711  0.00  0.00    -0.366 OA
HETATM   18  H   UNK N   1      32.980  14.606   7.012  0.00  0.00     0.212 HD
ENDBRANCH   6  17
ENDBRANCH   5   6
ENDBRANCH   2   5
BRANCH   1  19
HETATM   19  C   UNK N   1      35.722  14.793  12.000  0.00  0.00     0.102 A 
HETATM   20  C   UNK N   1      35.005  13.595  12.031  0.00  0.00     0.049 A 
HETATM   21  C   UNK N   1      35.224  13.093  13.291  0.00  0.00    -0.005 A 
HETATM   22  C   UNK N   1      36.044  13.963  13.952  0.00  0.00     0.043 A 
HETATM   23  C   UNK N   1      34.741  11.933  13.887  0.00  0.00     0.037 A 
HETATM   24  N   UNK N   1      36.359  15.015  13.178  0.00  0.00    -0.351 N 
HETATM   25  C   UNK N   1      36.455  13.729  15.262  0.00  0.00     0.032 A 
HETATM   26  H   UNK N   1      36.928  15.783  13.415  0.00  0.00     0.166 HD
HETATM   27  C   UNK N   1      35.987  12.561  15.897  0.00  0.00     0.026 A 
HETATM   28  C   UNK N   1      35.129  11.668  15.212  0.00  0.00     0.035 A 
HETATM   29 Cl   UNK N   1      34.539  10.233  16.021  0.00  0.00    -0.084 Cl
ENDBRANCH   1  19
TORSDOF 9
ENDMDL
MODEL 5
REMARK VINA RESULT:      -6.8      1.723      3.118
REMARK  9 active torsions:
REMARK  status: ('A' for Active; 'I' for Inactive)
REMARK    1  A    between atoms: C_7  and  C_10 
REMARK       I    between atoms: C_10  and  N_12 
REMARK    2  A    between atoms: N_12  and  C_14 
REMARK    3  A    between atoms: C_14  and  C_15 
REMARK    4  A    between atoms: C_15  and  N_16 
REMARK    5  A    between atoms: C_15  and  O_17 
REMARK    6  A    between atoms: N_16  and  C_18 
REMARK    7  A    between atoms: N_16  and  C_19 
REMARK    8  A    between atoms: C_19  and  C_22 
REMARK    9  A    between atoms: C_22  and  O_25 
ROOT
HETATM    1  C   UNK N   1      35.008  16.759  10.031  0.00  0.00     0.268 C 
HETATM    2  N   UNK N   1      35.088  15.658  10.823  0.00  0.00    -0.351 N 
HETATM    3  O   UNK N   1      35.656  17.746  10.345  0.00  0.00    -0.266 OA
HETATM    4  H   UNK N   1      35.704  15.701  11.590  0.00  0.00     0.162 HD
ENDROOT
BRANCH   2   5
HETATM    5  C   UNK N   1      34.351  14.429  10.637  0.00  0.00     0.187 C 
BRANCH   5   6
HETATM    6  C   UNK N   1      35.226  13.191  10.924  0.00  0.00     0.374 C 
BRANCH   6   7
HETATM    7  N   UNK N   1      36.506  13.435  11.674  0.00  0.00     0.125 N 
BRANCH   7   8
HETATM    8  C   UNK N   1      37.768  13.042  11.007  0.00  0.00     0.226 C 
HETATM    9  C   UNK N   1      38.097  13.975   9.845  0.00  0.00     0.036 C 
HETATM   10  C   UNK N   1      38.949  13.166   8.885  0.00  0.00     0.002 C 
HETATM   11  C   UNK N   1      38.772  11.713   9.282  0.00  0.00     0.002 C 
HETATM   12  C   UNK N   1      37.657  11.702  10.303  0.00  0.00     0.036 C 
ENDBRANCH   7   8
BRANCH   7  13
HETATM   13  C   UNK N   1      36.494  12.907  13.044  0.00  0.00     0.302 C 
BRANCH  13  14
HETATM   14  C   UNK N   1      36.302  14.033  14.041  0.00  0.00     0.194 C 
BRANCH  14  15
HETATM   15  O   UNK N   1      36.548  15.252  13.409  0.00  0.00    -0.399 OA
HETATM   16  H   UNK N   1      36.171  15.570  12.574  0.00  0.00     0.209 HD
ENDBRANCH  14  15
ENDBRANCH  13  14
ENDBRANCH   7  13
ENDBRANCH   6   7
BRANCH   6  17
HETATM   17  O   UNK N   1      34.411  12.260  11.572  0.00  0.00    -0.366 OA
HETATM   18  H   UNK N   1      34.796  11.485  12.010  0.00  0.00     0.212 HD
ENDBRANCH   6  17
ENDBRANCH   5   6
ENDBRANCH   2   5
BRANCH   1  19
HETATM   19  C   UNK N   1      34.154  16.833   8.820  0.00  0.00     0.102 A 
HETATM   20  C   UNK N   1      34.655  16.767   7.518  0.00  0.00     0.049 A 
HETATM   21  C   UNK N   1      33.547  16.884   6.714  0.00  0.00    -0.005 A 
HETATM   22  C   UNK N   1      32.453  17.000   7.523  0.00  0.00     0.043 A 
HETATM   23  C   UNK N   1      33.447  16.902   5.327  0.00  0.00     0.037 A 
HETATM   24  N   UNK N   1      32.804  16.975   8.820  0.00  0.00    -0.351 N 
HETATM   25  C   UNK N   1      31.167  17.132   7.002  0.00  0.00     0.032 A 
HETATM   26  H   UNK N   1      32.210  17.045   9.602  0.00  0.00     0.166 HD
HETATM   27  C   UNK N   1      31.028  17.152   5.600  0.00  0.00     0.026 A 
HETATM   28  C   UNK N   1      32.165  17.042   4.765  0.00  0.00     0.035 A 
HETATM   29 Cl   UNK N   1      31.979  17.091   3.026  0.00  0.00    -0.084 Cl
ENDBRANCH   1  19
TORSDOF 9
ENDMDL
MODEL 6
REMARK VINA RESULT:      -6.7      1.323      2.497
REMARK  9 active torsions:
REMARK  status: ('A' for Active; 'I' for Inactive)
REMARK    1  A    between atoms: C_7  and  C_10 
REMARK       I    between atoms: C_10  and  N_12 
REMARK    2  A    between atoms: N_12  and  C_14 
REMARK    3  A    between atoms: C_14  and  C_15 
REMARK    4  A    between atoms: C_15  and  N_16 
REMARK    5  A    between atoms: C_15  and  O_17 
REMARK    6  A    between atoms: N_16  and  C_18 
REMARK    7  A    between atoms: N_16  and  C_19 
REMARK    8  A    between atoms: C_19  and  C_22 
REMARK    9  A    between atoms: C_22  and  O_25 
ROOT
HETATM    1  C   UNK N   1      34.756  18.292   8.670  0.00  0.00     0.268 C 
HETATM    2  N   UNK N   1      35.217  17.544   9.705  0.00  0.00    -0.351 N 
HETATM    3  O   UNK N   1      35.281  19.374   8.459  0.00  0.00    -0.266 OA
HETATM    4  H   UNK N   1      35.986  17.899  10.207  0.00  0.00     0.162 HD
ENDROOT
BRANCH   2   5
HETATM    5  C   UNK N   1      34.681  16.272  10.133  0.00  0.00     0.187 C 
BRANCH   5   6
HETATM    6  C   UNK N   1      35.640  15.544  11.098  0.00  0.00     0.374 C 
BRANCH   6   7
HETATM    7  N   UNK N   1      35.660  14.042  11.017  0.00  0.00     0.125 N 
BRANCH   7   8
HETATM    8  C   UNK N   1      35.104  13.423   9.793  0.00  0.00     0.226 C 
HETATM    9  C   UNK N   1      34.470  12.067  10.094  0.00  0.00     0.036 C 
HETATM   10  C   UNK N   1      34.539  11.275   8.802  0.00  0.00     0.002 C 
HETATM   11  C   UNK N   1      35.538  11.994   7.915  0.00  0.00     0.002 C 
HETATM   12  C   UNK N   1      36.182  13.042   8.795  0.00  0.00     0.036 C 
ENDBRANCH   7   8
BRANCH   7  13
HETATM   13  C   UNK N   1      35.093  13.382  12.199  0.00  0.00     0.302 C 
BRANCH  13  14
HETATM   14  C   UNK N   1      35.737  13.920  13.461  0.00  0.00     0.194 C 
BRANCH  14  15
HETATM   15  O   UNK N   1      37.046  13.447  13.545  0.00  0.00    -0.399 OA
HETATM   16  H   UNK N   1      37.346  12.603  13.915  0.00  0.00     0.209 HD
ENDBRANCH  14  15
ENDBRANCH  13  14
ENDBRANCH   7  13
ENDBRANCH   6   7
BRANCH   6  17
HETATM   17  O   UNK N   1      36.909  16.094  10.899  0.00  0.00    -0.366 OA
HETATM   18  H   UNK N   1      37.611  15.579  10.472  0.00  0.00     0.212 HD
ENDBRANCH   6  17
ENDBRANCH   5   6
ENDBRANCH   2   5
BRANCH   1  19
HETATM   19  C   UNK N   1      33.630  17.874   7.798  0.00  0.00     0.102 A 
HETATM   20  C   UNK N   1      33.778  17.559   6.445  0.00  0.00     0.049 A 
HETATM   21  C   UNK N   1      32.511  17.241   6.023  0.00  0.00    -0.005 A 
HETATM   22  C   UNK N   1      31.670  17.356   7.095  0.00  0.00     0.043 A 
HETATM   23  C   UNK N   1      32.055  16.868   4.763  0.00  0.00     0.037 A 
HETATM   24  N   UNK N   1      32.338  17.747   8.193  0.00  0.00    -0.351 N 
HETATM   25  C   UNK N   1      30.307  17.094   6.987  0.00  0.00     0.032 A 
HETATM   26  H   UNK N   1      31.968  17.908   9.091  0.00  0.00     0.166 HD
HETATM   27  C   UNK N   1      29.811  16.710   5.725  0.00  0.00     0.026 A 
HETATM   28  C   UNK N   1      30.682  16.602   4.615  0.00  0.00     0.035 A 
HETATM   29 Cl   UNK N   1      30.048  16.147   3.049  0.00  0.00    -0.084 Cl
ENDBRANCH   1  19
TORSDOF 9
ENDMDL
MODEL 7
REMARK VINA RESULT:      -6.7      1.658      2.121
REMARK  9 active torsions:
REMARK  status: ('A' for Active; 'I' for Inactive)
REMARK    1  A    between atoms: C_7  and  C_10 
REMARK       I    between atoms: C_10  and  N_12 
REMARK    2  A    between atoms: N_12  and  C_14 
REMARK    3  A    between atoms: C_14  and  C_15 
REMARK    4  A    between atoms: C_15  and  N_16 
REMARK    5  A    between atoms: C_15  and  O_17 
REMARK    6  A    between atoms: N_16  and  C_18 
REMARK    7  A    between atoms: N_16  and  C_19 
REMARK    8  A    between atoms: C_19  and  C_22 
REMARK    9  A    between atoms: C_22  and  O_25 
ROOT
HETATM    1  C   UNK N   1      34.227  17.759   8.274  0.00  0.00     0.268 C 
HETATM    2  N   UNK N   1      34.975  17.012   9.126  0.00  0.00    -0.351 N 
HETATM    3  O   UNK N   1      34.798  18.571   7.561  0.00  0.00    -0.266 OA
HETATM    4  H   UNK N   1      35.951  17.136   9.092  0.00  0.00     0.162 HD
ENDROOT
BRANCH   2   5
HETATM    5  C   UNK N   1      34.466  16.049  10.075  0.00  0.00     0.187 C 
BRANCH   5   6
HETATM    6  C   UNK N   1      35.560  15.581  11.056  0.00  0.00     0.374 C 
BRANCH   6   7
HETATM    7  N   UNK N   1      35.891  14.114  11.040  0.00  0.00     0.125 N 
BRANCH   7   8
HETATM    8  C   UNK N   1      35.822  13.390  12.330  0.00  0.00     0.226 C 
HETATM    9  C   UNK N   1      36.062  14.330  13.509  0.00  0.00     0.036 C 
HETATM   10  C   UNK N   1      36.608  13.466  14.630  0.00  0.00     0.002 C 
HETATM   11  C   UNK N   1      37.047  12.164  13.988  0.00  0.00     0.002 C 
HETATM   12  C   UNK N   1      36.955  12.394  12.496  0.00  0.00     0.036 C 
ENDBRANCH   7   8
BRANCH   7  13
HETATM   13  C   UNK N   1      37.163  13.805  10.375  0.00  0.00     0.302 C 
BRANCH  13  14
HETATM   14  C   UNK N   1      36.920  13.415   8.930  0.00  0.00     0.194 C 
BRANCH  14  15
HETATM   15  O   UNK N   1      35.638  12.881   8.809  0.00  0.00    -0.399 OA
HETATM   16  H   UNK N   1      34.859  13.301   8.414  0.00  0.00     0.209 HD
ENDBRANCH  14  15
ENDBRANCH  13  14
ENDBRANCH   7  13
ENDBRANCH   6   7
BRANCH   6  17
HETATM   17  O   UNK N   1      36.687  16.371  10.813  0.00  0.00    -0.366 OA
HETATM   18  H   UNK N   1      36.595  17.279  10.484  0.00  0.00     0.212 HD
ENDBRANCH   6  17
ENDBRANCH   5   6
ENDBRANCH   2   5
BRANCH   1  19
HETATM   19  C   UNK N   1      32.750  17.657   8.180  0.00  0.00     0.102 A 
HETATM   20  C   UNK N   1      32.086  16.985   7.151  0.00  0.00     0.049 A 
HETATM   21  C   UNK N   1      30.752  17.143   7.439  0.00  0.00    -0.005 A 
HETATM   22  C   UNK N   1      30.655  17.866   8.593  0.00  0.00     0.043 A 
HETATM   23  C   UNK N   1      29.630  16.699   6.747  0.00  0.00     0.037 A 
HETATM   24  N   UNK N   1      31.870  18.195   9.062  0.00  0.00    -0.351 N 
HETATM   25  C   UNK N   1      29.421  18.192   9.152  0.00  0.00     0.032 A 
HETATM   26  H   UNK N   1      32.077  18.716   9.872  0.00  0.00     0.166 HD
HETATM   27  C   UNK N   1      28.262  17.756   8.478  0.00  0.00     0.026 A 
HETATM   28  C   UNK N   1      28.367  17.015   7.277  0.00  0.00     0.035 A 
HETATM   29 Cl   UNK N   1      26.919  16.501   6.440  0.00  0.00    -0.084 Cl
ENDBRANCH   1  19
TORSDOF 9
ENDMDL
MODEL 8
REMARK VINA RESULT:      -6.5      4.108      8.491
REMARK  9 active torsions:
REMARK  status: ('A' for Active; 'I' for Inactive)
REMARK    1  A    between atoms: C_7  and  C_10 
REMARK       I    between atoms: C_10  and  N_12 
REMARK    2  A    between atoms: N_12  and  C_14 
REMARK    3  A    between atoms: C_14  and  C_15 
REMARK    4  A    between atoms: C_15  and  N_16 
REMARK    5  A    between atoms: C_15  and  O_17 
REMARK    6  A    between atoms: N_16  and  C_18 
REMARK    7  A    between atoms: N_16  and  C_19 
REMARK    8  A    between atoms: C_19  and  C_22 
REMARK    9  A    between atoms: C_22  and  O_25 
ROOT
HETATM    1  C   UNK N   1      37.222  13.410  11.542  0.00  0.00     0.268 C 
HETATM    2  N   UNK N   1      36.828  14.559  10.935  0.00  0.00    -0.351 N 
HETATM    3  O   UNK N   1      37.959  12.654  10.927  0.00  0.00    -0.266 OA
HETATM    4  H   UNK N   1      37.196  14.743  10.041  0.00  0.00     0.162 HD
ENDROOT
BRANCH   2   5
HETATM    5  C   UNK N   1      35.918  15.537  11.488  0.00  0.00     0.187 C 
BRANCH   5   6
HETATM    6  C   UNK N   1      34.539  15.484  10.801  0.00  0.00     0.374 C 
BRANCH   6   7
HETATM    7  N   UNK N   1      34.523  15.049   9.361  0.00  0.00     0.125 N 
BRANCH   7   8
HETATM    8  C   UNK N   1      33.945  15.990   8.375  0.00  0.00     0.226 C 
HETATM    9  C   UNK N   1      34.486  17.403   8.571  0.00  0.00     0.036 C 
HETATM   10  C   UNK N   1      33.425  18.339   8.024  0.00  0.00     0.002 C 
HETATM   11  C   UNK N   1      32.157  17.515   7.896  0.00  0.00     0.002 C 
HETATM   12  C   UNK N   1      32.456  16.200   8.579  0.00  0.00     0.036 C 
ENDBRANCH   7   8
BRANCH   7  13
HETATM   13  C   UNK N   1      33.947  13.714   9.157  0.00  0.00     0.302 C 
BRANCH  13  14
HETATM   14  C   UNK N   1      34.867  12.870   8.297  0.00  0.00     0.194 C 
BRANCH  14  15
HETATM   15  O   UNK N   1      36.166  13.366   8.391  0.00  0.00    -0.399 OA
HETATM   16  H   UNK N   1      36.735  13.386   9.176  0.00  0.00     0.209 HD
ENDBRANCH  14  15
ENDBRANCH  13  14
ENDBRANCH   7  13
ENDBRANCH   6   7
BRANCH   6  17
HETATM   17  O   UNK N   1      33.720  14.680  11.597  0.00  0.00    -0.366 OA
HETATM   18  H   UNK N   1      33.664  13.724  11.445  0.00  0.00     0.212 HD
ENDBRANCH   6  17
ENDBRANCH   5   6
ENDBRANCH   2   5
BRANCH   1  19
HETATM   19  C   UNK N   1      36.785  13.013  12.904  0.00  0.00     0.102 A 
HETATM   20  C   UNK N   1      37.251  11.874  13.563  0.00  0.00     0.049 A 
HETATM   21  C   UNK N   1      36.594  11.879  14.769  0.00  0.00    -0.005 A 
HETATM   22  C   UNK N   1      35.791  12.984  14.805  0.00  0.00     0.043 A 
HETATM   23  C   UNK N   1      36.653  10.973  15.822  0.00  0.00     0.037 A 
HETATM   24  N   UNK N   1      35.891  13.692  13.668  0.00  0.00    -0.351 N 
HETATM   25  C   UNK N   1      34.993  13.273  15.909  0.00  0.00     0.032 A 
HETATM   26  H   UNK N   1      35.417  14.524  13.438  0.00  0.00     0.166 HD
HETATM   27  C   UNK N   1      35.030  12.377  16.997  0.00  0.00     0.026 A 
HETATM   28  C   UNK N   1      35.855  11.228  16.951  0.00  0.00     0.035 A 
HETATM   29 Cl   UNK N   1      35.873  10.113  18.299  0.00  0.00    -0.084 Cl
ENDBRANCH   1  19
TORSDOF 9
ENDMDL
MODEL 9
REMARK VINA RESULT:      -6.5      5.642      9.565
REMARK  9 active torsions:
REMARK  status: ('A' for Active; 'I' for Inactive)
REMARK    1  A    between atoms: C_7  and  C_10 
REMARK       I    between atoms: C_10  and  N_12 
REMARK    2  A    between atoms: N_12  and  C_14 
REMARK    3  A    between atoms: C_14  and  C_15 
REMARK    4  A    between atoms: C_15  and  N_16 
REMARK    5  A    between atoms: C_15  and  O_17 
REMARK    6  A    between atoms: N_16  and  C_18 
REMARK    7  A    between atoms: N_16  and  C_19 
REMARK    8  A    between atoms: C_19  and  C_22 
REMARK    9  A    between atoms: C_22  and  O_25 
ROOT
HETATM    1  C   UNK N   1      28.271  18.030   8.804  0.00  0.00     0.268 C 
HETATM    2  N   UNK N   1      27.488  19.005   8.277  0.00  0.00    -0.351 N 
HETATM    3  O   UNK N   1      27.813  17.342   9.704  0.00  0.00    -0.266 OA
HETATM    4  H   UNK N   1      26.568  19.078   8.622  0.00  0.00     0.162 HD
ENDROOT
BRANCH   2   5
HETATM    5  C   UNK N   1      27.883  19.944   7.251  0.00  0.00     0.187 C 
BRANCH   5   6
HETATM    6  C   UNK N   1      27.725  19.347   5.839  0.00  0.00     0.374 C 
BRANCH   6   7
HETATM    7  N   UNK N   1      26.430  18.636   5.552  0.00  0.00     0.125 N 
BRANCH   7   8
HETATM    8  C   UNK N   1      26.518  17.271   4.986  0.00  0.00     0.226 C 
HETATM    9  C   UNK N   1      26.565  16.213   6.085  0.00  0.00     0.036 C 
HETATM   10  C   UNK N   1      27.282  15.018   5.488  0.00  0.00     0.002 C 
HETATM   11  C   UNK N   1      27.976  15.521   4.236  0.00  0.00     0.002 C 
HETATM   12  C   UNK N   1      27.831  17.026   4.267  0.00  0.00     0.036 C 
ENDBRANCH   7   8
BRANCH   7  13
HETATM   13  C   UNK N   1      25.485  19.433   4.761  0.00  0.00     0.302 C 
BRANCH  13  14
HETATM   14  C   UNK N   1      24.324  18.572   4.304  0.00  0.00     0.194 C 
BRANCH  14  15
HETATM   15  O   UNK N   1      23.361  19.382   3.703  0.00  0.00    -0.399 OA
HETATM   16  H   UNK N   1      22.805  20.051   4.130  0.00  0.00     0.209 HD
ENDBRANCH  14  15
ENDBRANCH  13  14
ENDBRANCH   7  13
ENDBRANCH   6   7
BRANCH   6  17
HETATM   17  O   UNK N   1      27.962  20.382   4.931  0.00  0.00    -0.366 OA
HETATM   18  H   UNK N   1      27.417  20.478   4.135  0.00  0.00     0.212 HD
ENDBRANCH   6  17
ENDBRANCH   5   6
ENDBRANCH   2   5
BRANCH   1  19
HETATM   19  C   UNK N   1      29.664  17.771   8.361  0.00  0.00     0.102 A 
HETATM   20  C   UNK N   1      29.992  16.925   7.300  0.00  0.00     0.049 A 
HETATM   21  C   UNK N   1      31.363  16.963   7.238  0.00  0.00    -0.005 A 
HETATM   22  C   UNK N   1      31.804  17.808   8.217  0.00  0.00     0.043 A 
HETATM   23  C   UNK N   1      32.238  16.298   6.385  0.00  0.00     0.037 A 
HETATM   24  N   UNK N   1      30.776  18.312   8.920  0.00  0.00    -0.351 N 
HETATM   25  C   UNK N   1      33.160  18.062   8.408  0.00  0.00     0.032 A 
HETATM   26  H   UNK N   1      30.821  18.938   9.678  0.00  0.00     0.166 HD
HETATM   27  C   UNK N   1      34.076  17.407   7.560  0.00  0.00     0.026 A 
HETATM   28  C   UNK N   1      33.616  16.525   6.554  0.00  0.00     0.035 A 
HETATM   29 Cl   UNK N   1      34.765  15.701   5.523  0.00  0.00    -0.084 Cl
ENDBRANCH   1  19
TORSDOF 9
ENDMDL
