REMARK  9 active torsions:
REMARK  status: ('A' for Active; 'I' for Inactive)
REMARK    1  A    between atoms: C_7  and  C_10 
REMARK       I    between atoms: C_10  and  N_12 
REMARK    2  A    between atoms: N_12  and  C_14 
REMARK    3  A    between atoms: C_14  and  C_15 
REMARK    4  A    between atoms: C_15  and  N_16 
REMARK    5  A    between atoms: C_15  and  O_17 
REMARK    6  A    between atoms: N_16  and  C_18 
REMARK    7  A    between atoms: N_16  and  C_19 
REMARK    8  A    between atoms: C_19  and  C_22 
REMARK    9  A    between atoms: C_22  and  O_25 
ROOT
HETATM    1  C   UNK N   1      -1.378   2.439   0.105  0.00  0.00     0.268 C 
HETATM    2  N   UNK N   1      -0.416   1.521   0.379  0.00  0.00    -0.351 N 
HETATM    3  O   UNK N   1      -1.034   3.592  -0.108  0.00  0.00    -0.266 OA
HETATM    4  H   UNK N   1       0.519   1.828   0.349  0.00  0.00     0.162 HD
ENDROOT
BRANCH   2   5
HETATM    5  C   UNK N   1      -0.643   0.132   0.709  0.00  0.00     0.187 C 
BRANCH   5   6
HETATM    6  C   UNK N   1       0.115  -0.812  -0.246  0.00  0.00     0.374 C 
BRANCH   6   7
HETATM    7  N   UNK N   1       1.617  -0.780  -0.168  0.00  0.00     0.125 N 
BRANCH   7   8
HETATM    8  C   UNK N   1       2.292  -1.976   0.385  0.00  0.00     0.226 C 
HETATM    9  C   UNK N   1       3.810  -1.859   0.276  0.00  0.00     0.036 C 
HETATM   10  C   UNK N   1       4.339  -3.280   0.234  0.00  0.00     0.002 C 
HETATM   11  C   UNK N   1       3.149  -4.167  -0.081  0.00  0.00     0.002 C 
HETATM   12  C   UNK N   1       2.021  -3.224  -0.434  0.00  0.00     0.036 C 
ENDBRANCH   7   8
BRANCH   7  13
HETATM   13  C   UNK N   1       2.146   0.424   0.484  0.00  0.00     0.302 C 
BRANCH  13  14
HETATM   14  C   UNK N   1       2.474   1.482  -0.551  0.00  0.00     0.194 C 
BRANCH  14  15
HETATM   15  O   UNK N   1       2.829   2.664   0.098  0.00  0.00    -0.399 OA
HETATM   16  H   UNK N   1       3.664   2.861   0.549  0.00  0.00     0.209 HD
ENDBRANCH  14  15
ENDBRANCH  13  14
ENDBRANCH   7  13
ENDBRANCH   6   7
BRANCH   6  17
HETATM   17  O   UNK N   1      -0.390  -2.097  -0.032  0.00  0.00    -0.366 OA
HETATM   18  H   UNK N   1      -1.338  -2.239   0.117  0.00  0.00     0.212 HD
ENDBRANCH   6  17
ENDBRANCH   5   6
ENDBRANCH   2   5
BRANCH   1  19
HETATM   19  C   UNK N   1      -2.827   2.120   0.074  0.00  0.00     0.102 A 
HETATM   20  C   UNK N   1      -3.827   3.084  -0.068  0.00  0.00     0.049 A 
HETATM   21  C   UNK N   1      -5.001   2.373  -0.036  0.00  0.00    -0.005 A 
HETATM   22  C   UNK N   1      -4.687   1.051   0.107  0.00  0.00     0.043 A 
HETATM   23  C   UNK N   1      -6.317   2.816  -0.115  0.00  0.00     0.037 A 
HETATM   24  N   UNK N   1      -3.357   0.875   0.180  0.00  0.00    -0.351 N 
HETATM   25  C   UNK N   1      -5.671   0.067   0.169  0.00  0.00     0.032 A 
HETATM   26  H   UNK N   1      -2.872   0.025   0.288  0.00  0.00     0.166 HD
HETATM   27  C   UNK N   1      -7.016   0.480   0.089  0.00  0.00     0.026 A 
HETATM   28  C   UNK N   1      -7.338   1.851  -0.048  0.00  0.00     0.035 A 
HETATM   29 Cl   UNK N   1      -9.013   2.351  -0.123  0.00  0.00    -0.084 Cl
ENDBRANCH   1  19
TORSDOF 9
