MODEL 1
REMARK VINA RESULT:      -5.3      0.000      0.000
REMARK  4 active torsions:
REMARK  status: ('A' for Active; 'I' for Inactive)
REMARK    1  A    between atoms: C_1  and  C_2 
REMARK    2  A    between atoms: C_2  and  O_3 
REMARK    3  A    between atoms: C_5  and  C_6 
REMARK    4  A    between atoms: C_11  and  O_12 
ROOT
HETATM    1  C   UNK N   1      35.243  12.683  17.200  0.00  0.00    -0.003 A 
HETATM    2  C   UNK N   1      35.293  11.283  17.206  0.00  0.00     0.014 A 
HETATM    3  C   UNK N   1      35.329  10.578  18.414  0.00  0.00     0.001 A 
HETATM    4  C   UNK N   1      35.316  11.267  19.628  0.00  0.00     0.003 A 
HETATM    5  C   UNK N   1      35.265  12.662  19.637  0.00  0.00     0.037 A 
HETATM    6  C   UNK N   1      35.229  13.375  18.438  0.00  0.00     0.075 A 
ENDROOT
BRANCH   1   7
HETATM    7  C   UNK N   1      35.206  13.372  15.886  0.00  0.00     0.021 C 
HETATM    8  C   UNK N   1      35.835  12.888  14.810  0.00  0.00     0.082 C 
BRANCH   8   9
HETATM    9  C   UNK N   1      35.818  13.546  13.497  0.00  0.00     0.165 C 
HETATM   10  O   UNK N   1      34.768  13.787  12.927  0.00  0.00    -0.647 OA
BRANCH   9  11
HETATM   11  O   UNK N   1      36.987  13.885  12.920  0.00  0.00    -0.773 OA
HETATM   12  H   UNK N   1      37.137  14.769  12.650  0.00  0.00     0.167 HD
ENDBRANCH   9  11
ENDBRANCH   8   9
ENDBRANCH   1   7
BRANCH   6  13
HETATM   13  O   UNK N   1      35.181  14.718  18.488  0.00  0.00    -0.360 OA
HETATM   14  H   UNK N   1      34.840  15.203  17.761  0.00  0.00     0.217 HD
ENDBRANCH   6  13
TORSDOF 4
ENDMDL
MODEL 2
REMARK VINA RESULT:      -5.3      9.926     11.243
REMARK  4 active torsions:
REMARK  status: ('A' for Active; 'I' for Inactive)
REMARK    1  A    between atoms: C_1  and  C_2 
REMARK    2  A    between atoms: C_2  and  O_3 
REMARK    3  A    between atoms: C_5  and  C_6 
REMARK    4  A    between atoms: C_11  and  O_12 
ROOT
HETATM    1  C   UNK N   1      30.633  17.775   8.274  0.00  0.00    -0.003 A 
HETATM    2  C   UNK N   1      30.323  17.306   6.990  0.00  0.00     0.014 A 
HETATM    3  C   UNK N   1      29.015  17.383   6.502  0.00  0.00     0.001 A 
HETATM    4  C   UNK N   1      28.003  17.930   7.294  0.00  0.00     0.003 A 
HETATM    5  C   UNK N   1      28.297  18.401   8.574  0.00  0.00     0.037 A 
HETATM    6  C   UNK N   1      29.599  18.329   9.071  0.00  0.00     0.075 A 
ENDROOT
BRANCH   1   7
HETATM    7  C   UNK N   1      32.040  17.665   8.734  0.00  0.00     0.021 C 
HETATM    8  C   UNK N   1      33.064  18.130   8.011  0.00  0.00     0.082 C 
BRANCH   8   9
HETATM    9  C   UNK N   1      34.467  18.037   8.438  0.00  0.00     0.165 C 
HETATM   10  O   UNK N   1      34.946  16.976   8.796  0.00  0.00    -0.647 OA
BRANCH   9  11
HETATM   11  O   UNK N   1      35.227  19.149   8.431  0.00  0.00    -0.773 OA
HETATM   12  H   UNK N   1      35.647  19.435   9.218  0.00  0.00     0.167 HD
ENDBRANCH   9  11
ENDBRANCH   8   9
ENDBRANCH   1   7
BRANCH   6  13
HETATM   13  O   UNK N   1      29.843  18.794  10.309  0.00  0.00    -0.360 OA
HETATM   14  H   UNK N   1      29.155  18.815  10.946  0.00  0.00     0.217 HD
ENDBRANCH   6  13
TORSDOF 4
ENDMDL
MODEL 3
REMARK VINA RESULT:      -5.1     14.527     15.653
REMARK  4 active torsions:
REMARK  status: ('A' for Active; 'I' for Inactive)
REMARK    1  A    between atoms: C_1  and  C_2 
REMARK    2  A    between atoms: C_2  and  O_3 
REMARK    3  A    between atoms: C_5  and  C_6 
REMARK    4  A    between atoms: C_11  and  O_12 
ROOT
HETATM    1  C   UNK N   1      22.069  13.223  10.098  0.00  0.00    -0.003 A 
HETATM    2  C   UNK N   1      23.259  13.553   9.437  0.00  0.00     0.014 A 
HETATM    3  C   UNK N   1      24.469  12.959   9.812  0.00  0.00     0.001 A 
HETATM    4  C   UNK N   1      24.499  12.028  10.852  0.00  0.00     0.003 A 
HETATM    5  C   UNK N   1      23.321  11.690  11.520  0.00  0.00     0.037 A 
HETATM    6  C   UNK N   1      22.108  12.277  11.155  0.00  0.00     0.075 A 
ENDROOT
BRANCH   1   7
HETATM    7  C   UNK N   1      20.818  13.888   9.654  0.00  0.00     0.021 C 
HETATM    8  C   UNK N   1      20.812  15.124   9.144  0.00  0.00     0.082 C 
BRANCH   8   9
HETATM    9  C   UNK N   1      19.592  15.809   8.695  0.00  0.00     0.165 C 
HETATM   10  O   UNK N   1      19.594  16.508   7.697  0.00  0.00    -0.647 OA
BRANCH   9  11
HETATM   11  O   UNK N   1      18.458  15.657   9.406  0.00  0.00    -0.773 OA
HETATM   12  H   UNK N   1      17.968  14.861   9.341  0.00  0.00     0.167 HD
ENDBRANCH   9  11
ENDBRANCH   8   9
ENDBRANCH   1   7
BRANCH   6  13
HETATM   13  O   UNK N   1      20.995  11.926  11.822  0.00  0.00    -0.360 OA
HETATM   14  H   UNK N   1      20.871  11.036  12.090  0.00  0.00     0.217 HD
ENDBRANCH   6  13
TORSDOF 4
ENDMDL
MODEL 4
REMARK VINA RESULT:      -5.0      2.581      3.595
REMARK  4 active torsions:
REMARK  status: ('A' for Active; 'I' for Inactive)
REMARK    1  A    between atoms: C_1  and  C_2 
REMARK    2  A    between atoms: C_2  and  O_3 
REMARK    3  A    between atoms: C_5  and  C_6 
REMARK    4  A    between atoms: C_11  and  O_12 
ROOT
HETATM    1  C   UNK N   1      35.913  13.567  13.967  0.00  0.00    -0.003 A 
HETATM    2  C   UNK N   1      34.854  12.682  13.725  0.00  0.00     0.014 A 
HETATM    3  C   UNK N   1      34.326  11.904  14.760  0.00  0.00     0.001 A 
HETATM    4  C   UNK N   1      34.853  12.005  16.049  0.00  0.00     0.003 A 
HETATM    5  C   UNK N   1      35.908  12.881  16.306  0.00  0.00     0.037 A 
HETATM    6  C   UNK N   1      36.443  13.662  15.279  0.00  0.00     0.075 A 
ENDROOT
BRANCH   1   7
HETATM    7  C   UNK N   1      36.429  14.364  12.826  0.00  0.00     0.021 C 
HETATM    8  C   UNK N   1      35.673  15.262  12.185  0.00  0.00     0.082 C 
BRANCH   8   9
HETATM    9  C   UNK N   1      36.154  16.066  11.054  0.00  0.00     0.165 C 
HETATM   10  O   UNK N   1      35.511  17.014  10.637  0.00  0.00    -0.647 OA
BRANCH   9  11
HETATM   11  O   UNK N   1      37.326  15.744  10.474  0.00  0.00    -0.773 OA
HETATM   12  H   UNK N   1      38.078  15.568  11.003  0.00  0.00     0.167 HD
ENDBRANCH   9  11
ENDBRANCH   8   9
ENDBRANCH   1   7
BRANCH   6  13
HETATM   13  O   UNK N   1      37.458  14.495  15.565  0.00  0.00    -0.360 OA
HETATM   14  H   UNK N   1      37.982  14.351  16.330  0.00  0.00     0.217 HD
ENDBRANCH   6  13
TORSDOF 4
ENDMDL
MODEL 5
REMARK VINA RESULT:      -4.9      9.937     11.378
REMARK  4 active torsions:
REMARK  status: ('A' for Active; 'I' for Inactive)
REMARK    1  A    between atoms: C_1  and  C_2 
REMARK    2  A    between atoms: C_2  and  O_3 
REMARK    3  A    between atoms: C_5  and  C_6 
REMARK    4  A    between atoms: C_11  and  O_12 
ROOT
HETATM    1  C   UNK N   1      30.828  17.648   8.291  0.00  0.00    -0.003 A 
HETATM    2  C   UNK N   1      29.997  18.375   9.153  0.00  0.00     0.014 A 
HETATM    3  C   UNK N   1      28.634  18.518   8.874  0.00  0.00     0.001 A 
HETATM    4  C   UNK N   1      28.089  17.934   7.729  0.00  0.00     0.003 A 
HETATM    5  C   UNK N   1      28.905  17.207   6.861  0.00  0.00     0.037 A 
HETATM    6  C   UNK N   1      30.266  17.058   7.130  0.00  0.00     0.075 A 
ENDROOT
BRANCH   1   7
HETATM    7  C   UNK N   1      32.266  17.533   8.643  0.00  0.00     0.021 C 
HETATM    8  C   UNK N   1      33.198  18.318   8.093  0.00  0.00     0.082 C 
BRANCH   8   9
HETATM    9  C   UNK N   1      34.628  18.229   8.420  0.00  0.00     0.165 C 
HETATM   10  O   UNK N   1      35.328  19.226   8.459  0.00  0.00    -0.647 OA
BRANCH   9  11
HETATM   11  O   UNK N   1      35.165  17.022   8.680  0.00  0.00    -0.773 OA
HETATM   12  H   UNK N   1      35.216  16.711   9.562  0.00  0.00     0.167 HD
ENDBRANCH   9  11
ENDBRANCH   8   9
ENDBRANCH   1   7
BRANCH   6  13
HETATM   13  O   UNK N   1      31.020  16.351   6.270  0.00  0.00    -0.360 OA
HETATM   14  H   UNK N   1      30.617  15.725   5.700  0.00  0.00     0.217 HD
ENDBRANCH   6  13
TORSDOF 4
ENDMDL
MODEL 6
REMARK VINA RESULT:      -4.9     11.700     14.476
REMARK  4 active torsions:
REMARK  status: ('A' for Active; 'I' for Inactive)
REMARK    1  A    between atoms: C_1  and  C_2 
REMARK    2  A    between atoms: C_2  and  O_3 
REMARK    3  A    between atoms: C_5  and  C_6 
REMARK    4  A    between atoms: C_11  and  O_12 
ROOT
HETATM    1  C   UNK N   1      27.845  19.512   6.639  0.00  0.00    -0.003 A 
HETATM    2  C   UNK N   1      28.302  19.053   5.397  0.00  0.00     0.014 A 
HETATM    3  C   UNK N   1      27.695  19.483   4.213  0.00  0.00     0.001 A 
HETATM    4  C   UNK N   1      26.624  20.377   4.259  0.00  0.00     0.003 A 
HETATM    5  C   UNK N   1      26.158  20.843   5.489  0.00  0.00     0.037 A 
HETATM    6  C   UNK N   1      26.756  20.421   6.678  0.00  0.00     0.075 A 
ENDROOT
BRANCH   1   7
HETATM    7  C   UNK N   1      28.531  19.019   7.860  0.00  0.00     0.021 C 
HETATM    8  C   UNK N   1      28.055  17.999   8.581  0.00  0.00     0.082 C 
BRANCH   8   9
HETATM    9  C   UNK N   1      28.710  17.487   9.792  0.00  0.00     0.165 C 
HETATM   10  O   UNK N   1      28.251  16.538  10.403  0.00  0.00    -0.647 OA
BRANCH   9  11
HETATM   11  O   UNK N   1      29.837  18.084  10.227  0.00  0.00    -0.773 OA
HETATM   12  H   UNK N   1      30.355  18.594   9.637  0.00  0.00     0.167 HD
ENDBRANCH   9  11
ENDBRANCH   8   9
ENDBRANCH   1   7
BRANCH   6  13
HETATM   13  O   UNK N   1      26.279  20.892   7.843  0.00  0.00    -0.360 OA
HETATM   14  H   UNK N   1      26.805  21.464   8.368  0.00  0.00     0.217 HD
ENDBRANCH   6  13
TORSDOF 4
ENDMDL
MODEL 7
REMARK VINA RESULT:      -4.8     20.655     21.631
REMARK  4 active torsions:
REMARK  status: ('A' for Active; 'I' for Inactive)
REMARK    1  A    between atoms: C_1  and  C_2 
REMARK    2  A    between atoms: C_2  and  O_3 
REMARK    3  A    between atoms: C_5  and  C_6 
REMARK    4  A    between atoms: C_11  and  O_12 
ROOT
HETATM    1  C   UNK N   1      20.146  17.318   2.188  0.00  0.00    -0.003 A 
HETATM    2  C   UNK N   1      19.976  16.510   3.320  0.00  0.00     0.014 A 
HETATM    3  C   UNK N   1      19.755  15.135   3.186  0.00  0.00     0.001 A 
HETATM    4  C   UNK N   1      19.702  14.555   1.918  0.00  0.00     0.003 A 
HETATM    5  C   UNK N   1      19.870  15.347   0.781  0.00  0.00     0.037 A 
HETATM    6  C   UNK N   1      20.091  16.720   0.903  0.00  0.00     0.075 A 
ENDROOT
BRANCH   1   7
HETATM    7  C   UNK N   1      20.377  18.769   2.397  0.00  0.00     0.021 C 
HETATM    8  C   UNK N   1      21.594  19.270   2.636  0.00  0.00     0.082 C 
BRANCH   8   9
HETATM    9  C   UNK N   1      21.855  20.700   2.846  0.00  0.00     0.165 C 
HETATM   10  O   UNK N   1      22.992  21.138   2.852  0.00  0.00    -0.647 OA
BRANCH   9  11
HETATM   11  O   UNK N   1      20.814  21.533   3.035  0.00  0.00    -0.773 OA
HETATM   12  H   UNK N   1      20.830  22.151   3.739  0.00  0.00     0.167 HD
ENDBRANCH   9  11
ENDBRANCH   8   9
ENDBRANCH   1   7
BRANCH   6  13
HETATM   13  O   UNK N   1      20.247  17.450  -0.215  0.00  0.00    -0.360 OA
HETATM   14  H   UNK N   1      19.896  18.318  -0.262  0.00  0.00     0.217 HD
ENDBRANCH   6  13
TORSDOF 4
ENDMDL
MODEL 8
REMARK VINA RESULT:      -4.8      1.718      2.228
REMARK  4 active torsions:
REMARK  status: ('A' for Active; 'I' for Inactive)
REMARK    1  A    between atoms: C_1  and  C_2 
REMARK    2  A    between atoms: C_2  and  O_3 
REMARK    3  A    between atoms: C_5  and  C_6 
REMARK    4  A    between atoms: C_11  and  O_12 
ROOT
HETATM    1  C   UNK N   1      35.682  12.403  16.494  0.00  0.00    -0.003 A 
HETATM    2  C   UNK N   1      35.309  13.488  17.299  0.00  0.00     0.014 A 
HETATM    3  C   UNK N   1      35.127  13.322  18.676  0.00  0.00     0.001 A 
HETATM    4  C   UNK N   1      35.316  12.068  19.261  0.00  0.00     0.003 A 
HETATM    5  C   UNK N   1      35.687  10.979  18.472  0.00  0.00     0.037 A 
HETATM    6  C   UNK N   1      35.872  11.133  17.097  0.00  0.00     0.075 A 
ENDROOT
BRANCH   1   7
HETATM    7  C   UNK N   1      35.859  12.644  15.040  0.00  0.00     0.021 C 
HETATM    8  C   UNK N   1      36.225  13.835  14.555  0.00  0.00     0.082 C 
BRANCH   8   9
HETATM    9  C   UNK N   1      36.409  14.105  13.123  0.00  0.00     0.165 C 
HETATM   10  O   UNK N   1      35.743  14.951  12.551  0.00  0.00    -0.647 OA
BRANCH   9  11
HETATM   11  O   UNK N   1      37.331  13.402  12.439  0.00  0.00    -0.773 OA
HETATM   12  H   UNK N   1      37.717  12.638  12.821  0.00  0.00     0.167 HD
ENDBRANCH   9  11
ENDBRANCH   8   9
ENDBRANCH   1   7
BRANCH   6  13
HETATM   13  O   UNK N   1      36.229  10.060  16.370  0.00  0.00    -0.360 OA
HETATM   14  H   UNK N   1      35.580   9.438  16.102  0.00  0.00     0.217 HD
ENDBRANCH   6  13
TORSDOF 4
ENDMDL
MODEL 9
REMARK VINA RESULT:      -4.8     14.607     15.803
REMARK  4 active torsions:
REMARK  status: ('A' for Active; 'I' for Inactive)
REMARK    1  A    between atoms: C_1  and  C_2 
REMARK    2  A    between atoms: C_2  and  O_3 
REMARK    3  A    between atoms: C_5  and  C_6 
REMARK    4  A    between atoms: C_11  and  O_12 
ROOT
HETATM    1  C   UNK N   1      21.997  13.547   9.508  0.00  0.00    -0.003 A 
HETATM    2  C   UNK N   1      21.162  12.982  10.481  0.00  0.00     0.014 A 
HETATM    3  C   UNK N   1      21.675  12.093  11.430  0.00  0.00     0.001 A 
HETATM    4  C   UNK N   1      23.031  11.758  11.415  0.00  0.00     0.003 A 
HETATM    5  C   UNK N   1      23.875  12.312  10.452  0.00  0.00     0.037 A 
HETATM    6  C   UNK N   1      23.373  13.201   9.500  0.00  0.00     0.075 A 
ENDROOT
BRANCH   1   7
HETATM    7  C   UNK N   1      21.392  14.484   8.529  0.00  0.00     0.021 C 
HETATM    8  C   UNK N   1      20.735  15.585   8.909  0.00  0.00     0.082 C 
BRANCH   8   9
HETATM    9  C   UNK N   1      20.126  16.531   7.966  0.00  0.00     0.165 C 
HETATM   10  O   UNK N   1      20.618  17.629   7.769  0.00  0.00    -0.647 OA
BRANCH   9  11
HETATM   11  O   UNK N   1      19.004  16.172   7.312  0.00  0.00    -0.773 OA
HETATM   12  H   UNK N   1      18.217  16.001   7.790  0.00  0.00     0.167 HD
ENDBRANCH   9  11
ENDBRANCH   8   9
ENDBRANCH   1   7
BRANCH   6  13
HETATM   13  O   UNK N   1      24.218  13.714   8.588  0.00  0.00    -0.360 OA
HETATM   14  H   UNK N   1      23.930  14.395   8.012  0.00  0.00     0.217 HD
ENDBRANCH   6  13
TORSDOF 4
ENDMDL
