REMARK  4 active torsions:
REMARK  status: ('A' for Active; 'I' for Inactive)
REMARK    1  A    between atoms: C_1  and  C_2 
REMARK    2  A    between atoms: C_2  and  O_3 
REMARK    3  A    between atoms: C_5  and  C_6 
REMARK    4  A    between atoms: C_11  and  O_12 
ROOT
HETATM    1  C   UNK N   1      -0.208  -0.571  -0.000  0.00  0.00    -0.003 A 
HETATM    2  C   UNK N   1      -0.200  -1.972   0.000  0.00  0.00     0.014 A 
HETATM    3  C   UNK N   1      -1.400  -2.690   0.000  0.00  0.00     0.001 A 
HETATM    4  C   UNK N   1      -2.621  -2.013   0.000  0.00  0.00     0.003 A 
HETATM    5  C   UNK N   1      -2.645  -0.618   0.000  0.00  0.00     0.037 A 
HETATM    6  C   UNK N   1      -1.453   0.109  -0.000  0.00  0.00     0.075 A 
ENDROOT
BRANCH   1   7
HETATM    7  C   UNK N   1       1.099   0.133  -0.000  0.00  0.00     0.021 C 
HETATM    8  C   UNK N   1       1.189   1.467  -0.000  0.00  0.00     0.082 C 
BRANCH   8   9
HETATM    9  C   UNK N   1       2.466   2.193  -0.000  0.00  0.00     0.165 C 
HETATM   10  O   UNK N   1       3.529   1.597   0.000  0.00  0.00    -0.647 OA
BRANCH   9  11
HETATM   11  O   UNK N   1       2.452   3.540   0.000  0.00  0.00    -0.773 OA
HETATM   12  H   UNK N   1       3.258   4.017   0.000  0.00  0.00     0.167 HD
ENDBRANCH   9  11
ENDBRANCH   8   9
ENDBRANCH   1   7
BRANCH   6  13
HETATM   13  O   UNK N   1      -1.517   1.452  -0.000  0.00  0.00    -0.360 OA
HETATM   14  H   UNK N   1      -0.728   1.959  -0.000  0.00  0.00     0.217 HD
ENDBRANCH   6  13
TORSDOF 4
