MODEL 1
REMARK VINA RESULT:      -5.0      0.000      0.000
REMARK  6 active torsions:
REMARK  status: ('A' for Active; 'I' for Inactive)
REMARK    1  A    between atoms: C_4  and  O_9 
REMARK    2  A    between atoms: C_5  and  O_8 
REMARK    3  A    between atoms: C_6  and  C_7 
REMARK    4  A    between atoms: O_8  and  P_11 
REMARK    5  A    between atoms: P_11  and  O_12 
REMARK    6  A    between atoms: P_11  and  O_14 
ROOT
HETATM    1  C   UNK N   1      35.301  11.545  17.955  0.00  0.00     0.017 A 
HETATM    2  C   UNK N   1      35.036  10.234  17.577  0.00  0.00     0.004 A 
HETATM    3  C   UNK N   1      34.617   9.954  16.280  0.00  0.00     0.040 A 
HETATM    4  C   UNK N   1      34.460  10.975  15.334  0.00  0.00     0.103 A 
HETATM    5  C   UNK N   1      34.732  12.322  15.718  0.00  0.00     0.127 A 
HETATM    6  C   UNK N   1      35.155  12.596  17.045  0.00  0.00     0.038 A 
ENDROOT
BRANCH   5   7
HETATM    7  O   UNK N   1      34.628  13.330  14.819  0.00  0.00    -0.251 OA
BRANCH   7   8
HETATM    8  P   UNK N   1      35.878  13.710  13.700  0.00  0.00     0.396 P 
HETATM    9  O   UNK N   1      36.636  12.498  13.095  0.00  0.00    -0.631 OA
BRANCH   8  10
HETATM   10  O   UNK N   1      35.816  15.122  12.691  0.00  0.00    -0.307 OA
HETATM   11  H   UNK N   1      36.591  15.414  12.186  0.00  0.00     0.222 HD
ENDBRANCH   8  10
BRANCH   8  12
HETATM   12  O   UNK N   1      34.629  13.223  12.599  0.00  0.00    -0.307 OA
HETATM   13  H   UNK N   1      34.163  12.546  12.085  0.00  0.00     0.222 HD
ENDBRANCH   8  12
ENDBRANCH   7   8
ENDBRANCH   5   7
BRANCH   4  14
HETATM   14  O   UNK N   1      34.060  10.602  14.091  0.00  0.00    -0.353 OA
HETATM   15  C   UNK N   1      34.651   9.646  13.300  0.00  0.00     0.210 C 
ENDBRANCH   4  14
BRANCH   6  16
HETATM   16  C   UNK N   1      35.470  13.952  17.538  0.00  0.00     0.272 C 
HETATM   17  O   UNK N   1      35.326  14.271  18.706  0.00  0.00    -0.301 OA
ENDBRANCH   6  16
TORSDOF 6
ENDMDL
MODEL 2
REMARK VINA RESULT:      -4.9      2.129      2.716
REMARK  6 active torsions:
REMARK  status: ('A' for Active; 'I' for Inactive)
REMARK    1  A    between atoms: C_4  and  O_9 
REMARK    2  A    between atoms: C_5  and  O_8 
REMARK    3  A    between atoms: C_6  and  C_7 
REMARK    4  A    between atoms: O_8  and  P_11 
REMARK    5  A    between atoms: P_11  and  O_12 
REMARK    6  A    between atoms: P_11  and  O_14 
ROOT
HETATM    1  C   UNK N   1      35.837  13.410  16.296  0.00  0.00     0.017 A 
HETATM    2  C   UNK N   1      34.961  12.337  16.180  0.00  0.00     0.004 A 
HETATM    3  C   UNK N   1      34.559  11.899  14.921  0.00  0.00     0.040 A 
HETATM    4  C   UNK N   1      35.027  12.518  13.756  0.00  0.00     0.103 A 
HETATM    5  C   UNK N   1      35.927  13.618  13.871  0.00  0.00     0.127 A 
HETATM    6  C   UNK N   1      36.327  14.060  15.160  0.00  0.00     0.038 A 
ENDROOT
BRANCH   5   7
HETATM    7  O   UNK N   1      36.431  14.217  12.765  0.00  0.00    -0.251 OA
BRANCH   7   8
HETATM    8  P   UNK N   1      35.503  15.275  11.776  0.00  0.00     0.396 P 
HETATM    9  O   UNK N   1      36.303  16.099  10.732  0.00  0.00    -0.631 OA
BRANCH   8  10
HETATM   10  O   UNK N   1      33.859  14.928  11.342  0.00  0.00    -0.307 OA
HETATM   11  H   UNK N   1      33.117  15.262  11.871  0.00  0.00     0.222 HD
ENDBRANCH   8  10
BRANCH   8  12
HETATM   12  O   UNK N   1      35.769  13.976  10.657  0.00  0.00    -0.307 OA
HETATM   13  H   UNK N   1      35.713  13.591   9.769  0.00  0.00     0.222 HD
ENDBRANCH   8  12
ENDBRANCH   7   8
ENDBRANCH   5   7
BRANCH   4  14
HETATM   14  O   UNK N   1      34.589  12.011  12.575  0.00  0.00    -0.353 OA
HETATM   15  C   UNK N   1      34.968  10.815  12.014  0.00  0.00     0.210 C 
ENDBRANCH   4  14
BRANCH   6  16
HETATM   16  C   UNK N   1      37.260  15.181  15.386  0.00  0.00     0.272 C 
HETATM   17  O   UNK N   1      37.660  15.482  16.499  0.00  0.00    -0.301 OA
ENDBRANCH   6  16
TORSDOF 6
ENDMDL
MODEL 3
REMARK VINA RESULT:      -4.8      8.894     10.430
REMARK  6 active torsions:
REMARK  status: ('A' for Active; 'I' for Inactive)
REMARK    1  A    between atoms: C_4  and  O_9 
REMARK    2  A    between atoms: C_5  and  O_8 
REMARK    3  A    between atoms: C_6  and  C_7 
REMARK    4  A    between atoms: O_8  and  P_11 
REMARK    5  A    between atoms: P_11  and  O_12 
REMARK    6  A    between atoms: P_11  and  O_14 
ROOT
HETATM    1  C   UNK N   1      31.401  17.317   5.178  0.00  0.00     0.017 A 
HETATM    2  C   UNK N   1      30.024  17.382   5.351  0.00  0.00     0.004 A 
HETATM    3  C   UNK N   1      29.477  17.304   6.628  0.00  0.00     0.040 A 
HETATM    4  C   UNK N   1      30.293  17.165   7.757  0.00  0.00     0.103 A 
HETATM    5  C   UNK N   1      31.708  17.099   7.585  0.00  0.00     0.127 A 
HETATM    6  C   UNK N   1      32.254  17.175   6.276  0.00  0.00     0.038 A 
ENDROOT
BRANCH   5   7
HETATM    7  O   UNK N   1      32.531  17.004   8.657  0.00  0.00    -0.251 OA
BRANCH   7   8
HETATM    8  P   UNK N   1      33.056  15.495   9.295  0.00  0.00     0.396 P 
HETATM    9  O   UNK N   1      34.327  14.891   8.642  0.00  0.00    -0.631 OA
BRANCH   8  10
HETATM   10  O   UNK N   1      32.795  15.054  10.954  0.00  0.00    -0.307 OA
HETATM   11  H   UNK N   1      32.929  15.693  11.671  0.00  0.00     0.222 HD
ENDBRANCH   8  10
BRANCH   8  12
HETATM   12  O   UNK N   1      34.197  16.557  10.058  0.00  0.00    -0.307 OA
HETATM   13  H   UNK N   1      34.812  16.773  10.775  0.00  0.00     0.222 HD
ENDBRANCH   8  12
ENDBRANCH   7   8
ENDBRANCH   5   7
BRANCH   4  14
HETATM   14  O   UNK N   1      29.669  17.111   8.962  0.00  0.00    -0.353 OA
HETATM   15  C   UNK N   1      28.412  17.587   9.247  0.00  0.00     0.210 C 
ENDBRANCH   4  14
BRANCH   6  16
HETATM   16  C   UNK N   1      33.702  17.126   5.992  0.00  0.00     0.272 C 
HETATM   17  O   UNK N   1      34.487  17.931   6.465  0.00  0.00    -0.301 OA
ENDBRANCH   6  16
TORSDOF 6
ENDMDL
MODEL 4
REMARK VINA RESULT:      -4.8      0.861      3.449
REMARK  6 active torsions:
REMARK  status: ('A' for Active; 'I' for Inactive)
REMARK    1  A    between atoms: C_4  and  O_9 
REMARK    2  A    between atoms: C_5  and  O_8 
REMARK    3  A    between atoms: C_6  and  C_7 
REMARK    4  A    between atoms: O_8  and  P_11 
REMARK    5  A    between atoms: P_11  and  O_12 
REMARK    6  A    between atoms: P_11  and  O_14 
ROOT
HETATM    1  C   UNK N   1      34.484   9.960  16.008  0.00  0.00     0.017 A 
HETATM    2  C   UNK N   1      34.994  10.271  17.263  0.00  0.00     0.004 A 
HETATM    3  C   UNK N   1      35.406  11.570  17.545  0.00  0.00     0.040 A 
HETATM    4  C   UNK N   1      35.311  12.584  16.584  0.00  0.00     0.103 A 
HETATM    5  C   UNK N   1      34.787  12.270  15.296  0.00  0.00     0.127 A 
HETATM    6  C   UNK N   1      34.374  10.940  15.017  0.00  0.00     0.038 A 
ENDROOT
BRANCH   5   7
HETATM    7  O   UNK N   1      34.644  13.234  14.354  0.00  0.00    -0.251 OA
BRANCH   7   8
HETATM    8  P   UNK N   1      35.890  13.636  13.239  0.00  0.00     0.396 P 
HETATM    9  O   UNK N   1      36.183  12.577  12.142  0.00  0.00    -0.631 OA
BRANCH   8  10
HETATM   10  O   UNK N   1      36.235  15.277  12.793  0.00  0.00    -0.307 OA
HETATM   11  H   UNK N   1      36.757  15.857  13.371  0.00  0.00     0.222 HD
ENDBRANCH   8  10
BRANCH   8  12
HETATM   12  O   UNK N   1      34.495  13.968  12.262  0.00  0.00    -0.307 OA
HETATM   13  H   UNK N   1      34.084  14.214  11.420  0.00  0.00     0.222 HD
ENDBRANCH   8  12
ENDBRANCH   7   8
ENDBRANCH   5   7
BRANCH   4  14
HETATM   14  O   UNK N   1      35.726  13.823  16.958  0.00  0.00    -0.353 OA
HETATM   15  C   UNK N   1      35.413  14.464  18.132  0.00  0.00     0.210 C 
ENDBRANCH   4  14
BRANCH   6  16
HETATM   16  C   UNK N   1      33.809  10.514  13.721  0.00  0.00     0.272 C 
HETATM   17  O   UNK N   1      34.431   9.818  12.936  0.00  0.00    -0.301 OA
ENDBRANCH   6  16
TORSDOF 6
ENDMDL
MODEL 5
REMARK VINA RESULT:      -4.8     10.466     11.926
REMARK  6 active torsions:
REMARK  status: ('A' for Active; 'I' for Inactive)
REMARK    1  A    between atoms: C_4  and  O_9 
REMARK    2  A    between atoms: C_5  and  O_8 
REMARK    3  A    between atoms: C_6  and  C_7 
REMARK    4  A    between atoms: O_8  and  P_11 
REMARK    5  A    between atoms: P_11  and  O_12 
REMARK    6  A    between atoms: P_11  and  O_14 
ROOT
HETATM    1  C   UNK N   1      32.819  17.457   6.014  0.00  0.00     0.017 A 
HETATM    2  C   UNK N   1      32.477  17.417   4.667  0.00  0.00     0.004 A 
HETATM    3  C   UNK N   1      31.155  17.200   4.290  0.00  0.00     0.040 A 
HETATM    4  C   UNK N   1      30.149  17.025   5.247  0.00  0.00     0.103 A 
HETATM    5  C   UNK N   1      30.494  17.067   6.630  0.00  0.00     0.127 A 
HETATM    6  C   UNK N   1      31.847  17.284   7.004  0.00  0.00     0.038 A 
ENDROOT
BRANCH   5   7
HETATM    7  O   UNK N   1      29.541  16.940   7.584  0.00  0.00    -0.251 OA
BRANCH   7   8
HETATM    8  P   UNK N   1      28.581  18.263   8.122  0.00  0.00     0.396 P 
HETATM    9  O   UNK N   1      28.181  19.293   7.033  0.00  0.00    -0.631 OA
BRANCH   8  10
HETATM   10  O   UNK N   1      27.471  18.119   9.448  0.00  0.00    -0.307 OA
HETATM   11  H   UNK N   1      26.894  18.856   9.704  0.00  0.00     0.222 HD
ENDBRANCH   8  10
BRANCH   8  12
HETATM   12  O   UNK N   1      27.357  17.292   7.367  0.00  0.00    -0.307 OA
HETATM   13  H   UNK N   1      26.505  17.194   6.915  0.00  0.00     0.222 HD
ENDBRANCH   8  12
ENDBRANCH   7   8
ENDBRANCH   5   7
BRANCH   4  14
HETATM   14  O   UNK N   1      28.887  16.832   4.781  0.00  0.00    -0.353 OA
HETATM   15  C   UNK N   1      28.211  17.649   3.908  0.00  0.00     0.210 C 
ENDBRANCH   4  14
BRANCH   6  16
HETATM   16  C   UNK N   1      32.306  17.354   8.406  0.00  0.00     0.272 C 
HETATM   17  O   UNK N   1      33.447  17.663   8.703  0.00  0.00    -0.301 OA
ENDBRANCH   6  16
TORSDOF 6
ENDMDL
MODEL 6
REMARK VINA RESULT:      -4.8      1.798      2.642
REMARK  6 active torsions:
REMARK  status: ('A' for Active; 'I' for Inactive)
REMARK    1  A    between atoms: C_4  and  O_9 
REMARK    2  A    between atoms: C_5  and  O_8 
REMARK    3  A    between atoms: C_6  and  C_7 
REMARK    4  A    between atoms: O_8  and  P_11 
REMARK    5  A    between atoms: P_11  and  O_12 
REMARK    6  A    between atoms: P_11  and  O_14 
ROOT
HETATM    1  C   UNK N   1      36.078  14.738  17.662  0.00  0.00     0.017 A 
HETATM    2  C   UNK N   1      35.243  13.742  18.153  0.00  0.00     0.004 A 
HETATM    3  C   UNK N   1      34.938  12.636  17.365  0.00  0.00     0.040 A 
HETATM    4  C   UNK N   1      35.465  12.500  16.075  0.00  0.00     0.103 A 
HETATM    5  C   UNK N   1      36.324  13.519  15.568  0.00  0.00     0.127 A 
HETATM    6  C   UNK N   1      36.624  14.645  16.379  0.00  0.00     0.038 A 
ENDROOT
BRANCH   5   7
HETATM    7  O   UNK N   1      36.883  13.402  14.339  0.00  0.00    -0.251 OA
BRANCH   7   8
HETATM    8  P   UNK N   1      35.992  13.634  12.886  0.00  0.00     0.396 P 
HETATM    9  O   UNK N   1      36.836  13.786  11.593  0.00  0.00    -0.631 OA
BRANCH   8  10
HETATM   10  O   UNK N   1      34.406  12.965  12.660  0.00  0.00    -0.307 OA
HETATM   11  H   UNK N   1      33.715  13.457  12.188  0.00  0.00     0.222 HD
ENDBRANCH   8  10
BRANCH   8  12
HETATM   12  O   UNK N   1      36.407  11.957  12.720  0.00  0.00    -0.307 OA
HETATM   13  H   UNK N   1      36.656  11.099  13.097  0.00  0.00     0.222 HD
ENDBRANCH   8  12
ENDBRANCH   7   8
ENDBRANCH   5   7
BRANCH   4  14
HETATM   14  O   UNK N   1      35.121  11.380  15.388  0.00  0.00    -0.353 OA
HETATM   15  C   UNK N   1      35.550  10.102  15.651  0.00  0.00     0.210 C 
ENDBRANCH   4  14
BRANCH   6  16
HETATM   16  C   UNK N   1      37.509  15.748  15.951  0.00  0.00     0.272 C 
HETATM   17  O   UNK N   1      37.325  16.902  16.298  0.00  0.00    -0.301 OA
ENDBRANCH   6  16
TORSDOF 6
ENDMDL
MODEL 7
REMARK VINA RESULT:      -4.8     18.448     19.805
REMARK  6 active torsions:
REMARK  status: ('A' for Active; 'I' for Inactive)
REMARK    1  A    between atoms: C_4  and  O_9 
REMARK    2  A    between atoms: C_5  and  O_8 
REMARK    3  A    between atoms: C_6  and  C_7 
REMARK    4  A    between atoms: O_8  and  P_11 
REMARK    5  A    between atoms: P_11  and  O_12 
REMARK    6  A    between atoms: P_11  and  O_14 
ROOT
HETATM    1  C   UNK N   1      23.304  20.723   2.777  0.00  0.00     0.017 A 
HETATM    2  C   UNK N   1      24.279  20.148   3.583  0.00  0.00     0.004 A 
HETATM    3  C   UNK N   1      24.042  18.922   4.198  0.00  0.00     0.040 A 
HETATM    4  C   UNK N   1      22.831  18.245   4.017  0.00  0.00     0.103 A 
HETATM    5  C   UNK N   1      21.827  18.830   3.189  0.00  0.00     0.127 A 
HETATM    6  C   UNK N   1      22.078  20.083   2.570  0.00  0.00     0.038 A 
ENDROOT
BRANCH   5   7
HETATM    7  O   UNK N   1      20.658  18.185   2.960  0.00  0.00    -0.251 OA
BRANCH   7   8
HETATM    8  P   UNK N   1      20.426  17.129   1.622  0.00  0.00     0.396 P 
HETATM    9  O   UNK N   1      19.636  15.827   1.918  0.00  0.00    -0.631 OA
BRANCH   8  10
HETATM   10  O   UNK N   1      20.300  17.716  -0.007  0.00  0.00    -0.307 OA
HETATM   11  H   UNK N   1      19.636  17.362  -0.620  0.00  0.00     0.222 HD
ENDBRANCH   8  10
BRANCH   8  12
HETATM   12  O   UNK N   1      18.855  17.862   1.701  0.00  0.00    -0.307 OA
HETATM   13  H   UNK N   1      18.026  18.052   2.167  0.00  0.00     0.222 HD
ENDBRANCH   8  12
ENDBRANCH   7   8
ENDBRANCH   5   7
BRANCH   4  14
HETATM   14  O   UNK N   1      22.697  17.049   4.647  0.00  0.00    -0.353 OA
HETATM   15  C   UNK N   1      23.502  15.948   4.479  0.00  0.00     0.210 C 
ENDBRANCH   4  14
BRANCH   6  16
HETATM   16  C   UNK N   1      21.111  20.768   1.689  0.00  0.00     0.272 C 
HETATM   17  O   UNK N   1      21.159  20.678   0.474  0.00  0.00    -0.301 OA
ENDBRANCH   6  16
TORSDOF 6
ENDMDL
MODEL 8
REMARK VINA RESULT:      -4.7     17.580     18.890
REMARK  6 active torsions:
REMARK  status: ('A' for Active; 'I' for Inactive)
REMARK    1  A    between atoms: C_4  and  O_9 
REMARK    2  A    between atoms: C_5  and  O_8 
REMARK    3  A    between atoms: C_6  and  C_7 
REMARK    4  A    between atoms: O_8  and  P_11 
REMARK    5  A    between atoms: P_11  and  O_12 
REMARK    6  A    between atoms: P_11  and  O_14 
ROOT
HETATM    1  C   UNK N   1      41.773  20.354   2.558  0.00  0.00     0.017 A 
HETATM    2  C   UNK N   1      40.602  20.738   1.915  0.00  0.00     0.004 A 
HETATM    3  C   UNK N   1      40.381  22.078   1.610  0.00  0.00     0.040 A 
HETATM    4  C   UNK N   1      41.326  23.059   1.934  0.00  0.00     0.103 A 
HETATM    5  C   UNK N   1      42.530  22.669   2.592  0.00  0.00     0.127 A 
HETATM    6  C   UNK N   1      42.742  21.300   2.903  0.00  0.00     0.038 A 
ENDROOT
BRANCH   5   7
HETATM    7  O   UNK N   1      43.484  23.585   2.886  0.00  0.00    -0.251 OA
BRANCH   7   8
HETATM    8  P   UNK N   1      44.649  24.116   1.738  0.00  0.00     0.396 P 
HETATM    9  O   UNK N   1      45.229  25.536   1.971  0.00  0.00    -0.631 OA
BRANCH   8  10
HETATM   10  O   UNK N   1      45.707  23.010   0.917  0.00  0.00    -0.307 OA
HETATM   11  H   UNK N   1      46.484  22.635   1.360  0.00  0.00     0.222 HD
ENDBRANCH   8  10
BRANCH   8  12
HETATM   12  O   UNK N   1      45.697  23.690   3.053  0.00  0.00    -0.307 OA
HETATM   13  H   UNK N   1      46.397  23.905   3.690  0.00  0.00     0.222 HD
ENDBRANCH   8  12
ENDBRANCH   7   8
ENDBRANCH   5   7
BRANCH   4  14
HETATM   14  O   UNK N   1      41.028  24.337   1.584  0.00  0.00    -0.353 OA
HETATM   15  C   UNK N   1      40.690  24.776   0.326  0.00  0.00     0.210 C 
ENDBRANCH   4  14
BRANCH   6  16
HETATM   16  C   UNK N   1      43.957  20.793   3.573  0.00  0.00     0.272 C 
HETATM   17  O   UNK N   1      45.035  20.730   3.007  0.00  0.00    -0.301 OA
ENDBRANCH   6  16
TORSDOF 6
ENDMDL
MODEL 9
REMARK VINA RESULT:      -4.7     10.551     12.294
REMARK  6 active torsions:
REMARK  status: ('A' for Active; 'I' for Inactive)
REMARK    1  A    between atoms: C_4  and  O_9 
REMARK    2  A    between atoms: C_5  and  O_8 
REMARK    3  A    between atoms: C_6  and  C_7 
REMARK    4  A    between atoms: O_8  and  P_11 
REMARK    5  A    between atoms: P_11  and  O_12 
REMARK    6  A    between atoms: P_11  and  O_14 
ROOT
HETATM    1  C   UNK N   1      31.393  17.477   4.166  0.00  0.00     0.017 A 
HETATM    2  C   UNK N   1      32.661  17.486   4.735  0.00  0.00     0.004 A 
HETATM    3  C   UNK N   1      32.808  17.340   6.111  0.00  0.00     0.040 A 
HETATM    4  C   UNK N   1      31.695  17.176   6.945  0.00  0.00     0.103 A 
HETATM    5  C   UNK N   1      30.392  17.165   6.365  0.00  0.00     0.127 A 
HETATM    6  C   UNK N   1      30.253  17.319   4.960  0.00  0.00     0.038 A 
ENDROOT
BRANCH   5   7
HETATM    7  O   UNK N   1      29.295  16.970   7.135  0.00  0.00    -0.251 OA
BRANCH   7   8
HETATM    8  P   UNK N   1      28.545  18.238   8.023  0.00  0.00     0.396 P 
HETATM    9  O   UNK N   1      28.239  19.532   7.224  0.00  0.00    -0.631 OA
BRANCH   8  10
HETATM   10  O   UNK N   1      27.484  17.925   9.361  0.00  0.00    -0.307 OA
HETATM   11  H   UNK N   1      27.387  18.563  10.086  0.00  0.00     0.222 HD
ENDBRANCH   8  10
BRANCH   8  12
HETATM   12  O   UNK N   1      27.171  17.621   7.163  0.00  0.00    -0.307 OA
HETATM   13  H   UNK N   1      26.577  17.616   6.396  0.00  0.00     0.222 HD
ENDBRANCH   8  12
ENDBRANCH   7   8
ENDBRANCH   5   7
BRANCH   4  14
HETATM   14  O   UNK N   1      31.941  17.028   8.272  0.00  0.00    -0.353 OA
HETATM   15  C   UNK N   1      32.170  15.843   8.928  0.00  0.00     0.210 C 
ENDBRANCH   4  14
BRANCH   6  16
HETATM   16  C   UNK N   1      28.952  17.311   4.262  0.00  0.00     0.272 C 
HETATM   17  O   UNK N   1      28.209  18.278   4.258  0.00  0.00    -0.301 OA
ENDBRANCH   6  16
TORSDOF 6
ENDMDL
