REMARK  5 active torsions:
REMARK  status: ('A' for Active; 'I' for Inactive)
REMARK    1  A    between atoms: C_3  and  N_4 
REMARK    2  A    between atoms: C_3  and  C_5 
REMARK    3  A    between atoms: C_10  and  C_15 
REMARK       I    between atoms: C_15  and  N_17 
REMARK    4  A    between atoms: N_17  and  C_18 
REMARK    5  A    between atoms: C_27  and  C_28 
ROOT
HETATM    1  C   UNK N   1      -1.268   1.999  -0.024  0.00  0.00     0.256 C 
HETATM    2  O   UNK N   1      -1.408   3.214   0.017  0.00  0.00    -0.267 OA
HETATM    3  N   UNK N   1      -0.046   1.425  -0.073  0.00  0.00    -0.323 N 
HETATM    4  H   UNK N   1      -0.076   0.443  -0.132  0.00  0.00     0.169 HD
ENDROOT
BRANCH   1   5
HETATM    5  C   UNK N   1      -2.418   1.073  -0.015  0.00  0.00     0.033 A 
HETATM    6  C   UNK N   1      -3.760   1.483   0.009  0.00  0.00     0.018 A 
HETATM    7  C   UNK N   1      -4.785   0.516   0.017  0.00  0.00     0.013 A 
HETATM    8  C   UNK N   1      -4.465  -0.854   0.006  0.00  0.00    -0.025 A 
HETATM    9  C   UNK N   1      -5.465  -1.835   0.013  0.00  0.00     0.027 A 
HETATM   10  C   UNK N   1      -3.115  -1.250  -0.013  0.00  0.00    -0.025 A 
HETATM   11  C   UNK N   1      -5.115  -3.201   0.003  0.00  0.00     0.008 A 
HETATM   12  C   UNK N   1      -3.763  -3.570  -0.013  0.00  0.00     0.016 A 
HETATM   13  C   UNK N   1      -2.768  -2.598  -0.021  0.00  0.00     0.013 A 
HETATM   14  C   UNK N   1      -2.120  -0.296  -0.024  0.00  0.00     0.029 A 
BRANCH  11  15
HETATM   15  C   UNK N   1      -6.159  -4.246   0.006  0.00  0.00     0.102 C 
HETATM   16  N   UNK N   1      -5.833  -5.488  -0.002  0.00  0.00    -0.385 N 
HETATM   17  H   UNK N   1      -6.532  -6.181  -0.008  0.00  0.00     0.157 HD
ATOM     18  HN  UNK N   1      -4.849  -5.757  -0.002  1.00  0.00     0.157 HD
BRANCH  15  19
HETATM   19  N   UNK N   1      -7.525  -3.889   0.014  0.00  0.00    -0.385 N 
HETATM   20  H   UNK N   1      -7.785  -2.939   0.019  0.00  0.00     0.157 HD
HETATM   21  H   UNK N   1      -8.217  -4.589   0.014  0.00  0.00     0.157 HD
ENDBRANCH  15  19
ENDBRANCH  11  15
ENDBRANCH   1   5
BRANCH   3  22
HETATM   22  C   UNK N   1       1.261   1.944  -0.058  0.00  0.00     0.035 A 
HETATM   23  C   UNK N   1       2.276   1.007  -0.123  0.00  0.00     0.039 A 
HETATM   24  C   UNK N   1       3.613   1.362  -0.063  0.00  0.00    -0.027 A 
HETATM   25  C   UNK N   1       3.947   2.727   0.055  0.00  0.00    -0.048 A 
HETATM   26  C   UNK N   1       4.695   0.291  -0.122  0.00  0.00     0.113 C 
HETATM   27  C   UNK N   1       2.924   3.693   0.115  0.00  0.00     0.010 A 
HETATM   28  C   UNK N   1       5.384   3.160   0.133  0.00  0.00     0.058 C 
HETATM   29  C   UNK N   1       1.573   3.304   0.063  0.00  0.00     0.030 A 
HETATM   30  C   UNK N   1       6.360   2.002  -0.094  0.00  0.00     0.119 C 
HETATM   31  N   UNK N   1       5.891   0.787   0.569  0.00  0.00    -0.412 N 
HETATM   32  H   UNK N   1       6.325   0.353   1.383  0.00  0.00     0.153 HD
BRANCH  26  33
HETATM   33  C   UNK N   1       4.268  -1.060   0.515  0.00  0.00     0.004 C 
HETATM   34  C   UNK N   1       5.422  -2.047   0.541  0.00  0.00     0.012 C 
HETATM   35  C   UNK N   1       3.129  -1.736  -0.240  0.00  0.00     0.012 C 
ENDBRANCH  26  33
ENDBRANCH   3  22
TORSDOF 5
