MODEL 1
REMARK VINA RESULT:      -8.3      0.000      0.000
REMARK  5 active torsions:
REMARK  status: ('A' for Active; 'I' for Inactive)
REMARK    1  A    between atoms: C_3  and  N_4 
REMARK    2  A    between atoms: C_3  and  C_5 
REMARK    3  A    between atoms: C_10  and  C_15 
REMARK       I    between atoms: C_15  and  N_17 
REMARK    4  A    between atoms: N_17  and  C_18 
REMARK    5  A    between atoms: C_27  and  C_28 
ROOT
HETATM    1  C   UNK N   1      27.454  19.505   4.610  0.00  0.00     0.256 C 
HETATM    2  O   UNK N   1      28.069  20.523   4.902  0.00  0.00    -0.267 OA
HETATM    3  N   UNK N   1      28.021  18.282   4.698  0.00  0.00    -0.323 N 
HETATM    4  H   UNK N   1      27.428  17.553   4.406  0.00  0.00     0.169 HD
ENDROOT
BRANCH   1   5
HETATM    5  C   UNK N   1      26.052  19.537   4.150  0.00  0.00     0.033 A 
HETATM    6  C   UNK N   1      25.520  20.528   3.310  0.00  0.00     0.018 A 
HETATM    7  C   UNK N   1      24.164  20.466   2.929  0.00  0.00     0.013 A 
HETATM    8  C   UNK N   1      23.347  19.419   3.393  0.00  0.00    -0.025 A 
HETATM    9  C   UNK N   1      21.996  19.335   3.029  0.00  0.00     0.027 A 
HETATM   10  C   UNK N   1      23.892  18.436   4.238  0.00  0.00    -0.025 A 
HETATM   11  C   UNK N   1      21.200  18.275   3.510  0.00  0.00     0.008 A 
HETATM   12  C   UNK N   1      21.766  17.310   4.353  0.00  0.00     0.016 A 
HETATM   13  C   UNK N   1      23.107  17.390   4.715  0.00  0.00     0.013 A 
HETATM   14  C   UNK N   1      25.220  18.504   4.602  0.00  0.00     0.029 A 
BRANCH  11  15
HETATM   15  C   UNK N   1      19.776  18.171   3.131  0.00  0.00     0.102 C 
HETATM   16  N   UNK N   1      19.105  17.114   3.414  0.00  0.00    -0.385 N 
HETATM   17  H   UNK N   1      18.159  17.045   3.153  0.00  0.00     0.157 HD
ATOM     18  HN  UNK N   1      19.553  16.343   3.911  1.00  0.00     0.157 HD
BRANCH  15  19
HETATM   19  N   UNK N   1      19.140  19.232   2.450  0.00  0.00    -0.385 N 
HETATM   20  H   UNK N   1      19.216  19.305   1.471  0.00  0.00     0.157 HD
HETATM   21  H   UNK N   1      18.620  19.899   2.954  0.00  0.00     0.157 HD
ENDBRANCH  15  19
ENDBRANCH  11  15
ENDBRANCH   1   5
BRANCH   3  22
HETATM   22  C   UNK N   1      29.286  17.837   5.121  0.00  0.00     0.035 A 
HETATM   23  C   UNK N   1      29.371  17.450   6.445  0.00  0.00     0.039 A 
HETATM   24  C   UNK N   1      30.563  17.041   7.020  0.00  0.00    -0.027 A 
HETATM   25  C   UNK N   1      31.724  17.007   6.220  0.00  0.00    -0.048 A 
HETATM   26  C   UNK N   1      30.609  16.639   8.489  0.00  0.00     0.113 C 
HETATM   27  C   UNK N   1      31.651  17.392   4.868  0.00  0.00     0.010 A 
HETATM   28  C   UNK N   1      33.042  16.579   6.802  0.00  0.00     0.058 C 
HETATM   29  C   UNK N   1      30.430  17.814   4.312  0.00  0.00     0.030 A 
HETATM   30  C   UNK N   1      32.910  16.057   8.235  0.00  0.00     0.119 C 
HETATM   31  N   UNK N   1      31.965  16.868   9.000  0.00  0.00    -0.412 N 
HETATM   32  H   UNK N   1      32.209  17.493   9.767  0.00  0.00     0.153 HD
BRANCH  26  33
HETATM   33  C   UNK N   1      29.597  17.414   9.377  0.00  0.00     0.004 C 
HETATM   34  C   UNK N   1      30.073  18.829   9.650  0.00  0.00     0.012 C 
HETATM   35  C   UNK N   1      29.376  16.755  10.734  0.00  0.00     0.012 C 
ENDBRANCH  26  33
ENDBRANCH   3  22
TORSDOF 5
ENDMDL
MODEL 2
REMARK VINA RESULT:      -8.3      1.832      9.667
REMARK  5 active torsions:
REMARK  status: ('A' for Active; 'I' for Inactive)
REMARK    1  A    between atoms: C_3  and  N_4 
REMARK    2  A    between atoms: C_3  and  C_5 
REMARK    3  A    between atoms: C_10  and  C_15 
REMARK       I    between atoms: C_15  and  N_17 
REMARK    4  A    between atoms: N_17  and  C_18 
REMARK    5  A    between atoms: C_27  and  C_28 
ROOT
HETATM    1  C   UNK N   1      29.004  17.690   4.091  0.00  0.00     0.256 C 
HETATM    2  O   UNK N   1      28.651  16.941   3.190  0.00  0.00    -0.267 OA
HETATM    3  N   UNK N   1      28.244  18.736   4.485  0.00  0.00    -0.323 N 
HETATM    4  H   UNK N   1      28.657  19.274   5.198  0.00  0.00     0.169 HD
ENDROOT
BRANCH   1   5
HETATM    5  C   UNK N   1      30.276  17.505   4.817  0.00  0.00     0.033 A 
HETATM    6  C   UNK N   1      31.544  17.666   4.238  0.00  0.00     0.018 A 
HETATM    7  C   UNK N   1      32.699  17.464   5.020  0.00  0.00     0.013 A 
HETATM    8  C   UNK N   1      32.582  17.098   6.373  0.00  0.00    -0.025 A 
HETATM    9  C   UNK N   1      33.713  16.892   7.172  0.00  0.00     0.027 A 
HETATM   10  C   UNK N   1      31.303  16.936   6.938  0.00  0.00    -0.025 A 
HETATM   11  C   UNK N   1      33.566  16.524   8.526  0.00  0.00     0.008 A 
HETATM   12  C   UNK N   1      32.282  16.366   9.065  0.00  0.00     0.016 A 
HETATM   13  C   UNK N   1      31.156  16.572   8.274  0.00  0.00     0.013 A 
HETATM   14  C   UNK N   1      30.180  17.139   6.166  0.00  0.00     0.029 A 
BRANCH  11  15
HETATM   15  C   UNK N   1      34.750  16.308   9.381  0.00  0.00     0.102 C 
HETATM   16  N   UNK N   1      35.563  15.345   9.131  0.00  0.00    -0.385 N 
HETATM   17  H   UNK N   1      36.347  15.200   9.709  0.00  0.00     0.157 HD
ATOM     18  HN  UNK N   1      35.396  14.731   8.334  1.00  0.00     0.157 HD
BRANCH  15  19
HETATM   19  N   UNK N   1      34.999  17.155  10.483  0.00  0.00    -0.385 N 
HETATM   20  H   UNK N   1      35.678  17.865  10.414  0.00  0.00     0.157 HD
HETATM   21  H   UNK N   1      34.493  17.037  11.319  0.00  0.00     0.157 HD
ENDBRANCH  15  19
ENDBRANCH  11  15
ENDBRANCH   1   5
BRANCH   3  22
HETATM   22  C   UNK N   1      26.983  19.213   4.084  0.00  0.00     0.035 A 
HETATM   23  C   UNK N   1      25.897  18.498   4.555  0.00  0.00     0.039 A 
HETATM   24  C   UNK N   1      24.596  18.814   4.201  0.00  0.00    -0.027 A 
HETATM   25  C   UNK N   1      24.375  19.910   3.343  0.00  0.00    -0.048 A 
HETATM   26  C   UNK N   1      23.433  17.985   4.733  0.00  0.00     0.113 C 
HETATM   27  C   UNK N   1      25.471  20.652   2.861  0.00  0.00     0.010 A 
HETATM   28  C   UNK N   1      22.981  20.286   2.924  0.00  0.00     0.058 C 
HETATM   29  C   UNK N   1      26.783  20.303   3.228  0.00  0.00     0.030 A 
HETATM   30  C   UNK N   1      21.909  19.471   3.652  0.00  0.00     0.119 C 
HETATM   31  N   UNK N   1      22.316  18.074   3.786  0.00  0.00    -0.412 N 
HETATM   32  H   UNK N   1      21.892  17.286   3.297  0.00  0.00     0.153 HD
BRANCH  26  33
HETATM   33  C   UNK N   1      23.787  16.489   4.957  0.00  0.00     0.004 C 
HETATM   34  C   UNK N   1      23.398  15.644   3.757  0.00  0.00     0.012 C 
HETATM   35  C   UNK N   1      23.078  15.888   6.165  0.00  0.00     0.012 C 
ENDBRANCH  26  33
ENDBRANCH   3  22
TORSDOF 5
ENDMDL
MODEL 3
REMARK VINA RESULT:      -8.3      1.531      9.835
REMARK  5 active torsions:
REMARK  status: ('A' for Active; 'I' for Inactive)
REMARK    1  A    between atoms: C_3  and  N_4 
REMARK    2  A    between atoms: C_3  and  C_5 
REMARK    3  A    between atoms: C_10  and  C_15 
REMARK       I    between atoms: C_15  and  N_17 
REMARK    4  A    between atoms: N_17  and  C_18 
REMARK    5  A    between atoms: C_27  and  C_28 
ROOT
HETATM    1  C   UNK N   1      27.756  17.950   4.685  0.00  0.00     0.256 C 
HETATM    2  O   UNK N   1      27.778  17.426   3.579  0.00  0.00    -0.267 OA
HETATM    3  N   UNK N   1      26.787  18.822   5.040  0.00  0.00    -0.323 N 
HETATM    4  H   UNK N   1      26.904  19.191   5.945  0.00  0.00     0.169 HD
ENDROOT
BRANCH   1   5
HETATM    5  C   UNK N   1      28.778  17.665   5.712  0.00  0.00     0.033 A 
HETATM    6  C   UNK N   1      28.505  17.540   7.082  0.00  0.00     0.018 A 
HETATM    7  C   UNK N   1      29.555  17.268   7.982  0.00  0.00     0.013 A 
HETATM    8  C   UNK N   1      30.873  17.127   7.508  0.00  0.00    -0.025 A 
HETATM    9  C   UNK N   1      31.934  16.856   8.381  0.00  0.00     0.027 A 
HETATM   10  C   UNK N   1      31.132  17.261   6.132  0.00  0.00    -0.025 A 
HETATM   11  C   UNK N   1      33.245  16.722   7.879  0.00  0.00     0.008 A 
HETATM   12  C   UNK N   1      33.479  16.862   6.504  0.00  0.00     0.016 A 
HETATM   13  C   UNK N   1      32.426  17.130   5.635  0.00  0.00     0.013 A 
HETATM   14  C   UNK N   1      30.097  17.524   5.261  0.00  0.00     0.029 A 
BRANCH  11  15
HETATM   15  C   UNK N   1      34.373  16.431   8.787  0.00  0.00     0.102 C 
HETATM   16  N   UNK N   1      35.178  15.463   8.533  0.00  0.00    -0.385 N 
HETATM   17  H   UNK N   1      35.924  15.269   9.145  0.00  0.00     0.157 HD
ATOM     18  HN  UNK N   1      35.044  14.896   7.696  1.00  0.00     0.157 HD
BRANCH  15  19
HETATM   19  N   UNK N   1      34.576  17.213   9.945  0.00  0.00    -0.385 N 
HETATM   20  H   UNK N   1      34.753  16.776  10.810  0.00  0.00     0.157 HD
HETATM   21  H   UNK N   1      34.541  18.196   9.889  0.00  0.00     0.157 HD
ENDBRANCH  15  19
ENDBRANCH  11  15
ENDBRANCH   1   5
BRANCH   3  22
HETATM   22  C   UNK N   1      25.645  19.310   4.381  0.00  0.00     0.035 A 
HETATM   23  C   UNK N   1      24.444  18.745   4.769  0.00  0.00     0.039 A 
HETATM   24  C   UNK N   1      23.241  19.084   4.173  0.00  0.00    -0.027 A 
HETATM   25  C   UNK N   1      23.243  20.048   3.144  0.00  0.00    -0.048 A 
HETATM   26  C   UNK N   1      21.946  18.421   4.625  0.00  0.00     0.113 C 
HETATM   27  C   UNK N   1      24.458  20.637   2.742  0.00  0.00     0.010 A 
HETATM   28  C   UNK N   1      21.964  20.441   2.460  0.00  0.00     0.058 C 
HETATM   29  C   UNK N   1      25.667  20.266   3.358  0.00  0.00     0.030 A 
HETATM   30  C   UNK N   1      20.730  19.816   3.117  0.00  0.00     0.119 C 
HETATM   31  N   UNK N   1      20.993  18.433   3.509  0.00  0.00    -0.412 N 
HETATM   32  H   UNK N   1      20.580  17.608   3.076  0.00  0.00     0.153 HD
BRANCH  26  33
HETATM   33  C   UNK N   1      22.134  16.957   5.112  0.00  0.00     0.004 C 
HETATM   34  C   UNK N   1      21.401  15.978   4.211  0.00  0.00     0.012 C 
HETATM   35  C   UNK N   1      21.608  16.732   6.525  0.00  0.00     0.012 C 
ENDBRANCH  26  33
ENDBRANCH   3  22
TORSDOF 5
ENDMDL
MODEL 4
REMARK VINA RESULT:      -8.1      1.588      9.600
REMARK  5 active torsions:
REMARK  status: ('A' for Active; 'I' for Inactive)
REMARK    1  A    between atoms: C_3  and  N_4 
REMARK    2  A    between atoms: C_3  and  C_5 
REMARK    3  A    between atoms: C_10  and  C_15 
REMARK       I    between atoms: C_15  and  N_17 
REMARK    4  A    between atoms: N_17  and  C_18 
REMARK    5  A    between atoms: C_27  and  C_28 
ROOT
HETATM    1  C   UNK N   1      27.413  17.519   3.931  0.00  0.00     0.256 C 
HETATM    2  O   UNK N   1      26.899  16.649   3.241  0.00  0.00    -0.267 OA
HETATM    3  N   UNK N   1      26.802  18.703   4.154  0.00  0.00    -0.323 N 
HETATM    4  H   UNK N   1      27.336  19.323   4.701  0.00  0.00     0.169 HD
ENDROOT
BRANCH   1   5
HETATM    5  C   UNK N   1      28.729  17.339   4.575  0.00  0.00     0.033 A 
HETATM    6  C   UNK N   1      29.871  16.859   3.914  0.00  0.00     0.018 A 
HETATM    7  C   UNK N   1      31.081  16.723   4.623  0.00  0.00     0.013 A 
HETATM    8  C   UNK N   1      31.144  17.061   5.987  0.00  0.00    -0.025 A 
HETATM    9  C   UNK N   1      32.335  16.935   6.714  0.00  0.00     0.027 A 
HETATM   10  C   UNK N   1      29.990  17.535   6.637  0.00  0.00    -0.025 A 
HETATM   11  C   UNK N   1      32.369  17.280   8.081  0.00  0.00     0.008 A 
HETATM   12  C   UNK N   1      31.205  17.748   8.707  0.00  0.00     0.016 A 
HETATM   13  C   UNK N   1      30.022  17.875   7.987  0.00  0.00     0.013 A 
HETATM   14  C   UNK N   1      28.812  17.668   5.934  0.00  0.00     0.029 A 
BRANCH  11  15
HETATM   15  C   UNK N   1      33.619  17.156   8.858  0.00  0.00     0.102 C 
HETATM   16  N   UNK N   1      34.579  17.989   8.678  0.00  0.00    -0.385 N 
HETATM   17  H   UNK N   1      35.414  17.898   9.193  0.00  0.00     0.157 HD
ATOM     18  HN  UNK N   1      34.478  18.746   8.002  1.00  0.00     0.157 HD
BRANCH  15  19
HETATM   19  N   UNK N   1      33.770  16.119   9.804  0.00  0.00    -0.385 N 
HETATM   20  H   UNK N   1      34.621  16.016  10.289  0.00  0.00     0.157 HD
HETATM   21  H   UNK N   1      33.026  15.499   9.979  0.00  0.00     0.157 HD
ENDBRANCH  15  19
ENDBRANCH  11  15
ENDBRANCH   1   5
BRANCH   3  22
HETATM   22  C   UNK N   1      25.559  19.232   3.764  0.00  0.00     0.035 A 
HETATM   23  C   UNK N   1      24.448  18.598   4.291  0.00  0.00     0.039 A 
HETATM   24  C   UNK N   1      23.157  18.970   3.956  0.00  0.00    -0.027 A 
HETATM   25  C   UNK N   1      22.973  20.041   3.057  0.00  0.00    -0.048 A 
HETATM   26  C   UNK N   1      21.966  18.230   4.551  0.00  0.00     0.113 C 
HETATM   27  C   UNK N   1      24.094  20.700   2.518  0.00  0.00     0.010 A 
HETATM   28  C   UNK N   1      21.591  20.475   2.656  0.00  0.00     0.058 C 
HETATM   29  C   UNK N   1      25.395  20.295   2.867  0.00  0.00     0.030 A 
HETATM   30  C   UNK N   1      20.496  19.751   3.445  0.00  0.00     0.119 C 
HETATM   31  N   UNK N   1      20.830  18.340   3.628  0.00  0.00    -0.412 N 
HETATM   32  H   UNK N   1      20.352  17.557   3.185  0.00  0.00     0.153 HD
BRANCH  26  33
HETATM   33  C   UNK N   1      22.245  16.727   4.831  0.00  0.00     0.004 C 
HETATM   34  C   UNK N   1      22.035  15.885   3.584  0.00  0.00     0.012 C 
HETATM   35  C   UNK N   1      21.336  16.148   5.909  0.00  0.00     0.012 C 
ENDBRANCH  26  33
ENDBRANCH   3  22
TORSDOF 5
ENDMDL
MODEL 5
REMARK VINA RESULT:      -8.0      1.132      2.778
REMARK  5 active torsions:
REMARK  status: ('A' for Active; 'I' for Inactive)
REMARK    1  A    between atoms: C_3  and  N_4 
REMARK    2  A    between atoms: C_3  and  C_5 
REMARK    3  A    between atoms: C_10  and  C_15 
REMARK       I    between atoms: C_15  and  N_17 
REMARK    4  A    between atoms: N_17  and  C_18 
REMARK    5  A    between atoms: C_27  and  C_28 
ROOT
HETATM    1  C   UNK N   1      27.385  19.487   5.100  0.00  0.00     0.256 C 
HETATM    2  O   UNK N   1      28.183  20.394   4.904  0.00  0.00    -0.267 OA
HETATM    3  N   UNK N   1      27.703  18.409   5.850  0.00  0.00    -0.323 N 
HETATM    4  H   UNK N   1      26.982  17.742   5.903  0.00  0.00     0.169 HD
ENDROOT
BRANCH   1   5
HETATM    5  C   UNK N   1      26.019  19.506   4.540  0.00  0.00     0.033 A 
HETATM    6  C   UNK N   1      25.562  20.450   3.608  0.00  0.00     0.018 A 
HETATM    7  C   UNK N   1      24.236  20.379   3.136  0.00  0.00     0.013 A 
HETATM    8  C   UNK N   1      23.372  19.371   3.602  0.00  0.00    -0.025 A 
HETATM    9  C   UNK N   1      22.050  19.279   3.149  0.00  0.00     0.027 A 
HETATM   10  C   UNK N   1      23.843  18.435   4.541  0.00  0.00    -0.025 A 
HETATM   11  C   UNK N   1      21.206  18.259   3.635  0.00  0.00     0.008 A 
HETATM   12  C   UNK N   1      21.697  17.340   4.572  0.00  0.00     0.016 A 
HETATM   13  C   UNK N   1      23.010  17.429   5.023  0.00  0.00     0.013 A 
HETATM   14  C   UNK N   1      25.143  18.511   4.993  0.00  0.00     0.029 A 
BRANCH  11  15
HETATM   15  C   UNK N   1      19.811  18.148   3.162  0.00  0.00     0.102 C 
HETATM   16  N   UNK N   1      19.147  17.064   3.350  0.00  0.00    -0.385 N 
HETATM   17  H   UNK N   1      18.221  16.991   3.027  0.00  0.00     0.157 HD
ATOM     18  HN  UNK N   1      19.581  16.278   3.835  1.00  0.00     0.157 HD
BRANCH  15  19
HETATM   19  N   UNK N   1      19.194  19.230   2.497  0.00  0.00    -0.385 N 
HETATM   20  H   UNK N   1      18.214  19.320   2.509  0.00  0.00     0.157 HD
HETATM   21  H   UNK N   1      19.745  19.894   2.023  0.00  0.00     0.157 HD
ENDBRANCH  15  19
ENDBRANCH  11  15
ENDBRANCH   1   5
BRANCH   3  22
HETATM   22  C   UNK N   1      28.855  18.046   6.570  0.00  0.00     0.035 A 
HETATM   23  C   UNK N   1      29.934  17.642   5.806  0.00  0.00     0.039 A 
HETATM   24  C   UNK N   1      31.118  17.203   6.374  0.00  0.00    -0.027 A 
HETATM   25  C   UNK N   1      31.228  17.180   7.780  0.00  0.00    -0.048 A 
HETATM   26  C   UNK N   1      32.274  16.753   5.489  0.00  0.00     0.113 C 
HETATM   27  C   UNK N   1      30.139  17.595   8.571  0.00  0.00     0.010 A 
HETATM   28  C   UNK N   1      32.489  16.703   8.442  0.00  0.00     0.058 C 
HETATM   29  C   UNK N   1      28.944  18.027   7.968  0.00  0.00     0.030 A 
HETATM   30  C   UNK N   1      33.614  16.432   7.439  0.00  0.00     0.119 C 
HETATM   31  N   UNK N   1      33.094  15.790   6.233  0.00  0.00    -0.412 N 
HETATM   32  H   UNK N   1      33.271  14.825   5.954  0.00  0.00     0.153 HD
BRANCH  26  33
HETATM   33  C   UNK N   1      31.817  16.102   4.154  0.00  0.00     0.004 C 
HETATM   34  C   UNK N   1      32.114  14.612   4.137  0.00  0.00     0.012 C 
HETATM   35  C   UNK N   1      32.511  16.701   2.936  0.00  0.00     0.012 C 
ENDBRANCH  26  33
ENDBRANCH   3  22
TORSDOF 5
ENDMDL
MODEL 6
REMARK VINA RESULT:      -7.9     13.956     19.439
REMARK  5 active torsions:
REMARK  status: ('A' for Active; 'I' for Inactive)
REMARK    1  A    between atoms: C_3  and  N_4 
REMARK    2  A    between atoms: C_3  and  C_5 
REMARK    3  A    between atoms: C_10  and  C_15 
REMARK       I    between atoms: C_15  and  N_17 
REMARK    4  A    between atoms: N_17  and  C_18 
REMARK    5  A    between atoms: C_27  and  C_28 
ROOT
HETATM    1  C   UNK N   1      34.791  10.182  20.758  0.00  0.00     0.256 C 
HETATM    2  O   UNK N   1      35.729   9.828  21.459  0.00  0.00    -0.267 OA
HETATM    3  N   UNK N   1      33.525   9.778  21.006  0.00  0.00    -0.323 N 
HETATM    4  H   UNK N   1      32.872  10.111  20.350  0.00  0.00     0.169 HD
ENDROOT
BRANCH   1   5
HETATM    5  C   UNK N   1      34.968  11.080  19.600  0.00  0.00     0.033 A 
HETATM    6  C   UNK N   1      35.120  12.472  19.697  0.00  0.00     0.018 A 
HETATM    7  C   UNK N   1      35.282  13.240  18.527  0.00  0.00     0.013 A 
HETATM    8  C   UNK N   1      35.287  12.615  17.266  0.00  0.00    -0.025 A 
HETATM    9  C   UNK N   1      35.447  13.356  16.088  0.00  0.00     0.027 A 
HETATM   10  C   UNK N   1      35.128  11.220  17.184  0.00  0.00    -0.025 A 
HETATM   11  C   UNK N   1      35.446  12.703  14.838  0.00  0.00     0.008 A 
HETATM   12  C   UNK N   1      35.284  11.312  14.782  0.00  0.00     0.016 A 
HETATM   13  C   UNK N   1      35.126  10.574  15.950  0.00  0.00     0.013 A 
HETATM   14  C   UNK N   1      34.974  10.477  18.335  0.00  0.00     0.029 A 
BRANCH  11  15
HETATM   15  C   UNK N   1      35.618  13.471  13.588  0.00  0.00     0.102 C 
HETATM   16  N   UNK N   1      34.834  13.271  12.591  0.00  0.00    -0.385 N 
HETATM   17  H   UNK N   1      34.957  13.779  11.757  0.00  0.00     0.157 HD
ATOM     18  HN  UNK N   1      34.082  12.585  12.663  1.00  0.00     0.157 HD
BRANCH  15  19
HETATM   19  N   UNK N   1      36.649  14.429  13.476  0.00  0.00    -0.385 N 
HETATM   20  H   UNK N   1      37.541  14.157  13.160  0.00  0.00     0.157 HD
HETATM   21  H   UNK N   1      36.476  15.369  13.712  0.00  0.00     0.157 HD
ENDBRANCH  15  19
ENDBRANCH  11  15
ENDBRANCH   1   5
BRANCH   3  22
HETATM   22  C   UNK N   1      32.951   8.976  22.009  0.00  0.00     0.035 A 
HETATM   23  C   UNK N   1      32.465   9.656  23.110  0.00  0.00     0.039 A 
HETATM   24  C   UNK N   1      31.921   9.000  24.201  0.00  0.00    -0.027 A 
HETATM   25  C   UNK N   1      31.851   7.591  24.179  0.00  0.00    -0.048 A 
HETATM   26  C   UNK N   1      31.413   9.793  25.399  0.00  0.00     0.113 C 
HETATM   27  C   UNK N   1      32.336   6.886  23.061  0.00  0.00     0.010 A 
HETATM   28  C   UNK N   1      31.278   6.835  25.344  0.00  0.00     0.058 C 
HETATM   29  C   UNK N   1      32.894   7.577  21.970  0.00  0.00     0.030 A 
HETATM   30  C   UNK N   1      30.667   7.758  26.402  0.00  0.00     0.119 C 
HETATM   31  N   UNK N   1      31.494   8.948  26.596  0.00  0.00    -0.412 N 
HETATM   32  H   UNK N   1      32.042   9.157  27.430  0.00  0.00     0.153 HD
BRANCH  26  33
HETATM   33  C   UNK N   1      32.201  11.107  25.654  0.00  0.00     0.004 C 
HETATM   34  C   UNK N   1      33.591  10.821  26.193  0.00  0.00     0.012 C 
HETATM   35  C   UNK N   1      31.517  12.019  26.666  0.00  0.00     0.012 C 
ENDBRANCH  26  33
ENDBRANCH   3  22
TORSDOF 5
ENDMDL
MODEL 7
REMARK VINA RESULT:      -7.9      1.770      3.571
REMARK  5 active torsions:
REMARK  status: ('A' for Active; 'I' for Inactive)
REMARK    1  A    between atoms: C_3  and  N_4 
REMARK    2  A    between atoms: C_3  and  C_5 
REMARK    3  A    between atoms: C_10  and  C_15 
REMARK       I    between atoms: C_15  and  N_17 
REMARK    4  A    between atoms: N_17  and  C_18 
REMARK    5  A    between atoms: C_27  and  C_28 
ROOT
HETATM    1  C   UNK N   1      27.204  16.780   5.596  0.00  0.00     0.256 C 
HETATM    2  O   UNK N   1      27.740  15.732   5.261  0.00  0.00    -0.267 OA
HETATM    3  N   UNK N   1      27.826  17.671   6.400  0.00  0.00    -0.323 N 
HETATM    4  H   UNK N   1      27.273  18.456   6.615  0.00  0.00     0.169 HD
ENDROOT
BRANCH   1   5
HETATM    5  C   UNK N   1      25.849  17.151   5.144  0.00  0.00     0.033 A 
HETATM    6  C   UNK N   1      24.709  16.354   5.331  0.00  0.00     0.018 A 
HETATM    7  C   UNK N   1      23.459  16.801   4.859  0.00  0.00     0.013 A 
HETATM    8  C   UNK N   1      23.354  18.039   4.200  0.00  0.00    -0.025 A 
HETATM    9  C   UNK N   1      22.124  18.507   3.722  0.00  0.00     0.027 A 
HETATM   10  C   UNK N   1      24.506  18.826   4.015  0.00  0.00    -0.025 A 
HETATM   11  C   UNK N   1      22.048  19.752   3.063  0.00  0.00     0.008 A 
HETATM   12  C   UNK N   1      23.211  20.516   2.889  0.00  0.00     0.016 A 
HETATM   13  C   UNK N   1      24.434  20.054   3.363  0.00  0.00     0.013 A 
HETATM   14  C   UNK N   1      25.724  18.380   4.484  0.00  0.00     0.029 A 
BRANCH  11  15
HETATM   15  C   UNK N   1      20.756  20.260   2.557  0.00  0.00     0.102 C 
HETATM   16  N   UNK N   1      20.682  21.425   2.023  0.00  0.00    -0.385 N 
HETATM   17  H   UNK N   1      19.818  21.762   1.695  0.00  0.00     0.157 HD
ATOM     18  HN  UNK N   1      21.520  22.001   1.938  1.00  0.00     0.157 HD
BRANCH  15  19
HETATM   19  N   UNK N   1      19.591  19.470   2.661  0.00  0.00    -0.385 N 
HETATM   20  H   UNK N   1      19.663  18.489   2.706  0.00  0.00     0.157 HD
HETATM   21  H   UNK N   1      18.705  19.900   2.688  0.00  0.00     0.157 HD
ENDBRANCH  15  19
ENDBRANCH  11  15
ENDBRANCH   1   5
BRANCH   3  22
HETATM   22  C   UNK N   1      29.101  17.705   6.992  0.00  0.00     0.035 A 
HETATM   23  C   UNK N   1      30.164  17.491   6.134  0.00  0.00     0.039 A 
HETATM   24  C   UNK N   1      31.474  17.441   6.579  0.00  0.00    -0.027 A 
HETATM   25  C   UNK N   1      31.729  17.629   7.953  0.00  0.00    -0.048 A 
HETATM   26  C   UNK N   1      32.610  17.185   5.597  0.00  0.00     0.113 C 
HETATM   27  C   UNK N   1      30.658  17.855   8.838  0.00  0.00     0.010 A 
HETATM   28  C   UNK N   1      33.134  17.574   8.485  0.00  0.00     0.058 C 
HETATM   29  C   UNK N   1      29.335  17.890   8.361  0.00  0.00     0.030 A 
HETATM   30  C   UNK N   1      34.180  17.467   7.373  0.00  0.00     0.119 C 
HETATM   31  N   UNK N   1      33.728  16.565   6.316  0.00  0.00    -0.412 N 
HETATM   32  H   UNK N   1      34.125  15.648   6.112  0.00  0.00     0.153 HD
BRANCH  26  33
HETATM   33  C   UNK N   1      32.208  16.274   4.405  0.00  0.00     0.004 C 
HETATM   34  C   UNK N   1      32.816  14.888   4.541  0.00  0.00     0.012 C 
HETATM   35  C   UNK N   1      32.665  16.824   3.059  0.00  0.00     0.012 C 
ENDBRANCH  26  33
ENDBRANCH   3  22
TORSDOF 5
ENDMDL
MODEL 8
REMARK VINA RESULT:      -7.8      9.124     15.037
REMARK  5 active torsions:
REMARK  status: ('A' for Active; 'I' for Inactive)
REMARK    1  A    between atoms: C_3  and  N_4 
REMARK    2  A    between atoms: C_3  and  C_5 
REMARK    3  A    between atoms: C_10  and  C_15 
REMARK       I    between atoms: C_15  and  N_17 
REMARK    4  A    between atoms: N_17  and  C_18 
REMARK    5  A    between atoms: C_27  and  C_28 
ROOT
HETATM    1  C   UNK N   1      36.382  13.215  12.787  0.00  0.00     0.256 C 
HETATM    2  O   UNK N   1      37.305  13.005  12.011  0.00  0.00    -0.267 OA
HETATM    3  N   UNK N   1      35.390  14.083  12.493  0.00  0.00    -0.323 N 
HETATM    4  H   UNK N   1      34.727  14.181  13.214  0.00  0.00     0.169 HD
ENDROOT
BRANCH   1   5
HETATM    5  C   UNK N   1      36.280  12.534  14.093  0.00  0.00     0.033 A 
HETATM    6  C   UNK N   1      36.579  11.178  14.300  0.00  0.00     0.018 A 
HETATM    7  C   UNK N   1      36.446  10.624  15.589  0.00  0.00     0.013 A 
HETATM    8  C   UNK N   1      36.012  11.424  16.662  0.00  0.00    -0.025 A 
HETATM    9  C   UNK N   1      35.873  10.897  17.953  0.00  0.00     0.027 A 
HETATM   10  C   UNK N   1      35.711  12.780  16.438  0.00  0.00    -0.025 A 
HETATM   11  C   UNK N   1      35.434  11.722  19.009  0.00  0.00     0.008 A 
HETATM   12  C   UNK N   1      35.138  13.069  18.759  0.00  0.00     0.016 A 
HETATM   13  C   UNK N   1      35.276  13.595  17.479  0.00  0.00     0.013 A 
HETATM   14  C   UNK N   1      35.847  13.313  15.174  0.00  0.00     0.029 A 
BRANCH  11  15
HETATM   15  C   UNK N   1      35.287  11.181  20.375  0.00  0.00     0.102 C 
HETATM   16  N   UNK N   1      34.124  11.082  20.912  0.00  0.00    -0.385 N 
HETATM   17  H   UNK N   1      34.031  10.729  21.826  0.00  0.00     0.157 HD
ATOM     18  HN  UNK N   1      33.296  11.370  20.390  1.00  0.00     0.157 HD
BRANCH  15  19
HETATM   19  N   UNK N   1      36.423  10.771  21.106  0.00  0.00    -0.385 N 
HETATM   20  H   UNK N   1      36.822  11.375  21.774  0.00  0.00     0.157 HD
HETATM   21  H   UNK N   1      36.816   9.882  20.949  0.00  0.00     0.157 HD
ENDBRANCH  15  19
ENDBRANCH  11  15
ENDBRANCH   1   5
BRANCH   3  22
HETATM   22  C   UNK N   1      35.110  14.878  11.366  0.00  0.00     0.035 A 
HETATM   23  C   UNK N   1      34.608  14.202  10.269  0.00  0.00     0.039 A 
HETATM   24  C   UNK N   1      34.337  14.840   9.070  0.00  0.00    -0.027 A 
HETATM   25  C   UNK N   1      34.568  16.227   8.973  0.00  0.00    -0.048 A 
HETATM   26  C   UNK N   1      33.800  14.048   7.884  0.00  0.00     0.113 C 
HETATM   27  C   UNK N   1      35.072  16.930  10.085  0.00  0.00     0.010 A 
HETATM   28  C   UNK N   1      34.297  16.961   7.690  0.00  0.00     0.058 C 
HETATM   29  C   UNK N   1      35.350  16.255  11.288  0.00  0.00     0.030 A 
HETATM   30  C   UNK N   1      33.619  16.078   6.640  0.00  0.00     0.119 C 
HETATM   31  N   UNK N   1      34.187  14.731   6.644  0.00  0.00    -0.412 N 
HETATM   32  H   UNK N   1      34.762  14.330   5.904  0.00  0.00     0.153 HD
BRANCH  26  33
HETATM   33  C   UNK N   1      34.310  12.582   7.833  0.00  0.00     0.004 C 
HETATM   34  C   UNK N   1      35.693  12.500   7.211  0.00  0.00     0.012 C 
HETATM   35  C   UNK N   1      33.406  11.669   7.013  0.00  0.00     0.012 C 
ENDBRANCH  26  33
ENDBRANCH   3  22
TORSDOF 5
ENDMDL
MODEL 9
REMARK VINA RESULT:      -7.6      8.177     14.260
REMARK  5 active torsions:
REMARK  status: ('A' for Active; 'I' for Inactive)
REMARK    1  A    between atoms: C_3  and  N_4 
REMARK    2  A    between atoms: C_3  and  C_5 
REMARK    3  A    between atoms: C_10  and  C_15 
REMARK       I    between atoms: C_15  and  N_17 
REMARK    4  A    between atoms: N_17  and  C_18 
REMARK    5  A    between atoms: C_27  and  C_28 
ROOT
HETATM    1  C   UNK N   1      35.712  12.725  11.780  0.00  0.00     0.256 C 
HETATM    2  O   UNK N   1      36.617  12.193  11.150  0.00  0.00    -0.267 OA
HETATM    3  N   UNK N   1      34.627  13.244  11.165  0.00  0.00    -0.323 N 
HETATM    4  H   UNK N   1      33.990  13.667  11.785  0.00  0.00     0.169 HD
ENDROOT
BRANCH   1   5
HETATM    5  C   UNK N   1      35.734  12.831  13.252  0.00  0.00     0.033 A 
HETATM    6  C   UNK N   1      36.115  13.985  13.954  0.00  0.00     0.018 A 
HETATM    7  C   UNK N   1      36.103  13.982  15.363  0.00  0.00     0.013 A 
HETATM    8  C   UNK N   1      35.715  12.825  16.063  0.00  0.00    -0.025 A 
HETATM    9  C   UNK N   1      35.693  12.795  17.464  0.00  0.00     0.027 A 
HETATM   10  C   UNK N   1      35.340  11.674  15.347  0.00  0.00    -0.025 A 
HETATM   11  C   UNK N   1      35.301  11.622  18.140  0.00  0.00     0.008 A 
HETATM   12  C   UNK N   1      34.936  10.487  17.403  0.00  0.00     0.016 A 
HETATM   13  C   UNK N   1      34.955  10.514  16.013  0.00  0.00     0.013 A 
HETATM   14  C   UNK N   1      35.353  11.689  13.968  0.00  0.00     0.029 A 
BRANCH  11  15
HETATM   15  C   UNK N   1      35.270  11.578  19.616  0.00  0.00     0.102 C 
HETATM   16  N   UNK N   1      35.641  12.597  20.303  0.00  0.00    -0.385 N 
HETATM   17  H   UNK N   1      35.626  12.560  21.287  0.00  0.00     0.157 HD
ATOM     18  HN  UNK N   1      35.952  13.445  19.829  1.00  0.00     0.157 HD
BRANCH  15  19
HETATM   19  N   UNK N   1      34.834  10.413  20.285  0.00  0.00    -0.385 N 
HETATM   20  H   UNK N   1      34.963  10.328  21.258  0.00  0.00     0.157 HD
HETATM   21  H   UNK N   1      34.403   9.687  19.780  0.00  0.00     0.157 HD
ENDBRANCH  15  19
ENDBRANCH  11  15
ENDBRANCH   1   5
BRANCH   3  22
HETATM   22  C   UNK N   1      34.222  13.306   9.820  0.00  0.00     0.035 A 
HETATM   23  C   UNK N   1      34.250  14.563   9.244  0.00  0.00     0.039 A 
HETATM   24  C   UNK N   1      33.829  14.789   7.945  0.00  0.00    -0.027 A 
HETATM   25  C   UNK N   1      33.367  13.697   7.182  0.00  0.00    -0.048 A 
HETATM   26  C   UNK N   1      33.864  16.196   7.361  0.00  0.00     0.113 C 
HETATM   27  C   UNK N   1      33.339  12.409   7.752  0.00  0.00     0.010 A 
HETATM   28  C   UNK N   1      32.891  13.895   5.770  0.00  0.00     0.058 C 
HETATM   29  C   UNK N   1      33.763  12.209   9.079  0.00  0.00     0.030 A 
HETATM   30  C   UNK N   1      33.127  15.321   5.265  0.00  0.00     0.119 C 
HETATM   31  N   UNK N   1      32.842  16.300   6.312  0.00  0.00    -0.412 N 
HETATM   32  H   UNK N   1      32.058  16.951   6.315  0.00  0.00     0.153 HD
BRANCH  26  33
HETATM   33  C   UNK N   1      33.622  17.313   8.413  0.00  0.00     0.004 C 
HETATM   34  C   UNK N   1      32.210  17.864   8.318  0.00  0.00     0.012 C 
HETATM   35  C   UNK N   1      34.568  18.497   8.247  0.00  0.00     0.012 C 
ENDBRANCH  26  33
ENDBRANCH   3  22
TORSDOF 5
ENDMDL
