MODEL 1
REMARK VINA RESULT:      -6.7      0.000      0.000
REMARK  5 active torsions:
REMARK  status: ('A' for Active; 'I' for Inactive)
REMARK    1  A    between atoms: C_1  and  C_7 
REMARK    2  A    between atoms: C_7  and  N_8 
REMARK    3  A    between atoms: C_7  and  N_9 
REMARK    4  A    between atoms: C_13  and  C_14 
REMARK    5  A    between atoms: C_20  and  O_21 
ROOT
HETATM    1  C   UNK N   1      23.408  19.839   3.339  0.00  0.00     0.009 A 
HETATM    2  C   UNK N   1      24.274  20.642   2.545  0.00  0.00     0.017 A 
HETATM    3  C   UNK N   1      25.671  20.631   2.763  0.00  0.00     0.033 A 
HETATM    4  C   UNK N   1      26.154  19.811   3.782  0.00  0.00     0.060 A 
HETATM    5  C   UNK N   1      25.321  19.051   4.537  0.00  0.00     0.061 A 
HETATM    6  C   UNK N   1      23.951  19.027   4.354  0.00  0.00     0.047 A 
HETATM    7  N   UNK N   1      27.423  19.641   4.194  0.00  0.00    -0.340 N 
HETATM    8  N   UNK N   1      26.026  18.383   5.452  0.00  0.00    -0.340 N 
ATOM      9  HN  UNK N   1      25.677  17.736   6.160  1.00  0.00     0.167 HD
HETATM   10  C   UNK N   1      27.308  18.758   5.227  0.00  0.00     0.119 A 
HETATM   11  H   UNK N   1      28.240  20.055   3.834  0.00  0.00     0.167 HD
ENDROOT
BRANCH  10  12
HETATM   12  C   UNK N   1      28.442  18.272   6.047  0.00  0.00     0.043 A 
HETATM   13  C   UNK N   1      28.399  18.390   7.443  0.00  0.00     0.025 A 
HETATM   14  C   UNK N   1      29.465  17.932   8.226  0.00  0.00    -0.060 A 
HETATM   15  C   UNK N   1      29.421  18.070   9.704  0.00  0.00     0.048 C 
HETATM   16  C   UNK N   1      30.577  17.343   7.619  0.00  0.00     0.028 A 
HETATM   17  C   UNK N   1      30.632  17.213   6.233  0.00  0.00     0.045 A 
HETATM   18  C   UNK N   1      29.574  17.675   5.440  0.00  0.00     0.097 A 
HETATM   19 Br   UNK N   1      32.159  16.391   5.426  0.00  0.00    -0.048 Br
BRANCH  18  20
HETATM   20  O   UNK N   1      29.646  17.535   4.104  0.00  0.00    -0.358 OA
ATOM     21  HO  UNK N   1      30.453  17.256   3.687  1.00  0.00     0.217 HD
ENDBRANCH  18  20
ENDBRANCH  10  12
BRANCH   1  22
HETATM   22  C   UNK N   1      21.946  19.857   3.122  0.00  0.00     0.102 C 
BRANCH  22  23
HETATM   23  N   UNK N   1      21.304  21.034   2.676  0.00  0.00    -0.385 N 
HETATM   24  H   UNK N   1      20.329  21.044   2.542  0.00  0.00     0.157 HD
HETATM   25  H   UNK N   1      21.832  21.846   2.500  0.00  0.00     0.157 HD
ENDBRANCH  22  23
BRANCH  22  26
HETATM   26  N   UNK N   1      21.243  18.809   3.360  0.00  0.00    -0.385 N 
HETATM   27  H   UNK N   1      21.384  17.990   2.831  0.00  0.00     0.157 HD
HETATM   28  H   UNK N   1      20.563  18.824   4.071  0.00  0.00     0.157 HD
ENDBRANCH  22  26
ENDBRANCH   1  22
TORSDOF 5
ENDMDL
MODEL 2
REMARK VINA RESULT:      -6.7      1.632      2.217
REMARK  5 active torsions:
REMARK  status: ('A' for Active; 'I' for Inactive)
REMARK    1  A    between atoms: C_1  and  C_7 
REMARK    2  A    between atoms: C_7  and  N_8 
REMARK    3  A    between atoms: C_7  and  N_9 
REMARK    4  A    between atoms: C_13  and  C_14 
REMARK    5  A    between atoms: C_20  and  O_21 
ROOT
HETATM    1  C   UNK N   1      23.154  19.797   3.366  0.00  0.00     0.009 A 
HETATM    2  C   UNK N   1      23.994  20.579   2.523  0.00  0.00     0.017 A 
HETATM    3  C   UNK N   1      25.399  20.554   2.680  0.00  0.00     0.033 A 
HETATM    4  C   UNK N   1      25.916  19.742   3.689  0.00  0.00     0.060 A 
HETATM    5  C   UNK N   1      25.109  19.003   4.490  0.00  0.00     0.061 A 
HETATM    6  C   UNK N   1      23.732  18.993   4.367  0.00  0.00     0.047 A 
HETATM    7  N   UNK N   1      27.200  19.562   4.046  0.00  0.00    -0.340 N 
HETATM    8  N   UNK N   1      25.846  18.338   5.382  0.00  0.00    -0.340 N 
ATOM      9  HN  UNK N   1      25.521  17.705   6.114  1.00  0.00     0.167 HD
HETATM   10  C   UNK N   1      27.121  18.695   5.096  0.00  0.00     0.119 A 
HETATM   11  H   UNK N   1      28.005  19.962   3.646  0.00  0.00     0.167 HD
ENDROOT
BRANCH  10  12
HETATM   12  C   UNK N   1      28.284  18.207   5.872  0.00  0.00     0.043 A 
HETATM   13  C   UNK N   1      29.289  17.463   5.236  0.00  0.00     0.025 A 
HETATM   14  C   UNK N   1      30.393  17.000   5.960  0.00  0.00    -0.060 A 
HETATM   15  C   UNK N   1      31.449  16.203   5.285  0.00  0.00     0.048 C 
HETATM   16  C   UNK N   1      30.507  17.284   7.322  0.00  0.00     0.028 A 
HETATM   17  C   UNK N   1      29.519  18.027   7.969  0.00  0.00     0.045 A 
HETATM   18  C   UNK N   1      28.407  18.490   7.254  0.00  0.00     0.097 A 
HETATM   19 Br   UNK N   1      29.704  18.416   9.832  0.00  0.00    -0.048 Br
BRANCH  18  20
HETATM   20  O   UNK N   1      27.468  19.209   7.896  0.00  0.00    -0.358 OA
ATOM     21  HO  UNK N   1      27.567  19.427   8.815  1.00  0.00     0.217 HD
ENDBRANCH  18  20
ENDBRANCH  10  12
BRANCH   1  22
HETATM   22  C   UNK N   1      21.684  19.830   3.213  0.00  0.00     0.102 C 
BRANCH  22  23
HETATM   23  N   UNK N   1      21.045  20.978   2.695  0.00  0.00    -0.385 N 
HETATM   24  H   UNK N   1      21.426  21.448   1.918  0.00  0.00     0.157 HD
HETATM   25  H   UNK N   1      20.217  21.310   3.111  0.00  0.00     0.157 HD
ENDBRANCH  22  23
BRANCH  22  26
HETATM   26  N   UNK N   1      20.973  18.822   3.571  0.00  0.00    -0.385 N 
HETATM   27  H   UNK N   1      20.102  18.657   3.143  0.00  0.00     0.157 HD
HETATM   28  H   UNK N   1      21.300  18.214   4.272  0.00  0.00     0.157 HD
ENDBRANCH  22  26
ENDBRANCH   1  22
TORSDOF 5
ENDMDL
MODEL 3
REMARK VINA RESULT:      -6.6      5.798      8.425
REMARK  5 active torsions:
REMARK  status: ('A' for Active; 'I' for Inactive)
REMARK    1  A    between atoms: C_1  and  C_7 
REMARK    2  A    between atoms: C_7  and  N_8 
REMARK    3  A    between atoms: C_7  and  N_9 
REMARK    4  A    between atoms: C_13  and  C_14 
REMARK    5  A    between atoms: C_20  and  O_21 
ROOT
HETATM    1  C   UNK N   1      21.530  13.467   9.486  0.00  0.00     0.009 A 
HETATM    2  C   UNK N   1      20.347  14.188   9.812  0.00  0.00     0.017 A 
HETATM    3  C   UNK N   1      19.985  15.347   9.088  0.00  0.00     0.033 A 
HETATM    4  C   UNK N   1      20.834  15.749   8.057  0.00  0.00     0.060 A 
HETATM    5  C   UNK N   1      21.962  15.059   7.756  0.00  0.00     0.061 A 
HETATM    6  C   UNK N   1      22.349  13.918   8.433  0.00  0.00     0.047 A 
HETATM    7  N   UNK N   1      20.721  16.814   7.244  0.00  0.00    -0.340 N 
HETATM    8  N   UNK N   1      22.605  15.661   6.753  0.00  0.00    -0.340 N 
ATOM      9  HN  UNK N   1      23.480  15.378   6.311  1.00  0.00     0.167 HD
HETATM   10  C   UNK N   1      21.832  16.733   6.455  0.00  0.00     0.119 A 
HETATM   11  H   UNK N   1      20.008  17.492   7.223  0.00  0.00     0.167 HD
ENDROOT
BRANCH  10  12
HETATM   12  C   UNK N   1      22.189  17.714   5.404  0.00  0.00     0.043 A 
HETATM   13  C   UNK N   1      21.182  18.435   4.747  0.00  0.00     0.025 A 
HETATM   14  C   UNK N   1      21.511  19.366   3.754  0.00  0.00    -0.060 A 
HETATM   15  C   UNK N   1      20.440  20.119   3.053  0.00  0.00     0.048 C 
HETATM   16  C   UNK N   1      22.847  19.588   3.418  0.00  0.00     0.028 A 
HETATM   17  C   UNK N   1      23.861  18.883   4.065  0.00  0.00     0.045 A 
HETATM   18  C   UNK N   1      23.542  17.945   5.056  0.00  0.00     0.097 A 
HETATM   19 Br   UNK N   1      25.685  19.215   3.597  0.00  0.00    -0.048 Br
BRANCH  18  20
HETATM   20  O   UNK N   1      24.536  17.279   5.671  0.00  0.00    -0.358 OA
ATOM     21  HO  UNK N   1      25.372  17.697   5.837  1.00  0.00     0.217 HD
ENDBRANCH  18  20
ENDBRANCH  10  12
BRANCH   1  22
HETATM   22  C   UNK N   1      21.918  12.262  10.249  0.00  0.00     0.102 C 
BRANCH  22  23
HETATM   23  N   UNK N   1      21.241  11.922  11.441  0.00  0.00    -0.385 N 
HETATM   24  H   UNK N   1      21.636  12.147  12.315  0.00  0.00     0.157 HD
HETATM   25  H   UNK N   1      20.373  11.461  11.400  0.00  0.00     0.157 HD
ENDBRANCH  22  23
BRANCH  22  26
HETATM   26  N   UNK N   1      22.889  11.524   9.845  0.00  0.00    -0.385 N 
HETATM   27  H   UNK N   1      22.815  10.544   9.890  0.00  0.00     0.157 HD
HETATM   28  H   UNK N   1      23.708  11.941   9.491  0.00  0.00     0.157 HD
ENDBRANCH  22  26
ENDBRANCH   1  22
TORSDOF 5
ENDMDL
MODEL 4
REMARK VINA RESULT:      -6.5     10.519     13.807
REMARK  5 active torsions:
REMARK  status: ('A' for Active; 'I' for Inactive)
REMARK    1  A    between atoms: C_1  and  C_7 
REMARK    2  A    between atoms: C_7  and  N_8 
REMARK    3  A    between atoms: C_7  and  N_9 
REMARK    4  A    between atoms: C_13  and  C_14 
REMARK    5  A    between atoms: C_20  and  O_21 
ROOT
HETATM    1  C   UNK N   1      35.569  12.470  15.681  0.00  0.00     0.009 A 
HETATM    2  C   UNK N   1      36.504  13.526  15.871  0.00  0.00     0.017 A 
HETATM    3  C   UNK N   1      36.777  14.444  14.832  0.00  0.00     0.033 A 
HETATM    4  C   UNK N   1      36.102  14.265  13.625  0.00  0.00     0.060 A 
HETATM    5  C   UNK N   1      35.216  13.254  13.450  0.00  0.00     0.061 A 
HETATM    6  C   UNK N   1      34.914  12.338  14.442  0.00  0.00     0.047 A 
HETATM    7  N   UNK N   1      36.201  14.984  12.492  0.00  0.00    -0.340 N 
HETATM    8  N   UNK N   1      34.730  13.289  12.208  0.00  0.00    -0.340 N 
ATOM      9  HN  UNK N   1      34.049  12.658  11.784  1.00  0.00     0.167 HD
HETATM   10  C   UNK N   1      35.346  14.353  11.638  0.00  0.00     0.119 A 
HETATM   11  H   UNK N   1      36.759  15.776  12.321  0.00  0.00     0.167 HD
ENDROOT
BRANCH  10  12
HETATM   12  C   UNK N   1      35.122  14.750  10.228  0.00  0.00     0.043 A 
HETATM   13  C   UNK N   1      35.114  13.777   9.218  0.00  0.00     0.025 A 
HETATM   14  C   UNK N   1      34.900  14.142   7.885  0.00  0.00    -0.060 A 
HETATM   15  C   UNK N   1      34.903  13.110   6.817  0.00  0.00     0.048 C 
HETATM   16  C   UNK N   1      34.683  15.481   7.551  0.00  0.00     0.028 A 
HETATM   17  C   UNK N   1      34.683  16.460   8.544  0.00  0.00     0.045 A 
HETATM   18  C   UNK N   1      34.902  16.106   9.881  0.00  0.00     0.097 A 
HETATM   19 Br   UNK N   1      34.370  18.284   8.065  0.00  0.00    -0.048 Br
BRANCH  18  20
HETATM   20  O   UNK N   1      34.893  17.065  10.824  0.00  0.00    -0.358 OA
ATOM     21  HO  UNK N   1      34.104  17.254  11.318  1.00  0.00     0.217 HD
ENDBRANCH  18  20
ENDBRANCH  10  12
BRANCH   1  22
HETATM   22  C   UNK N   1      35.288  11.501  16.762  0.00  0.00     0.102 C 
BRANCH  22  23
HETATM   23  N   UNK N   1      35.222  11.930  18.106  0.00  0.00    -0.385 N 
HETATM   24  H   UNK N   1      35.173  11.269  18.834  0.00  0.00     0.157 HD
HETATM   25  H   UNK N   1      35.227  12.892  18.317  0.00  0.00     0.157 HD
ENDBRANCH  22  23
BRANCH  22  26
HETATM   26  N   UNK N   1      35.124  10.257  16.490  0.00  0.00    -0.385 N 
HETATM   27  H   UNK N   1      35.099   9.956  15.553  0.00  0.00     0.157 HD
HETATM   28  H   UNK N   1      35.026   9.604  17.220  0.00  0.00     0.157 HD
ENDBRANCH  22  26
ENDBRANCH   1  22
TORSDOF 5
ENDMDL
MODEL 5
REMARK VINA RESULT:      -6.5      5.331      7.846
REMARK  5 active torsions:
REMARK  status: ('A' for Active; 'I' for Inactive)
REMARK    1  A    between atoms: C_1  and  C_7 
REMARK    2  A    between atoms: C_7  and  N_8 
REMARK    3  A    between atoms: C_7  and  N_9 
REMARK    4  A    between atoms: C_13  and  C_14 
REMARK    5  A    between atoms: C_20  and  O_21 
ROOT
HETATM    1  C   UNK N   1      29.291  17.745   7.660  0.00  0.00     0.009 A 
HETATM    2  C   UNK N   1      29.522  17.180   6.374  0.00  0.00     0.017 A 
HETATM    3  C   UNK N   1      30.638  16.345   6.142  0.00  0.00     0.033 A 
HETATM    4  C   UNK N   1      31.495  16.108   7.216  0.00  0.00     0.060 A 
HETATM    5  C   UNK N   1      31.271  16.653   8.438  0.00  0.00     0.061 A 
HETATM    6  C   UNK N   1      30.188  17.469   8.710  0.00  0.00     0.047 A 
HETATM    7  N   UNK N   1      32.621  15.373   7.246  0.00  0.00    -0.340 N 
HETATM    8  N   UNK N   1      32.243  16.293   9.278  0.00  0.00    -0.340 N 
ATOM      9  HN  UNK N   1      32.347  16.548  10.260  1.00  0.00     0.167 HD
HETATM   10  C   UNK N   1      33.060  15.513   8.530  0.00  0.00     0.119 A 
HETATM   11  H   UNK N   1      33.032  14.858   6.515  0.00  0.00     0.167 HD
ENDROOT
BRANCH  10  12
HETATM   12  C   UNK N   1      34.304  14.911   9.063  0.00  0.00     0.043 A 
HETATM   13  C   UNK N   1      35.357  14.592   8.193  0.00  0.00     0.025 A 
HETATM   14  C   UNK N   1      36.537  14.026   8.687  0.00  0.00    -0.060 A 
HETATM   15  C   UNK N   1      37.645  13.680   7.761  0.00  0.00     0.048 C 
HETATM   16  C   UNK N   1      36.678  13.784  10.055  0.00  0.00     0.028 A 
HETATM   17  C   UNK N   1      35.643  14.100  10.934  0.00  0.00     0.045 A 
HETATM   18  C   UNK N   1      34.455  14.661  10.449  0.00  0.00     0.097 A 
HETATM   19 Br   UNK N   1      35.865  13.772  12.805  0.00  0.00    -0.048 Br
BRANCH  18  20
HETATM   20  O   UNK N   1      33.471  14.963  11.315  0.00  0.00    -0.358 OA
ATOM     21  HO  UNK N   1      33.647  15.485  12.088  1.00  0.00     0.217 HD
ENDBRANCH  18  20
ENDBRANCH  10  12
BRANCH   1  22
HETATM   22  C   UNK N   1      28.131  18.628   7.904  0.00  0.00     0.102 C 
BRANCH  22  23
HETATM   23  N   UNK N   1      27.605  19.421   6.860  0.00  0.00    -0.385 N 
HETATM   24  H   UNK N   1      28.179  19.689   6.106  0.00  0.00     0.157 HD
HETATM   25  H   UNK N   1      26.662  19.705   6.885  0.00  0.00     0.157 HD
ENDBRANCH  22  23
BRANCH  22  26
HETATM   26  N   UNK N   1      27.606  18.700   9.074  0.00  0.00    -0.385 N 
HETATM   27  H   UNK N   1      26.638  18.560   9.188  0.00  0.00     0.157 HD
HETATM   28  H   UNK N   1      28.172  18.894   9.855  0.00  0.00     0.157 HD
ENDBRANCH  22  26
ENDBRANCH   1  22
TORSDOF 5
ENDMDL
MODEL 6
REMARK VINA RESULT:      -6.5      7.317     10.307
REMARK  5 active torsions:
REMARK  status: ('A' for Active; 'I' for Inactive)
REMARK    1  A    between atoms: C_1  and  C_7 
REMARK    2  A    between atoms: C_7  and  N_8 
REMARK    3  A    between atoms: C_7  and  N_9 
REMARK    4  A    between atoms: C_13  and  C_14 
REMARK    5  A    between atoms: C_20  and  O_21 
ROOT
HETATM    1  C   UNK N   1      32.390  16.960   7.781  0.00  0.00     0.009 A 
HETATM    2  C   UNK N   1      33.525  17.818   7.808  0.00  0.00     0.017 A 
HETATM    3  C   UNK N   1      34.585  17.584   8.714  0.00  0.00     0.033 A 
HETATM    4  C   UNK N   1      34.465  16.491   9.572  0.00  0.00     0.060 A 
HETATM    5  C   UNK N   1      33.378  15.681   9.542  0.00  0.00     0.061 A 
HETATM    6  C   UNK N   1      32.323  15.869   8.669  0.00  0.00     0.047 A 
HETATM    7  N   UNK N   1      35.318  16.074  10.524  0.00  0.00    -0.340 N 
HETATM    8  N   UNK N   1      33.498  14.732  10.472  0.00  0.00    -0.340 N 
ATOM      9  HN  UNK N   1      32.841  13.982  10.689  1.00  0.00     0.167 HD
HETATM   10  C   UNK N   1      34.689  14.990  11.063  0.00  0.00     0.119 A 
HETATM   11  H   UNK N   1      36.189  16.459  10.773  0.00  0.00     0.167 HD
ENDROOT
BRANCH  10  12
HETATM   12  C   UNK N   1      35.217  14.187  12.191  0.00  0.00     0.043 A 
HETATM   13  C   UNK N   1      35.931  14.813  13.223  0.00  0.00     0.025 A 
HETATM   14  C   UNK N   1      36.431  14.063  14.294  0.00  0.00    -0.060 A 
HETATM   15  C   UNK N   1      37.196  14.729  15.379  0.00  0.00     0.048 C 
HETATM   16  C   UNK N   1      36.213  12.685  14.346  0.00  0.00     0.028 A 
HETATM   17  C   UNK N   1      35.501  12.049  13.330  0.00  0.00     0.045 A 
HETATM   18  C   UNK N   1      35.002  12.789  12.251  0.00  0.00     0.097 A 
HETATM   19 Br   UNK N   1      35.204  10.162  13.430  0.00  0.00    -0.048 Br
BRANCH  18  20
HETATM   20  O   UNK N   1      34.313  12.156  11.284  0.00  0.00    -0.358 OA
ATOM     21  HO  UNK N   1      34.601  12.189  10.380  1.00  0.00     0.217 HD
ENDBRANCH  18  20
ENDBRANCH  10  12
BRANCH   1  22
HETATM   22  C   UNK N   1      31.274  17.208   6.843  0.00  0.00     0.102 C 
BRANCH  22  23
HETATM   23  N   UNK N   1      29.961  17.397   7.329  0.00  0.00    -0.385 N 
HETATM   24  H   UNK N   1      29.590  18.306   7.407  0.00  0.00     0.157 HD
HETATM   25  H   UNK N   1      29.416  16.620   7.590  0.00  0.00     0.157 HD
ENDBRANCH  22  23
BRANCH  22  26
HETATM   26  N   UNK N   1      31.485  17.230   5.577  0.00  0.00    -0.385 N 
HETATM   27  H   UNK N   1      30.745  17.053   4.951  0.00  0.00     0.157 HD
HETATM   28  H   UNK N   1      32.386  17.425   5.232  0.00  0.00     0.157 HD
ENDBRANCH  22  26
ENDBRANCH   1  22
TORSDOF 5
ENDMDL
MODEL 7
REMARK VINA RESULT:      -6.5     12.437     15.825
REMARK  5 active torsions:
REMARK  status: ('A' for Active; 'I' for Inactive)
REMARK    1  A    between atoms: C_1  and  C_7 
REMARK    2  A    between atoms: C_7  and  N_8 
REMARK    3  A    between atoms: C_7  and  N_9 
REMARK    4  A    between atoms: C_13  and  C_14 
REMARK    5  A    between atoms: C_20  and  O_21 
ROOT
HETATM    1  C   UNK N   1      35.328  12.153  18.414  0.00  0.00     0.009 A 
HETATM    2  C   UNK N   1      35.483  10.823  17.929  0.00  0.00     0.017 A 
HETATM    3  C   UNK N   1      35.797  10.582  16.572  0.00  0.00     0.033 A 
HETATM    4  C   UNK N   1      35.940  11.692  15.740  0.00  0.00     0.060 A 
HETATM    5  C   UNK N   1      35.786  12.955  16.209  0.00  0.00     0.061 A 
HETATM    6  C   UNK N   1      35.486  13.237  17.529  0.00  0.00     0.047 A 
HETATM    7  N   UNK N   1      36.215  11.725  14.424  0.00  0.00    -0.340 N 
HETATM    8  N   UNK N   1      35.950  13.829  15.214  0.00  0.00    -0.340 N 
ATOM      9  HN  UNK N   1      35.893  14.846  15.259  1.00  0.00     0.167 HD
HETATM   10  C   UNK N   1      36.209  13.057  14.130  0.00  0.00     0.119 A 
HETATM   11  H   UNK N   1      36.380  10.968  13.817  0.00  0.00     0.167 HD
ENDROOT
BRANCH  10  12
HETATM   12  C   UNK N   1      36.429  13.620  12.778  0.00  0.00     0.043 A 
HETATM   13  C   UNK N   1      35.831  14.837  12.419  0.00  0.00     0.025 A 
HETATM   14  C   UNK N   1      36.036  15.377  11.144  0.00  0.00    -0.060 A 
HETATM   15  C   UNK N   1      35.391  16.661  10.765  0.00  0.00     0.048 C 
HETATM   16  C   UNK N   1      36.847  14.712  10.223  0.00  0.00     0.028 A 
HETATM   17  C   UNK N   1      37.453  13.505  10.566  0.00  0.00     0.045 A 
HETATM   18  C   UNK N   1      37.250  12.951  11.837  0.00  0.00     0.097 A 
HETATM   19 Br   UNK N   1      38.571  12.619   9.293  0.00  0.00    -0.048 Br
BRANCH  18  20
HETATM   20  O   UNK N   1      37.848  11.788  12.149  0.00  0.00    -0.358 OA
ATOM     21  HO  UNK N   1      38.578  11.463  11.635  1.00  0.00     0.217 HD
ENDBRANCH  18  20
ENDBRANCH  10  12
BRANCH   1  22
HETATM   22  C   UNK N   1      34.988  12.409  19.829  0.00  0.00     0.102 C 
BRANCH  22  23
HETATM   23  N   UNK N   1      34.636  13.709  20.256  0.00  0.00    -0.385 N 
HETATM   24  H   UNK N   1      34.049  14.270  19.698  0.00  0.00     0.157 HD
HETATM   25  H   UNK N   1      34.978  14.056  21.111  0.00  0.00     0.157 HD
ENDBRANCH  22  23
BRANCH  22  26
HETATM   26  N   UNK N   1      35.033  11.456  20.689  0.00  0.00    -0.385 N 
HETATM   27  H   UNK N   1      34.354  10.744  20.670  0.00  0.00     0.157 HD
HETATM   28  H   UNK N   1      35.747  11.438  21.366  0.00  0.00     0.157 HD
ENDBRANCH  22  26
ENDBRANCH   1  22
TORSDOF 5
ENDMDL
MODEL 8
REMARK VINA RESULT:      -6.5     10.935     14.342
REMARK  5 active torsions:
REMARK  status: ('A' for Active; 'I' for Inactive)
REMARK    1  A    between atoms: C_1  and  C_7 
REMARK    2  A    between atoms: C_7  and  N_8 
REMARK    3  A    between atoms: C_7  and  N_9 
REMARK    4  A    between atoms: C_13  and  C_14 
REMARK    5  A    between atoms: C_20  and  O_21 
ROOT
HETATM    1  C   UNK N   1      35.041  12.307  16.679  0.00  0.00     0.009 A 
HETATM    2  C   UNK N   1      34.418  11.120  16.199  0.00  0.00     0.017 A 
HETATM    3  C   UNK N   1      34.215  10.920  14.814  0.00  0.00     0.033 A 
HETATM    4  C   UNK N   1      34.642  11.929  13.952  0.00  0.00     0.060 A 
HETATM    5  C   UNK N   1      35.231  13.059  14.417  0.00  0.00     0.061 A 
HETATM    6  C   UNK N   1      35.455  13.292  15.761  0.00  0.00     0.047 A 
HETATM    7  N   UNK N   1      34.547  11.984  12.612  0.00  0.00    -0.340 N 
HETATM    8  N   UNK N   1      35.521  13.869  13.397  0.00  0.00    -0.340 N 
ATOM      9  HN  UNK N   1      35.965  14.787  13.434  1.00  0.00     0.167 HD
HETATM   10  C   UNK N   1      35.094  13.195  12.302  0.00  0.00     0.119 A 
HETATM   11  H   UNK N   1      34.172  11.311  12.000  0.00  0.00     0.167 HD
ENDROOT
BRANCH  10  12
HETATM   12  C   UNK N   1      35.193  13.746  10.931  0.00  0.00     0.043 A 
HETATM   13  C   UNK N   1      36.252  13.363  10.096  0.00  0.00     0.025 A 
HETATM   14  C   UNK N   1      36.352  13.877   8.798  0.00  0.00    -0.060 A 
HETATM   15  C   UNK N   1      37.482  13.477   7.921  0.00  0.00     0.048 C 
HETATM   16  C   UNK N   1      35.389  14.769   8.322  0.00  0.00     0.028 A 
HETATM   17  C   UNK N   1      34.327  15.156   9.137  0.00  0.00     0.045 A 
HETATM   18  C   UNK N   1      34.221  14.653  10.440  0.00  0.00     0.097 A 
HETATM   19 Br   UNK N   1      33.013  16.368   8.458  0.00  0.00    -0.048 Br
BRANCH  18  20
HETATM   20  O   UNK N   1      33.185  15.036  11.208  0.00  0.00    -0.358 OA
ATOM     21  HO  UNK N   1      32.543  14.404  11.509  1.00  0.00     0.217 HD
ENDBRANCH  18  20
ENDBRANCH  10  12
BRANCH   1  22
HETATM   22  C   UNK N   1      35.244  12.526  18.126  0.00  0.00     0.102 C 
BRANCH  22  23
HETATM   23  N   UNK N   1      35.404  11.426  18.999  0.00  0.00    -0.385 N 
HETATM   24  H   UNK N   1      34.977  10.564  18.790  0.00  0.00     0.157 HD
HETATM   25  H   UNK N   1      35.944  11.521  19.817  0.00  0.00     0.157 HD
ENDBRANCH  22  23
BRANCH  22  26
HETATM   26  N   UNK N   1      35.255  13.716  18.607  0.00  0.00    -0.385 N 
HETATM   27  H   UNK N   1      34.469  14.059  19.091  0.00  0.00     0.157 HD
HETATM   28  H   UNK N   1      36.049  14.286  18.491  0.00  0.00     0.157 HD
ENDBRANCH  22  26
ENDBRANCH   1  22
TORSDOF 5
ENDMDL
MODEL 9
REMARK VINA RESULT:      -6.4      4.234      8.199
REMARK  5 active torsions:
REMARK  status: ('A' for Active; 'I' for Inactive)
REMARK    1  A    between atoms: C_1  and  C_7 
REMARK    2  A    between atoms: C_7  and  N_8 
REMARK    3  A    between atoms: C_7  and  N_9 
REMARK    4  A    between atoms: C_13  and  C_14 
REMARK    5  A    between atoms: C_20  and  O_21 
ROOT
HETATM    1  C   UNK N   1      33.162  17.438   7.280  0.00  0.00     0.009 A 
HETATM    2  C   UNK N   1      33.791  17.452   6.003  0.00  0.00     0.017 A 
HETATM    3  C   UNK N   1      33.020  17.423   4.818  0.00  0.00     0.033 A 
HETATM    4  C   UNK N   1      31.633  17.375   4.957  0.00  0.00     0.060 A 
HETATM    5  C   UNK N   1      31.042  17.358   6.177  0.00  0.00     0.061 A 
HETATM    6  C   UNK N   1      31.756  17.392   7.361  0.00  0.00     0.047 A 
HETATM    7  N   UNK N   1      30.694  17.322   3.996  0.00  0.00    -0.340 N 
HETATM    8  N   UNK N   1      29.717  17.287   6.035  0.00  0.00    -0.340 N 
ATOM      9  HN  UNK N   1      29.010  17.256   6.770  1.00  0.00     0.167 HD
HETATM   10  C   UNK N   1      29.524  17.264   4.695  0.00  0.00     0.119 A 
HETATM   11  H   UNK N   1      30.822  17.325   3.020  0.00  0.00     0.167 HD
ENDROOT
BRANCH  10  12
HETATM   12  C   UNK N   1      28.182  17.157   4.078  0.00  0.00     0.043 A 
HETATM   13  C   UNK N   1      27.837  16.012   3.345  0.00  0.00     0.025 A 
HETATM   14  C   UNK N   1      26.570  15.901   2.761  0.00  0.00    -0.060 A 
HETATM   15  C   UNK N   1      26.212  14.691   1.976  0.00  0.00     0.048 C 
HETATM   16  C   UNK N   1      25.636  16.927   2.913  0.00  0.00     0.028 A 
HETATM   17  C   UNK N   1      25.962  18.070   3.643  0.00  0.00     0.045 A 
HETATM   18  C   UNK N   1      27.229  18.194   4.226  0.00  0.00     0.097 A 
HETATM   19 Br   UNK N   1      24.661  19.456   3.849  0.00  0.00    -0.048 Br
BRANCH  18  20
HETATM   20  O   UNK N   1      27.521  19.302   4.930  0.00  0.00    -0.358 OA
ATOM     21  HO  UNK N   1      27.681  19.256   5.865  1.00  0.00     0.217 HD
ENDBRANCH  18  20
ENDBRANCH  10  12
BRANCH   1  22
HETATM   22  C   UNK N   1      33.964  17.457   8.521  0.00  0.00     0.102 C 
BRANCH  22  23
HETATM   23  N   UNK N   1      33.741  16.494   9.530  0.00  0.00    -0.385 N 
HETATM   24  H   UNK N   1      33.698  16.769  10.475  0.00  0.00     0.157 HD
HETATM   25  H   UNK N   1      33.627  15.546   9.290  0.00  0.00     0.157 HD
ENDBRANCH  22  23
BRANCH  22  26
HETATM   26  N   UNK N   1      34.855  18.363   8.703  0.00  0.00    -0.385 N 
HETATM   27  H   UNK N   1      35.790  18.107   8.879  0.00  0.00     0.157 HD
HETATM   28  H   UNK N   1      34.604  19.314   8.665  0.00  0.00     0.157 HD
ENDBRANCH  22  26
ENDBRANCH   1  22
TORSDOF 5
ENDMDL
