REMARK  5 active torsions:
REMARK  status: ('A' for Active; 'I' for Inactive)
REMARK    1  A    between atoms: C_1  and  C_7 
REMARK    2  A    between atoms: C_7  and  N_8 
REMARK    3  A    between atoms: C_7  and  N_9 
REMARK    4  A    between atoms: C_13  and  C_14 
REMARK    5  A    between atoms: C_20  and  O_21 
ROOT
HETATM    1  C   UNK N   1       3.061   0.739  -0.042  0.00  0.00     0.009 A 
HETATM    2  C   UNK N   1       3.096  -0.684  -0.023  0.00  0.00     0.017 A 
HETATM    3  C   UNK N   1       1.899  -1.436  -0.036  0.00  0.00     0.033 A 
HETATM    4  C   UNK N   1       0.698  -0.728  -0.062  0.00  0.00     0.060 A 
HETATM    5  C   UNK N   1       0.673   0.628  -0.076  0.00  0.00     0.061 A 
HETATM    6  C   UNK N   1       1.819   1.402  -0.071  0.00  0.00     0.047 A 
HETATM    7  N   UNK N   1      -0.559  -1.206  -0.060  0.00  0.00    -0.340 N 
HETATM    8  N   UNK N   1      -0.591   1.056  -0.076  0.00  0.00    -0.340 N 
ATOM      9  HN  UNK N   1      -0.925   2.020  -0.083  1.00  0.00     0.167 HD
HETATM   10  C   UNK N   1      -1.329  -0.080  -0.064  0.00  0.00     0.119 A 
HETATM   11  H   UNK N   1      -0.853  -2.145  -0.056  0.00  0.00     0.167 HD
ENDROOT
BRANCH  10  12
HETATM   12  C   UNK N   1      -2.810  -0.075  -0.029  0.00  0.00     0.043 A 
HETATM   13  C   UNK N   1      -3.517  -1.284  -0.102  0.00  0.00     0.025 A 
HETATM   14  C   UNK N   1      -4.916  -1.289  -0.067  0.00  0.00    -0.060 A 
HETATM   15  C   UNK N   1      -5.661  -2.571  -0.156  0.00  0.00     0.048 C 
HETATM   16  C   UNK N   1      -5.618  -0.088   0.051  0.00  0.00     0.028 A 
HETATM   17  C   UNK N   1      -4.930   1.122   0.130  0.00  0.00     0.045 A 
HETATM   18  C   UNK N   1      -3.530   1.139   0.089  0.00  0.00     0.097 A 
HETATM   19 Br   UNK N   1      -5.913   2.753   0.305  0.00  0.00    -0.048 Br
BRANCH  18  20
HETATM   20  O   UNK N   1      -2.886   2.317   0.172  0.00  0.00    -0.358 OA
ATOM     21  HO  UNK N   1      -3.369   3.131   0.250  1.00  0.00     0.217 HD
ENDBRANCH  18  20
ENDBRANCH  10  12
BRANCH   1  22
HETATM   22  C   UNK N   1       4.310   1.529  -0.017  0.00  0.00     0.102 C 
BRANCH  22  23
HETATM   23  N   UNK N   1       5.563   0.882   0.069  0.00  0.00    -0.385 N 
HETATM   24  H   UNK N   1       5.609  -0.100   0.128  0.00  0.00     0.157 HD
HETATM   25  H   UNK N   1       6.392   1.413   0.069  0.00  0.00     0.157 HD
ENDBRANCH  22  23
BRANCH  22  26
HETATM   26  N   UNK N   1       4.266   2.812  -0.050  0.00  0.00    -0.385 N 
HETATM   27  H   UNK N   1       5.101   3.333  -0.076  0.00  0.00     0.157 HD
HETATM   28  H   UNK N   1       3.397   3.274  -0.050  0.00  0.00     0.157 HD
ENDBRANCH  22  26
ENDBRANCH   1  22
TORSDOF 5
