MODEL 1
REMARK VINA RESULT:      -5.5      0.000      0.000
REMARK  6 active torsions:
REMARK  status: ('A' for Active; 'I' for Inactive)
REMARK    1  A    between atoms: C_4  and  C_8 
REMARK    2  A    between atoms: C_7  and  O_13 
REMARK    3  A    between atoms: C_8  and  C_9 
REMARK    4  A    between atoms: C_9  and  O_15 
REMARK    5  A    between atoms: C_10  and  C_11 
REMARK    6  A    between atoms: C_10  and  O_13 
ROOT
HETATM    1 Cl   UNK N   1      29.462  18.502   9.803  0.00  0.00    -0.081 Cl
HETATM    2  C   UNK N   1      30.331  17.940   8.385  0.00  0.00     0.067 A 
HETATM    3  C   UNK N   1      31.727  17.821   8.440  0.00  0.00     0.034 A 
HETATM    4  C   UNK N   1      32.451  17.377   7.326  0.00  0.00    -0.046 A 
HETATM    5  C   UNK N   1      31.762  17.051   6.153  0.00  0.00     0.010 A 
HETATM    6  C   UNK N   1      30.379  17.167   6.090  0.00  0.00     0.039 A 
HETATM    7  C   UNK N   1      29.647  17.612   7.202  0.00  0.00     0.090 A 
ENDROOT
BRANCH   4   8
HETATM    8  C   UNK N   1      33.952  17.268   7.431  0.00  0.00     0.148 C 
BRANCH   8   9
HETATM    9  C   UNK N   1      34.663  18.002   8.548  0.00  0.00     0.143 C 
HETATM   10  O   UNK N   1      34.855  17.422   9.604  0.00  0.00    -0.650 OA
BRANCH   9  11
HETATM   11  O   UNK N   1      35.084  19.274   8.414  0.00  0.00    -0.776 OA
HETATM   12  H   UNK N   1      35.888  19.546   8.811  0.00  0.00     0.167 HD
ENDBRANCH   9  11
ENDBRANCH   8   9
ENDBRANCH   4   8
BRANCH   7  13
HETATM   13  O   UNK N   1      28.296  17.726   7.136  0.00  0.00    -0.349 OA
BRANCH  13  14
HETATM   14  C   UNK N   1      27.684  18.559   6.224  0.00  0.00     0.175 C 
BRANCH  14  15
HETATM   15  C   UNK N   1      27.638  19.981   6.732  0.00  0.00     0.022 C 
HETATM   16  C   UNK N   1      26.529  20.713   6.005  0.00  0.00     0.007 C 
ENDBRANCH  14  15
ENDBRANCH  13  14
ENDBRANCH   7  13
TORSDOF 6
ENDMDL
MODEL 2
REMARK VINA RESULT:      -5.4      5.942     10.289
REMARK  6 active torsions:
REMARK  status: ('A' for Active; 'I' for Inactive)
REMARK    1  A    between atoms: C_4  and  C_8 
REMARK    2  A    between atoms: C_7  and  O_13 
REMARK    3  A    between atoms: C_8  and  C_9 
REMARK    4  A    between atoms: C_9  and  O_15 
REMARK    5  A    between atoms: C_10  and  C_11 
REMARK    6  A    between atoms: C_10  and  O_13 
ROOT
HETATM    1 Cl   UNK N   1      23.887  17.171   5.234  0.00  0.00    -0.081 Cl
HETATM    2  C   UNK N   1      23.769  18.589   4.206  0.00  0.00     0.067 A 
HETATM    3  C   UNK N   1      22.505  19.022   3.780  0.00  0.00     0.034 A 
HETATM    4  C   UNK N   1      22.376  20.149   2.957  0.00  0.00    -0.046 A 
HETATM    5  C   UNK N   1      23.527  20.841   2.567  0.00  0.00     0.010 A 
HETATM    6  C   UNK N   1      24.783  20.418   2.985  0.00  0.00     0.039 A 
HETATM    7  C   UNK N   1      24.921  19.289   3.807  0.00  0.00     0.090 A 
ENDROOT
BRANCH   4   8
HETATM    8  C   UNK N   1      20.997  20.575   2.520  0.00  0.00     0.148 C 
BRANCH   8   9
HETATM    9  C   UNK N   1      20.790  21.034   1.092  0.00  0.00     0.143 C 
HETATM   10  O   UNK N   1      20.966  20.236   0.187  0.00  0.00    -0.650 OA
BRANCH   9  11
HETATM   11  O   UNK N   1      20.424  22.295   0.792  0.00  0.00    -0.776 OA
HETATM   12  H   UNK N   1      19.516  22.511   0.705  0.00  0.00     0.167 HD
ENDBRANCH   9  11
ENDBRANCH   8   9
ENDBRANCH   4   8
BRANCH   7  13
HETATM   13  O   UNK N   1      26.148  18.878   4.212  0.00  0.00    -0.349 OA
BRANCH  13  14
HETATM   14  C   UNK N   1      27.229  19.734   4.231  0.00  0.00     0.175 C 
BRANCH  14  15
HETATM   15  C   UNK N   1      27.617  20.087   5.647  0.00  0.00     0.022 C 
HETATM   16  C   UNK N   1      26.947  21.395   6.015  0.00  0.00     0.007 C 
ENDBRANCH  14  15
ENDBRANCH  13  14
ENDBRANCH   7  13
TORSDOF 6
ENDMDL
MODEL 3
REMARK VINA RESULT:      -5.3      9.560     10.493
REMARK  6 active torsions:
REMARK  status: ('A' for Active; 'I' for Inactive)
REMARK    1  A    between atoms: C_4  and  C_8 
REMARK    2  A    between atoms: C_7  and  O_13 
REMARK    3  A    between atoms: C_8  and  C_9 
REMARK    4  A    between atoms: C_9  and  O_15 
REMARK    5  A    between atoms: C_10  and  C_11 
REMARK    6  A    between atoms: C_10  and  O_13 
ROOT
HETATM    1 Cl   UNK N   1      23.512  14.863   6.761  0.00  0.00    -0.081 Cl
HETATM    2  C   UNK N   1      22.544  14.265   8.098  0.00  0.00     0.067 A 
HETATM    3  C   UNK N   1      23.058  13.247   8.914  0.00  0.00     0.034 A 
HETATM    4  C   UNK N   1      22.310  12.747   9.989  0.00  0.00    -0.046 A 
HETATM    5  C   UNK N   1      21.042  13.279  10.240  0.00  0.00     0.010 A 
HETATM    6  C   UNK N   1      20.526  14.288   9.436  0.00  0.00     0.039 A 
HETATM    7  C   UNK N   1      21.267  14.793   8.357  0.00  0.00     0.090 A 
ENDROOT
BRANCH   4   8
HETATM    8  C   UNK N   1      22.902  11.648  10.836  0.00  0.00     0.148 C 
BRANCH   8   9
HETATM    9  C   UNK N   1      23.934  12.007  11.884  0.00  0.00     0.143 C 
HETATM   10  O   UNK N   1      23.606  11.998  13.059  0.00  0.00    -0.650 OA
BRANCH   9  11
HETATM   11  O   UNK N   1      25.198  12.341  11.559  0.00  0.00    -0.776 OA
HETATM   12  H   UNK N   1      25.719  11.757  11.045  0.00  0.00     0.167 HD
ENDBRANCH   9  11
ENDBRANCH   8   9
ENDBRANCH   4   8
BRANCH   7  13
HETATM   13  O   UNK N   1      20.760  15.777   7.573  0.00  0.00    -0.349 OA
BRANCH  13  14
HETATM   14  C   UNK N   1      19.505  16.304   7.794  0.00  0.00     0.175 C 
BRANCH  14  15
HETATM   15  C   UNK N   1      19.582  17.545   8.651  0.00  0.00     0.022 C 
HETATM   16  C   UNK N   1      18.297  17.659   9.444  0.00  0.00     0.007 C 
ENDBRANCH  14  15
ENDBRANCH  13  14
ENDBRANCH   7  13
TORSDOF 6
ENDMDL
MODEL 4
REMARK VINA RESULT:      -5.3      7.499     10.156
REMARK  6 active torsions:
REMARK  status: ('A' for Active; 'I' for Inactive)
REMARK    1  A    between atoms: C_4  and  C_8 
REMARK    2  A    between atoms: C_7  and  O_13 
REMARK    3  A    between atoms: C_8  and  C_9 
REMARK    4  A    between atoms: C_9  and  O_15 
REMARK    5  A    between atoms: C_10  and  C_11 
REMARK    6  A    between atoms: C_10  and  O_13 
ROOT
HETATM    1 Cl   UNK N   1      37.370  14.939  15.815  0.00  0.00    -0.081 Cl
HETATM    2  C   UNK N   1      36.481  14.080  14.567  0.00  0.00     0.067 A 
HETATM    3  C   UNK N   1      36.090  14.768  13.409  0.00  0.00     0.034 A 
HETATM    4  C   UNK N   1      35.378  14.112  12.396  0.00  0.00    -0.046 A 
HETATM    5  C   UNK N   1      35.064  12.758  12.552  0.00  0.00     0.010 A 
HETATM    6  C   UNK N   1      35.449  12.070  13.697  0.00  0.00     0.039 A 
HETATM    7  C   UNK N   1      36.160  12.720  14.717  0.00  0.00     0.090 A 
ENDROOT
BRANCH   4   8
HETATM    8  C   UNK N   1      34.974  14.893  11.170  0.00  0.00     0.148 C 
BRANCH   8   9
HETATM    9  C   UNK N   1      35.754  16.138  10.806  0.00  0.00     0.143 C 
HETATM   10  O   UNK N   1      35.149  17.183  10.638  0.00  0.00    -0.650 OA
BRANCH   9  11
HETATM   11  O   UNK N   1      37.093  16.126  10.656  0.00  0.00    -0.776 OA
HETATM   12  H   UNK N   1      37.573  16.930  10.666  0.00  0.00     0.167 HD
ENDBRANCH   9  11
ENDBRANCH   8   9
ENDBRANCH   4   8
BRANCH   7  13
HETATM   13  O   UNK N   1      36.532  12.046  15.834  0.00  0.00    -0.349 OA
BRANCH  13  14
HETATM   14  C   UNK N   1      35.620  11.703  16.810  0.00  0.00     0.175 C 
BRANCH  14  15
HETATM   15  C   UNK N   1      34.755  12.883  17.183  0.00  0.00     0.022 C 
HETATM   16  C   UNK N   1      35.217  13.409  18.526  0.00  0.00     0.007 C 
ENDBRANCH  14  15
ENDBRANCH  13  14
ENDBRANCH   7  13
TORSDOF 6
ENDMDL
MODEL 5
REMARK VINA RESULT:      -5.1      8.444     11.074
REMARK  6 active torsions:
REMARK  status: ('A' for Active; 'I' for Inactive)
REMARK    1  A    between atoms: C_4  and  C_8 
REMARK    2  A    between atoms: C_7  and  O_13 
REMARK    3  A    between atoms: C_8  and  C_9 
REMARK    4  A    between atoms: C_9  and  O_15 
REMARK    5  A    between atoms: C_10  and  C_11 
REMARK    6  A    between atoms: C_10  and  O_13 
ROOT
HETATM    1 Cl   UNK N   1      33.502  10.677  14.689  0.00  0.00    -0.081 Cl
HETATM    2  C   UNK N   1      34.652  12.002  14.608  0.00  0.00     0.067 A 
HETATM    3  C   UNK N   1      34.862  12.652  13.384  0.00  0.00     0.034 A 
HETATM    4  C   UNK N   1      35.774  13.712  13.285  0.00  0.00    -0.046 A 
HETATM    5  C   UNK N   1      36.472  14.115  14.428  0.00  0.00     0.010 A 
HETATM    6  C   UNK N   1      36.269  13.476  15.645  0.00  0.00     0.039 A 
HETATM    7  C   UNK N   1      35.359  12.413  15.751  0.00  0.00     0.090 A 
ENDROOT
BRANCH   4   8
HETATM    8  C   UNK N   1      35.971  14.378  11.947  0.00  0.00     0.148 C 
BRANCH   8   9
HETATM    9  C   UNK N   1      34.906  15.327  11.438  0.00  0.00     0.143 C 
HETATM   10  O   UNK N   1      35.221  16.473  11.166  0.00  0.00    -0.650 OA
BRANCH   9  11
HETATM   11  O   UNK N   1      33.624  14.945  11.281  0.00  0.00    -0.776 OA
HETATM   12  H   UNK N   1      33.413  14.036  11.194  0.00  0.00     0.167 HD
ENDBRANCH   9  11
ENDBRANCH   8   9
ENDBRANCH   4   8
BRANCH   7  13
HETATM   13  O   UNK N   1      35.165  11.789  16.940  0.00  0.00    -0.349 OA
BRANCH  13  14
HETATM   14  C   UNK N   1      35.990  10.770  17.366  0.00  0.00     0.175 C 
BRANCH  14  15
HETATM   15  C   UNK N   1      36.003  10.677  18.873  0.00  0.00     0.022 C 
HETATM   16  C   UNK N   1      35.374  11.935  19.436  0.00  0.00     0.007 C 
ENDBRANCH  14  15
ENDBRANCH  13  14
ENDBRANCH   7  13
TORSDOF 6
ENDMDL
MODEL 6
REMARK VINA RESULT:      -5.1      2.422      2.796
REMARK  6 active torsions:
REMARK  status: ('A' for Active; 'I' for Inactive)
REMARK    1  A    between atoms: C_4  and  C_8 
REMARK    2  A    between atoms: C_7  and  O_13 
REMARK    3  A    between atoms: C_8  and  C_9 
REMARK    4  A    between atoms: C_9  and  O_15 
REMARK    5  A    between atoms: C_10  and  C_11 
REMARK    6  A    between atoms: C_10  and  O_13 
ROOT
HETATM    1 Cl   UNK N   1      32.075  17.206   2.846  0.00  0.00    -0.081 Cl
HETATM    2  C   UNK N   1      32.000  17.197   4.600  0.00  0.00     0.067 A 
HETATM    3  C   UNK N   1      33.188  17.076   5.335  0.00  0.00     0.034 A 
HETATM    4  C   UNK N   1      33.163  17.064   6.737  0.00  0.00    -0.046 A 
HETATM    5  C   UNK N   1      31.935  17.177   7.395  0.00  0.00     0.010 A 
HETATM    6  C   UNK N   1      30.753  17.298   6.673  0.00  0.00     0.039 A 
HETATM    7  C   UNK N   1      30.770  17.308   5.270  0.00  0.00     0.090 A 
ENDROOT
BRANCH   4   8
HETATM    8  C   UNK N   1      34.466  16.928   7.485  0.00  0.00     0.148 C 
BRANCH   8   9
HETATM    9  C   UNK N   1      34.755  17.876   8.629  0.00  0.00     0.143 C 
HETATM   10  O   UNK N   1      34.620  17.475   9.773  0.00  0.00    -0.650 OA
BRANCH   9  11
HETATM   11  O   UNK N   1      35.152  19.146   8.423  0.00  0.00    -0.776 OA
HETATM   12  H   UNK N   1      35.219  19.739   9.145  0.00  0.00     0.167 HD
ENDBRANCH   9  11
ENDBRANCH   8   9
ENDBRANCH   4   8
BRANCH   7  13
HETATM   13  O   UNK N   1      29.615  17.424   4.569  0.00  0.00    -0.349 OA
BRANCH  13  14
HETATM   14  C   UNK N   1      28.494  18.015   5.113  0.00  0.00     0.175 C 
BRANCH  14  15
HETATM   15  C   UNK N   1      28.345  19.439   4.635  0.00  0.00     0.022 C 
HETATM   16  C   UNK N   1      27.020  19.565   3.911  0.00  0.00     0.007 C 
ENDBRANCH  14  15
ENDBRANCH  13  14
ENDBRANCH   7  13
TORSDOF 6
ENDMDL
MODEL 7
REMARK VINA RESULT:      -5.0      3.474      7.574
REMARK  6 active torsions:
REMARK  status: ('A' for Active; 'I' for Inactive)
REMARK    1  A    between atoms: C_4  and  C_8 
REMARK    2  A    between atoms: C_7  and  O_13 
REMARK    3  A    between atoms: C_8  and  C_9 
REMARK    4  A    between atoms: C_9  and  O_15 
REMARK    5  A    between atoms: C_10  and  C_11 
REMARK    6  A    between atoms: C_10  and  O_13 
ROOT
HETATM    1 Cl   UNK N   1      27.593  16.275   5.545  0.00  0.00    -0.081 Cl
HETATM    2  C   UNK N   1      27.309  17.995   5.339  0.00  0.00     0.067 A 
HETATM    3  C   UNK N   1      26.496  18.434   4.283  0.00  0.00     0.034 A 
HETATM    4  C   UNK N   1      26.251  19.800   4.090  0.00  0.00    -0.046 A 
HETATM    5  C   UNK N   1      26.827  20.724   4.967  0.00  0.00     0.010 A 
HETATM    6  C   UNK N   1      27.633  20.298   6.016  0.00  0.00     0.039 A 
HETATM    7  C   UNK N   1      27.885  18.932   6.215  0.00  0.00     0.090 A 
ENDROOT
BRANCH   4   8
HETATM    8  C   UNK N   1      25.374  20.224   2.939  0.00  0.00     0.148 C 
BRANCH   8   9
HETATM    9  C   UNK N   1      23.884  20.368   3.168  0.00  0.00     0.143 C 
HETATM   10  O   UNK N   1      23.267  19.424   3.632  0.00  0.00    -0.650 OA
BRANCH   9  11
HETATM   11  O   UNK N   1      23.221  21.501   2.870  0.00  0.00    -0.776 OA
HETATM   12  H   UNK N   1      23.092  22.156   3.528  0.00  0.00     0.167 HD
ENDBRANCH   9  11
ENDBRANCH   8   9
ENDBRANCH   4   8
BRANCH   7  13
HETATM   13  O   UNK N   1      28.675  18.519   7.238  0.00  0.00    -0.349 OA
BRANCH  13  14
HETATM   14  C   UNK N   1      28.186  18.385   8.520  0.00  0.00     0.175 C 
BRANCH  14  15
HETATM   15  C   UNK N   1      29.276  18.604   9.542  0.00  0.00     0.022 C 
HETATM   16  C   UNK N   1      30.609  18.290   8.895  0.00  0.00     0.007 C 
ENDBRANCH  14  15
ENDBRANCH  13  14
ENDBRANCH   7  13
TORSDOF 6
ENDMDL
MODEL 8
REMARK VINA RESULT:      -4.9     12.116     13.950
REMARK  6 active torsions:
REMARK  status: ('A' for Active; 'I' for Inactive)
REMARK    1  A    between atoms: C_4  and  C_8 
REMARK    2  A    between atoms: C_7  and  O_13 
REMARK    3  A    between atoms: C_8  and  C_9 
REMARK    4  A    between atoms: C_9  and  O_15 
REMARK    5  A    between atoms: C_10  and  C_11 
REMARK    6  A    between atoms: C_10  and  O_13 
ROOT
HETATM    1 Cl   UNK N   1      29.234  27.466  -5.659  0.00  0.00    -0.081 Cl
HETATM    2  C   UNK N   1      28.566  26.103  -4.775  0.00  0.00     0.067 A 
HETATM    3  C   UNK N   1      29.374  24.983  -4.532  0.00  0.00     0.034 A 
HETATM    4  C   UNK N   1      28.871  23.878  -3.832  0.00  0.00    -0.046 A 
HETATM    5  C   UNK N   1      27.550  23.907  -3.375  0.00  0.00     0.010 A 
HETATM    6  C   UNK N   1      26.743  25.014  -3.612  0.00  0.00     0.039 A 
HETATM    7  C   UNK N   1      27.238  26.123  -4.314  0.00  0.00     0.090 A 
ENDROOT
BRANCH   4   8
HETATM    8  C   UNK N   1      29.776  22.694  -3.597  0.00  0.00     0.148 C 
BRANCH   8   9
HETATM    9  C   UNK N   1      30.625  22.658  -2.345  0.00  0.00     0.143 C 
HETATM   10  O   UNK N   1      30.193  23.172  -1.327  0.00  0.00    -0.650 OA
BRANCH   9  11
HETATM   11  O   UNK N   1      31.842  22.082  -2.322  0.00  0.00    -0.776 OA
HETATM   12  H   UNK N   1      31.919  21.149  -2.343  0.00  0.00     0.167 HD
ENDBRANCH   9  11
ENDBRANCH   8   9
ENDBRANCH   4   8
BRANCH   7  13
HETATM   13  O   UNK N   1      26.448  27.201  -4.545  0.00  0.00    -0.349 OA
BRANCH  13  14
HETATM   14  C   UNK N   1      25.949  27.967  -3.513  0.00  0.00     0.175 C 
BRANCH  14  15
HETATM   15  C   UNK N   1      26.930  29.043  -3.113  0.00  0.00     0.022 C 
HETATM   16  C   UNK N   1      26.504  30.344  -3.761  0.00  0.00     0.007 C 
ENDBRANCH  14  15
ENDBRANCH  13  14
ENDBRANCH   7  13
TORSDOF 6
ENDMDL
MODEL 9
REMARK VINA RESULT:      -4.9      1.836      2.351
REMARK  6 active torsions:
REMARK  status: ('A' for Active; 'I' for Inactive)
REMARK    1  A    between atoms: C_4  and  C_8 
REMARK    2  A    between atoms: C_7  and  O_13 
REMARK    3  A    between atoms: C_8  and  C_9 
REMARK    4  A    between atoms: C_9  and  O_15 
REMARK    5  A    between atoms: C_10  and  C_11 
REMARK    6  A    between atoms: C_10  and  O_13 
ROOT
HETATM    1 Cl   UNK N   1      29.000  16.538   4.961  0.00  0.00    -0.081 Cl
HETATM    2  C   UNK N   1      29.836  17.059   6.415  0.00  0.00     0.067 A 
HETATM    3  C   UNK N   1      31.153  16.632   6.637  0.00  0.00     0.034 A 
HETATM    4  C   UNK N   1      31.848  17.028   7.788  0.00  0.00    -0.046 A 
HETATM    5  C   UNK N   1      31.210  17.858   8.714  0.00  0.00     0.010 A 
HETATM    6  C   UNK N   1      29.904  18.286   8.501  0.00  0.00     0.039 A 
HETATM    7  C   UNK N   1      29.202  17.892   7.353  0.00  0.00     0.090 A 
ENDROOT
BRANCH   4   8
HETATM    8  C   UNK N   1      33.262  16.541   7.986  0.00  0.00     0.148 C 
BRANCH   8   9
HETATM    9  C   UNK N   1      34.354  17.079   7.087  0.00  0.00     0.143 C 
HETATM   10  O   UNK N   1      34.637  18.263   7.149  0.00  0.00    -0.650 OA
BRANCH   9  11
HETATM   11  O   UNK N   1      35.018  16.292   6.218  0.00  0.00    -0.776 OA
HETATM   12  H   UNK N   1      35.952  16.333   6.169  0.00  0.00     0.167 HD
ENDBRANCH   9  11
ENDBRANCH   8   9
ENDBRANCH   4   8
BRANCH   7  13
HETATM   13  O   UNK N   1      27.927  18.309   7.148  0.00  0.00    -0.349 OA
BRANCH  13  14
HETATM   14  C   UNK N   1      27.576  19.639   7.248  0.00  0.00     0.175 C 
BRANCH  14  15
HETATM   15  C   UNK N   1      27.584  20.305   5.892  0.00  0.00     0.022 C 
HETATM   16  C   UNK N   1      27.066  21.719   6.051  0.00  0.00     0.007 C 
ENDBRANCH  14  15
ENDBRANCH  13  14
ENDBRANCH   7  13
TORSDOF 6
ENDMDL
