REMARK  5 active torsions:
REMARK  status: ('A' for Active; 'I' for Inactive)
REMARK    1  A    between atoms: C_3  and  C_10 
REMARK    2  A    between atoms: C_10  and  C_11 
REMARK    3  A    between atoms: C_11  and  C_12 
REMARK    4  A    between atoms: C_12  and  C_13 
REMARK    5  A    between atoms: C_13  and  O_14 
ROOT
HETATM    1  N   UNK N   1      -3.245   0.532  -0.000  0.00  0.00    -0.365 N 
HETATM    2  C   UNK N   1      -2.332   1.538  -0.000  0.00  0.00     0.096 A 
HETATM    3  C   UNK N   1      -1.047   1.005  -0.000  0.00  0.00    -0.030 A 
HETATM    4  C   UNK N   1      -0.268  -1.409   0.000  0.00  0.00     0.014 A 
HETATM    5  C   UNK N   1      -0.747  -2.729   0.000  0.00  0.00     0.001 A 
HETATM    6  C   UNK N   1      -2.136  -2.980  -0.000  0.00  0.00     0.002 A 
HETATM    7  C   UNK N   1      -3.053  -1.911  -0.000  0.00  0.00     0.030 A 
HETATM    8  C   UNK N   1      -2.541  -0.616  -0.000  0.00  0.00     0.042 A 
HETATM    9  C   UNK N   1      -1.200  -0.368  -0.000  0.00  0.00    -0.002 A 
HETATM   10  H   UNK N   1      -4.225   0.624  -0.000  0.00  0.00     0.165 HD
ENDROOT
BRANCH   3  11
HETATM   11  C   UNK N   1       0.223   1.816   0.000  0.00  0.00     0.041 C 
BRANCH  11  12
HETATM   12  C   UNK N   1       1.440   0.913   0.000  0.00  0.00     0.015 C 
BRANCH  12  13
HETATM   13  C   UNK N   1       2.761   1.653  -0.000  0.00  0.00     0.110 C 
BRANCH  13  14
HETATM   14  C   UNK N   1       3.906   0.676  -0.000  0.00  0.00     0.139 C 
HETATM   15  O   UNK N   1       3.706  -0.531   0.000  0.00  0.00    -0.650 OA
BRANCH  14  16
HETATM   16  O   UNK N   1       5.169   1.136  -0.000  0.00  0.00    -0.776 OA
HETATM   17  H   UNK N   1       5.887   0.533  -0.000  0.00  0.00     0.167 HD
ENDBRANCH  14  16
ENDBRANCH  13  14
ENDBRANCH  12  13
ENDBRANCH  11  12
ENDBRANCH   3  11
TORSDOF 5
