MODEL 1
REMARK VINA RESULT:      -6.1      0.000      0.000
REMARK  5 active torsions:
REMARK  status: ('A' for Active; 'I' for Inactive)
REMARK    1  A    between atoms: C_3  and  C_10 
REMARK    2  A    between atoms: C_10  and  C_11 
REMARK    3  A    between atoms: C_11  and  C_12 
REMARK    4  A    between atoms: C_12  and  C_13 
REMARK    5  A    between atoms: C_13  and  O_14 
ROOT
HETATM    1  N   UNK N   1      20.933  12.228  11.383  0.00  0.00    -0.365 N 
HETATM    2  C   UNK N   1      20.242  13.026  10.527  0.00  0.00     0.096 A 
HETATM    3  C   UNK N   1      21.123  13.631   9.636  0.00  0.00    -0.030 A 
HETATM    4  C   UNK N   1      23.644  13.442   9.432  0.00  0.00     0.014 A 
HETATM    5  C   UNK N   1      24.760  12.813  10.009  0.00  0.00     0.001 A 
HETATM    6  C   UNK N   1      24.594  11.939  11.105  0.00  0.00     0.002 A 
HETATM    7  C   UNK N   1      23.311  11.690  11.630  0.00  0.00     0.030 A 
HETATM    8  C   UNK N   1      22.229  12.332  11.032  0.00  0.00     0.042 A 
HETATM    9  C   UNK N   1      22.383  13.177   9.973  0.00  0.00    -0.002 A 
HETATM   10  H   UNK N   1      20.560  11.683  12.113  0.00  0.00     0.165 HD
ENDROOT
BRANCH   3  11
HETATM   11  C   UNK N   1      20.722  14.584   8.540  0.00  0.00     0.041 C 
BRANCH  11  12
HETATM   12  C   UNK N   1      19.855  15.701   9.087  0.00  0.00     0.015 C 
BRANCH  12  13
HETATM   13  C   UNK N   1      20.002  17.016   8.352  0.00  0.00     0.110 C 
BRANCH  13  14
HETATM   14  C   UNK N   1      19.414  18.137   9.167  0.00  0.00     0.139 C 
HETATM   15  O   UNK N   1      20.129  18.993   9.670  0.00  0.00    -0.650 OA
BRANCH  14  16
HETATM   16  O   UNK N   1      18.084  18.200   9.344  0.00  0.00    -0.776 OA
HETATM   17  H   UNK N   1      17.611  18.963   9.074  0.00  0.00     0.167 HD
ENDBRANCH  14  16
ENDBRANCH  13  14
ENDBRANCH  12  13
ENDBRANCH  11  12
ENDBRANCH   3  11
TORSDOF 5
ENDMDL
MODEL 2
REMARK VINA RESULT:      -5.8      9.742     11.387
REMARK  5 active torsions:
REMARK  status: ('A' for Active; 'I' for Inactive)
REMARK    1  A    between atoms: C_3  and  C_10 
REMARK    2  A    between atoms: C_10  and  C_11 
REMARK    3  A    between atoms: C_11  and  C_12 
REMARK    4  A    between atoms: C_12  and  C_13 
REMARK    5  A    between atoms: C_13  and  O_14 
ROOT
HETATM    1  N   UNK N   1      27.889  19.058   8.560  0.00  0.00    -0.365 N 
HETATM    2  C   UNK N   1      28.751  18.008   8.571  0.00  0.00     0.096 A 
HETATM    3  C   UNK N   1      29.174  17.735   7.274  0.00  0.00    -0.030 A 
HETATM    4  C   UNK N   1      28.584  18.863   5.080  0.00  0.00     0.014 A 
HETATM    5  C   UNK N   1      27.811  19.904   4.541  0.00  0.00     0.001 A 
HETATM    6  C   UNK N   1      27.018  20.710   5.385  0.00  0.00     0.002 A 
HETATM    7  C   UNK N   1      26.995  20.479   6.774  0.00  0.00     0.030 A 
HETATM    8  C   UNK N   1      27.774  19.438   7.273  0.00  0.00     0.042 A 
HETATM    9  C   UNK N   1      28.542  18.656   6.461  0.00  0.00    -0.002 A 
HETATM   10  H   UNK N   1      27.438  19.460   9.337  0.00  0.00     0.165 HD
ENDROOT
BRANCH   3  11
HETATM   11  C   UNK N   1      30.135  16.638   6.893  0.00  0.00     0.041 C 
BRANCH  11  12
HETATM   12  C   UNK N   1      31.491  17.210   6.531  0.00  0.00     0.015 C 
BRANCH  12  13
HETATM   13  C   UNK N   1      32.466  17.273   7.688  0.00  0.00     0.110 C 
BRANCH  13  14
HETATM   14  C   UNK N   1      33.752  17.921   7.252  0.00  0.00     0.139 C 
HETATM   15  O   UNK N   1      34.187  17.761   6.120  0.00  0.00    -0.650 OA
BRANCH  14  16
HETATM   16  O   UNK N   1      34.435  18.689   8.119  0.00  0.00    -0.776 OA
HETATM   17  H   UNK N   1      34.412  19.623   8.036  0.00  0.00     0.167 HD
ENDBRANCH  14  16
ENDBRANCH  13  14
ENDBRANCH  12  13
ENDBRANCH  11  12
ENDBRANCH   3  11
TORSDOF 5
ENDMDL
MODEL 3
REMARK VINA RESULT:      -5.7     17.763     19.367
REMARK  5 active torsions:
REMARK  status: ('A' for Active; 'I' for Inactive)
REMARK    1  A    between atoms: C_3  and  C_10 
REMARK    2  A    between atoms: C_10  and  C_11 
REMARK    3  A    between atoms: C_11  and  C_12 
REMARK    4  A    between atoms: C_12  and  C_13 
REMARK    5  A    between atoms: C_13  and  O_14 
ROOT
HETATM    1  N   UNK N   1      25.568  24.562  -6.111  0.00  0.00    -0.365 N 
HETATM    2  C   UNK N   1      26.392  23.703  -5.455  0.00  0.00     0.096 A 
HETATM    3  C   UNK N   1      26.918  24.326  -4.328  0.00  0.00    -0.030 A 
HETATM    4  C   UNK N   1      26.556  26.669  -3.425  0.00  0.00     0.014 A 
HETATM    5  C   UNK N   1      25.866  27.864  -3.685  0.00  0.00     0.001 A 
HETATM    6  C   UNK N   1      25.029  27.967  -4.817  0.00  0.00     0.002 A 
HETATM    7  C   UNK N   1      24.878  26.876  -5.694  0.00  0.00     0.030 A 
HETATM    8  C   UNK N   1      25.578  25.707  -5.403  0.00  0.00     0.042 A 
HETATM    9  C   UNK N   1      26.388  25.602  -4.311  0.00  0.00    -0.002 A 
HETATM   10  H   UNK N   1      25.065  24.382  -6.938  0.00  0.00     0.165 HD
ENDROOT
BRANCH   3  11
HETATM   11  C   UNK N   1      27.873  23.685  -3.355  0.00  0.00     0.041 C 
BRANCH  11  12
HETATM   12  C   UNK N   1      29.230  24.356  -3.408  0.00  0.00     0.015 C 
BRANCH  12  13
HETATM   13  C   UNK N   1      30.363  23.433  -3.805  0.00  0.00     0.110 C 
BRANCH  13  14
HETATM   14  C   UNK N   1      30.679  22.483  -2.682  0.00  0.00     0.139 C 
HETATM   15  O   UNK N   1      30.738  22.871  -1.523  0.00  0.00    -0.650 OA
BRANCH  14  16
HETATM   16  O   UNK N   1      30.900  21.185  -2.955  0.00  0.00    -0.776 OA
HETATM   17  H   UNK N   1      30.206  20.652  -3.291  0.00  0.00     0.167 HD
ENDBRANCH  14  16
ENDBRANCH  13  14
ENDBRANCH  12  13
ENDBRANCH  11  12
ENDBRANCH   3  11
TORSDOF 5
ENDMDL
MODEL 4
REMARK VINA RESULT:      -5.7      7.164      8.606
REMARK  5 active torsions:
REMARK  status: ('A' for Active; 'I' for Inactive)
REMARK    1  A    between atoms: C_3  and  C_10 
REMARK    2  A    between atoms: C_10  and  C_11 
REMARK    3  A    between atoms: C_11  and  C_12 
REMARK    4  A    between atoms: C_12  and  C_13 
REMARK    5  A    between atoms: C_13  and  O_14 
ROOT
HETATM    1  N   UNK N   1      24.824  17.208   5.309  0.00  0.00    -0.365 N 
HETATM    2  C   UNK N   1      23.467  17.269   5.315  0.00  0.00     0.096 A 
HETATM    3  C   UNK N   1      23.044  18.382   4.596  0.00  0.00    -0.030 A 
HETATM    4  C   UNK N   1      24.382  20.160   3.379  0.00  0.00     0.014 A 
HETATM    5  C   UNK N   1      25.699  20.546   3.079  0.00  0.00     0.001 A 
HETATM    6  C   UNK N   1      26.787  19.779   3.548  0.00  0.00     0.002 A 
HETATM    7  C   UNK N   1      26.564  18.622   4.318  0.00  0.00     0.030 A 
HETATM    8  C   UNK N   1      25.245  18.270   4.595  0.00  0.00     0.042 A 
HETATM    9  C   UNK N   1      24.190  19.007   4.145  0.00  0.00    -0.002 A 
HETATM   10  H   UNK N   1      25.387  16.525   5.740  0.00  0.00     0.165 HD
ENDROOT
BRANCH   3  11
HETATM   11  C   UNK N   1      21.605  18.776   4.385  0.00  0.00     0.041 C 
BRANCH  11  12
HETATM   12  C   UNK N   1      21.163  18.470   2.968  0.00  0.00     0.015 C 
BRANCH  12  13
HETATM   13  C   UNK N   1      20.234  19.506   2.371  0.00  0.00     0.110 C 
BRANCH  13  14
HETATM   14  C   UNK N   1      21.028  20.637   1.775  0.00  0.00     0.139 C 
HETATM   15  O   UNK N   1      21.390  20.608   0.606  0.00  0.00    -0.650 OA
BRANCH  14  16
HETATM   16  O   UNK N   1      21.345  21.697   2.538  0.00  0.00    -0.776 OA
HETATM   17  H   UNK N   1      21.866  22.391   2.182  0.00  0.00     0.167 HD
ENDBRANCH  14  16
ENDBRANCH  13  14
ENDBRANCH  12  13
ENDBRANCH  11  12
ENDBRANCH   3  11
TORSDOF 5
ENDMDL
MODEL 5
REMARK VINA RESULT:      -5.6      1.601      2.350
REMARK  5 active torsions:
REMARK  status: ('A' for Active; 'I' for Inactive)
REMARK    1  A    between atoms: C_3  and  C_10 
REMARK    2  A    between atoms: C_10  and  C_11 
REMARK    3  A    between atoms: C_11  and  C_12 
REMARK    4  A    between atoms: C_12  and  C_13 
REMARK    5  A    between atoms: C_13  and  O_14 
ROOT
HETATM    1  N   UNK N   1      24.558  13.321   8.614  0.00  0.00    -0.365 N 
HETATM    2  C   UNK N   1      23.785  13.962   7.699  0.00  0.00     0.096 A 
HETATM    3  C   UNK N   1      22.457  13.949   8.116  0.00  0.00    -0.030 A 
HETATM    4  C   UNK N   1      21.397  12.959  10.197  0.00  0.00     0.014 A 
HETATM    5  C   UNK N   1      21.705  12.250  11.369  0.00  0.00     0.001 A 
HETATM    6  C   UNK N   1      23.039  11.876  11.642  0.00  0.00     0.002 A 
HETATM    7  C   UNK N   1      24.070  12.209  10.743  0.00  0.00     0.030 A 
HETATM    8  C   UNK N   1      23.726  12.912   9.591  0.00  0.00     0.042 A 
HETATM    9  C   UNK N   1      22.439  13.276   9.322  0.00  0.00    -0.002 A 
HETATM   10  H   UNK N   1      25.532  13.184   8.571  0.00  0.00     0.165 HD
ENDROOT
BRANCH   3  11
HETATM   11  C   UNK N   1      21.309  14.564   7.358  0.00  0.00     0.041 C 
BRANCH  11  12
HETATM   12  C   UNK N   1      21.111  16.011   7.761  0.00  0.00     0.015 C 
BRANCH  12  13
HETATM   13  C   UNK N   1      20.006  16.227   8.773  0.00  0.00     0.110 C 
BRANCH  13  14
HETATM   14  C   UNK N   1      19.561  17.665   8.761  0.00  0.00     0.139 C 
HETATM   15  O   UNK N   1      20.303  18.552   8.363  0.00  0.00    -0.650 OA
BRANCH  14  16
HETATM   16  O   UNK N   1      18.328  17.981   9.194  0.00  0.00    -0.776 OA
HETATM   17  H   UNK N   1      17.621  17.378   9.073  0.00  0.00     0.167 HD
ENDBRANCH  14  16
ENDBRANCH  13  14
ENDBRANCH  12  13
ENDBRANCH  11  12
ENDBRANCH   3  11
TORSDOF 5
ENDMDL
MODEL 6
REMARK VINA RESULT:      -5.5      9.893     11.814
REMARK  5 active torsions:
REMARK  status: ('A' for Active; 'I' for Inactive)
REMARK    1  A    between atoms: C_3  and  C_10 
REMARK    2  A    between atoms: C_10  and  C_11 
REMARK    3  A    between atoms: C_11  and  C_12 
REMARK    4  A    between atoms: C_12  and  C_13 
REMARK    5  A    between atoms: C_13  and  O_14 
ROOT
HETATM    1  N   UNK N   1      29.603  16.997   5.608  0.00  0.00    -0.365 N 
HETATM    2  C   UNK N   1      30.771  16.305   5.659  0.00  0.00     0.096 A 
HETATM    3  C   UNK N   1      31.293  16.359   6.948  0.00  0.00    -0.030 A 
HETATM    4  C   UNK N   1      30.405  17.496   9.034  0.00  0.00     0.014 A 
HETATM    5  C   UNK N   1      29.336  18.278   9.502  0.00  0.00     0.001 A 
HETATM    6  C   UNK N   1      28.296  18.655   8.626  0.00  0.00     0.002 A 
HETATM    7  C   UNK N   1      28.320  18.253   7.276  0.00  0.00     0.030 A 
HETATM    8  C   UNK N   1      29.396  17.479   6.849  0.00  0.00     0.042 A 
HETATM    9  C   UNK N   1      30.404  17.111   7.691  0.00  0.00    -0.002 A 
HETATM   10  H   UNK N   1      29.025  17.121   4.822  0.00  0.00     0.165 HD
ENDROOT
BRANCH   3  11
HETATM   11  C   UNK N   1      32.579  15.707   7.386  0.00  0.00     0.041 C 
BRANCH  11  12
HETATM   12  C   UNK N   1      33.777  16.446   6.826  0.00  0.00     0.015 C 
BRANCH  12  13
HETATM   13  C   UNK N   1      33.769  17.936   7.097  0.00  0.00     0.110 C 
BRANCH  13  14
HETATM   14  C   UNK N   1      34.469  18.234   8.396  0.00  0.00     0.139 C 
HETATM   15  O   UNK N   1      35.283  19.143   8.480  0.00  0.00    -0.650 OA
BRANCH  14  16
HETATM   16  O   UNK N   1      34.196  17.489   9.481  0.00  0.00    -0.776 OA
HETATM   17  H   UNK N   1      34.332  17.844  10.338  0.00  0.00     0.167 HD
ENDBRANCH  14  16
ENDBRANCH  13  14
ENDBRANCH  12  13
ENDBRANCH  11  12
ENDBRANCH   3  11
TORSDOF 5
ENDMDL
MODEL 7
REMARK VINA RESULT:      -5.5     14.049     15.273
REMARK  5 active torsions:
REMARK  status: ('A' for Active; 'I' for Inactive)
REMARK    1  A    between atoms: C_3  and  C_10 
REMARK    2  A    between atoms: C_10  and  C_11 
REMARK    3  A    between atoms: C_11  and  C_12 
REMARK    4  A    between atoms: C_12  and  C_13 
REMARK    5  A    between atoms: C_13  and  O_14 
ROOT
HETATM    1  N   UNK N   1      34.435  12.199  15.251  0.00  0.00    -0.365 N 
HETATM    2  C   UNK N   1      34.927  12.264  13.987  0.00  0.00     0.096 A 
HETATM    3  C   UNK N   1      35.930  13.226  13.923  0.00  0.00    -0.030 A 
HETATM    4  C   UNK N   1      36.872  14.741  15.726  0.00  0.00     0.014 A 
HETATM    5  C   UNK N   1      36.741  15.060  17.087  0.00  0.00     0.001 A 
HETATM    6  C   UNK N   1      35.789  14.389  17.884  0.00  0.00     0.002 A 
HETATM    7  C   UNK N   1      34.963  13.396  17.323  0.00  0.00     0.030 A 
HETATM    8  C   UNK N   1      35.122  13.107  15.970  0.00  0.00     0.042 A 
HETATM    9  C   UNK N   1      36.040  13.752  15.196  0.00  0.00    -0.002 A 
HETATM   10  H   UNK N   1      33.720  11.605  15.577  0.00  0.00     0.165 HD
ENDROOT
BRANCH   3  11
HETATM   11  C   UNK N   1      36.708  13.580  12.682  0.00  0.00     0.041 C 
BRANCH  11  12
HETATM   12  C   UNK N   1      35.777  13.809  11.508  0.00  0.00     0.015 C 
BRANCH  12  13
HETATM   13  C   UNK N   1      35.059  15.142  11.538  0.00  0.00     0.110 C 
BRANCH  13  14
HETATM   14  C   UNK N   1      35.912  16.208  10.904  0.00  0.00     0.139 C 
HETATM   15  O   UNK N   1      35.438  17.289  10.585  0.00  0.00    -0.650 OA
BRANCH  14  16
HETATM   16  O   UNK N   1      37.217  15.968  10.685  0.00  0.00    -0.776 OA
HETATM   17  H   UNK N   1      37.490  15.140  10.342  0.00  0.00     0.167 HD
ENDBRANCH  14  16
ENDBRANCH  13  14
ENDBRANCH  12  13
ENDBRANCH  11  12
ENDBRANCH   3  11
TORSDOF 5
ENDMDL
MODEL 8
REMARK VINA RESULT:      -5.4     14.605     15.932
REMARK  5 active torsions:
REMARK  status: ('A' for Active; 'I' for Inactive)
REMARK    1  A    between atoms: C_3  and  C_10 
REMARK    2  A    between atoms: C_10  and  C_11 
REMARK    3  A    between atoms: C_11  and  C_12 
REMARK    4  A    between atoms: C_12  and  C_13 
REMARK    5  A    between atoms: C_13  and  O_14 
ROOT
HETATM    1  N   UNK N   1      35.402  13.736  18.951  0.00  0.00    -0.365 N 
HETATM    2  C   UNK N   1      35.354  14.111  17.647  0.00  0.00     0.096 A 
HETATM    3  C   UNK N   1      35.248  12.984  16.838  0.00  0.00    -0.030 A 
HETATM    4  C   UNK N   1      35.142  10.525  17.451  0.00  0.00     0.014 A 
HETATM    5  C   UNK N   1      35.151   9.655  18.553  0.00  0.00     0.001 A 
HETATM    6  C   UNK N   1      35.249  10.171  19.863  0.00  0.00     0.002 A 
HETATM    7  C   UNK N   1      35.338  11.560  20.077  0.00  0.00     0.030 A 
HETATM    8  C   UNK N   1      35.327  12.391  18.960  0.00  0.00     0.042 A 
HETATM    9  C   UNK N   1      35.232  11.898  17.692  0.00  0.00    -0.002 A 
HETATM   10  H   UNK N   1      35.476  14.328  19.734  0.00  0.00     0.165 HD
ENDROOT
BRANCH   3  11
HETATM   11  C   UNK N   1      35.171  13.006  15.333  0.00  0.00     0.041 C 
BRANCH  11  12
HETATM   12  C   UNK N   1      36.456  13.540  14.734  0.00  0.00     0.015 C 
BRANCH  12  13
HETATM   13  C   UNK N   1      36.255  14.424  13.522  0.00  0.00     0.110 C 
BRANCH  13  14
HETATM   14  C   UNK N   1      35.510  13.676  12.449  0.00  0.00     0.139 C 
HETATM   15  O   UNK N   1      36.027  12.738  11.858  0.00  0.00    -0.650 OA
BRANCH  14  16
HETATM   16  O   UNK N   1      34.256  14.045  12.134  0.00  0.00    -0.776 OA
HETATM   17  H   UNK N   1      33.832  14.726  12.620  0.00  0.00     0.167 HD
ENDBRANCH  14  16
ENDBRANCH  13  14
ENDBRANCH  12  13
ENDBRANCH  11  12
ENDBRANCH   3  11
TORSDOF 5
ENDMDL
MODEL 9
REMARK VINA RESULT:      -5.4     13.598     15.349
REMARK  5 active torsions:
REMARK  status: ('A' for Active; 'I' for Inactive)
REMARK    1  A    between atoms: C_3  and  C_10 
REMARK    2  A    between atoms: C_10  and  C_11 
REMARK    3  A    between atoms: C_11  and  C_12 
REMARK    4  A    between atoms: C_12  and  C_13 
REMARK    5  A    between atoms: C_13  and  O_14 
ROOT
HETATM    1  N   UNK N   1      36.894  10.752  15.095  0.00  0.00    -0.365 N 
HETATM    2  C   UNK N   1      36.893  11.714  14.135  0.00  0.00     0.096 A 
HETATM    3  C   UNK N   1      36.302  12.871  14.631  0.00  0.00    -0.030 A 
HETATM    4  C   UNK N   1      35.311  13.363  16.914  0.00  0.00     0.014 A 
HETATM    5  C   UNK N   1      35.071  12.779  18.168  0.00  0.00     0.001 A 
HETATM    6  C   UNK N   1      35.459  11.444  18.415  0.00  0.00     0.002 A 
HETATM    7  C   UNK N   1      36.089  10.688  17.409  0.00  0.00     0.030 A 
HETATM    8  C   UNK N   1      36.311  11.300  16.178  0.00  0.00     0.042 A 
HETATM    9  C   UNK N   1      35.938  12.589  15.934  0.00  0.00    -0.002 A 
HETATM   10  H   UNK N   1      37.249   9.838  15.015  0.00  0.00     0.165 HD
ENDROOT
BRANCH   3  11
HETATM   11  C   UNK N   1      36.124  14.150  13.854  0.00  0.00     0.041 C 
BRANCH  11  12
HETATM   12  C   UNK N   1      36.499  13.953  12.399  0.00  0.00     0.015 C 
BRANCH  12  13
HETATM   13  C   UNK N   1      35.319  13.707  11.482  0.00  0.00     0.110 C 
BRANCH  13  14
HETATM   14  C   UNK N   1      34.564  14.988  11.249  0.00  0.00     0.139 C 
HETATM   15  O   UNK N   1      35.153  16.052  11.112  0.00  0.00    -0.650 OA
BRANCH  14  16
HETATM   16  O   UNK N   1      33.221  14.964  11.190  0.00  0.00    -0.776 OA
HETATM   17  H   UNK N   1      32.770  15.515  10.581  0.00  0.00     0.167 HD
ENDBRANCH  14  16
ENDBRANCH  13  14
ENDBRANCH  12  13
ENDBRANCH  11  12
ENDBRANCH   3  11
TORSDOF 5
ENDMDL
