MODEL 1
REMARK VINA RESULT:      -5.7      0.000      0.000
REMARK  4 active torsions:
REMARK  status: ('A' for Active; 'I' for Inactive)
REMARK    1  A    between atoms: N_1  and  C_2 
REMARK    2  A    between atoms: C_8  and  O_9 
REMARK    3  A    between atoms: O_9  and  C_10 
REMARK    4  A    between atoms: C_10  and  C_11 
ROOT
HETATM    1  C   UNK N   1      27.741  19.063   7.523  0.00  0.00     0.132 A 
HETATM    2  N   UNK N   1      27.150  20.234   7.158  0.00  0.00    -0.350 N 
ATOM      3  HN  UNK N   1      26.693  20.801   7.872  1.00  0.00     0.166 HD
HETATM    4  C   UNK N   1      27.150  20.671   5.874  0.00  0.00     0.090 A 
HETATM    5  C   UNK N   1      27.768  19.917   4.878  0.00  0.00     0.020 A 
HETATM    6  C   UNK N   1      28.384  18.711   5.216  0.00  0.00     0.042 A 
HETATM    7  C   UNK N   1      28.385  18.259   6.538  0.00  0.00     0.112 A 
ENDROOT
BRANCH   7   8
HETATM    8  O   UNK N   1      29.002  17.073   6.811  0.00  0.00    -0.343 OA
BRANCH   8   9
HETATM    9  C   UNK N   1      30.080  16.587   6.102  0.00  0.00     0.214 C 
BRANCH   9  10
HETATM   10  C   UNK N   1      31.410  17.057   6.600  0.00  0.00    -0.034 A 
HETATM   11  C   UNK N   1      31.618  17.467   7.924  0.00  0.00     0.009 A 
HETATM   12  C   UNK N   1      32.887  17.897   8.330  0.00  0.00     0.001 A 
HETATM   13  C   UNK N   1      33.948  17.918   7.417  0.00  0.00     0.000 A 
HETATM   14  C   UNK N   1      33.740  17.509   6.097  0.00  0.00     0.001 A 
HETATM   15  C   UNK N   1      32.474  17.081   5.692  0.00  0.00     0.009 A 
ENDBRANCH   9  10
ENDBRANCH   8   9
ENDBRANCH   7   8
BRANCH   1  16
HETATM   16  N   UNK N   1      27.696  18.682   8.880  0.00  0.00    -0.383 N 
HETATM   17  H   UNK N   1      28.363  18.053   9.237  0.00  0.00     0.157 HD
HETATM   18  H   UNK N   1      26.996  19.045   9.471  0.00  0.00     0.157 HD
ENDBRANCH   1  16
TORSDOF 4
ENDMDL
MODEL 2
REMARK VINA RESULT:      -5.7     10.003     12.077
REMARK  4 active torsions:
REMARK  status: ('A' for Active; 'I' for Inactive)
REMARK    1  A    between atoms: N_1  and  C_2 
REMARK    2  A    between atoms: C_8  and  O_9 
REMARK    3  A    between atoms: O_9  and  C_10 
REMARK    4  A    between atoms: C_10  and  C_11 
ROOT
HETATM    1  C   UNK N   1      36.424  14.477  13.668  0.00  0.00     0.132 A 
HETATM    2  N   UNK N   1      36.128  15.317  12.638  0.00  0.00    -0.350 N 
ATOM      3  HN  UNK N   1      36.458  16.281  12.677  1.00  0.00     0.166 HD
HETATM    4  C   UNK N   1      35.409  14.912  11.562  0.00  0.00     0.090 A 
HETATM    5  C   UNK N   1      34.946  13.600  11.483  0.00  0.00     0.020 A 
HETATM    6  C   UNK N   1      35.230  12.711  12.520  0.00  0.00     0.042 A 
HETATM    7  C   UNK N   1      35.971  13.126  13.630  0.00  0.00     0.112 A 
ENDROOT
BRANCH   7   8
HETATM    8  O   UNK N   1      36.219  12.214  14.615  0.00  0.00    -0.343 OA
BRANCH   8   9
HETATM    9  C   UNK N   1      35.235  11.614  15.371  0.00  0.00     0.214 C 
BRANCH   9  10
HETATM   10  C   UNK N   1      35.235  12.010  16.813  0.00  0.00    -0.034 A 
HETATM   11  C   UNK N   1      35.181  13.348  17.229  0.00  0.00     0.009 A 
HETATM   12  C   UNK N   1      35.184  13.655  18.595  0.00  0.00     0.001 A 
HETATM   13  C   UNK N   1      35.242  12.629  19.546  0.00  0.00     0.000 A 
HETATM   14  C   UNK N   1      35.296  11.296  19.132  0.00  0.00     0.001 A 
HETATM   15  C   UNK N   1      35.293  10.990  17.769  0.00  0.00     0.009 A 
ENDBRANCH   9  10
ENDBRANCH   8   9
ENDBRANCH   7   8
BRANCH   1  16
HETATM   16  N   UNK N   1      37.176  14.978  14.749  0.00  0.00    -0.383 N 
HETATM   17  H   UNK N   1      38.030  15.439  14.583  0.00  0.00     0.157 HD
HETATM   18  H   UNK N   1      36.848  14.869  15.672  0.00  0.00     0.157 HD
ENDBRANCH   1  16
TORSDOF 4
ENDMDL
MODEL 3
REMARK VINA RESULT:      -5.4      9.229     10.916
REMARK  4 active torsions:
REMARK  status: ('A' for Active; 'I' for Inactive)
REMARK    1  A    between atoms: N_1  and  C_2 
REMARK    2  A    between atoms: C_8  and  O_9 
REMARK    3  A    between atoms: O_9  and  C_10 
REMARK    4  A    between atoms: C_10  and  C_11 
ROOT
HETATM    1  C   UNK N   1      21.717  12.063  11.252  0.00  0.00     0.132 A 
HETATM    2  N   UNK N   1      22.763  11.837  12.094  0.00  0.00    -0.350 N 
ATOM      3  HN  UNK N   1      22.571  11.581  13.062  1.00  0.00     0.166 HD
HETATM    4  C   UNK N   1      24.052  11.943  11.685  0.00  0.00     0.090 A 
HETATM    5  C   UNK N   1      24.342  12.291  10.368  0.00  0.00     0.020 A 
HETATM    6  C   UNK N   1      23.295  12.530   9.477  0.00  0.00     0.042 A 
HETATM    7  C   UNK N   1      21.967  12.422   9.896  0.00  0.00     0.112 A 
ENDROOT
BRANCH   7   8
HETATM    8  O   UNK N   1      20.983  12.667   8.982  0.00  0.00    -0.343 OA
BRANCH   8   9
HETATM    9  C   UNK N   1      21.190  13.326   7.789  0.00  0.00     0.214 C 
BRANCH   9  10
HETATM   10  C   UNK N   1      20.878  14.788   7.827  0.00  0.00    -0.034 A 
HETATM   11  C   UNK N   1      20.064  15.360   8.816  0.00  0.00     0.009 A 
HETATM   12  C   UNK N   1      19.809  16.737   8.799  0.00  0.00     0.001 A 
HETATM   13  C   UNK N   1      20.364  17.542   7.798  0.00  0.00     0.000 A 
HETATM   14  C   UNK N   1      21.175  16.972   6.813  0.00  0.00     0.001 A 
HETATM   15  C   UNK N   1      21.430  15.599   6.830  0.00  0.00     0.009 A 
ENDBRANCH   9  10
ENDBRANCH   8   9
ENDBRANCH   7   8
BRANCH   1  16
HETATM   16  N   UNK N   1      20.408  11.932  11.757  0.00  0.00    -0.383 N 
HETATM   17  H   UNK N   1      19.817  11.223  11.415  0.00  0.00     0.157 HD
HETATM   18  H   UNK N   1      20.083  12.550  12.452  0.00  0.00     0.157 HD
ENDBRANCH   1  16
TORSDOF 4
ENDMDL
MODEL 4
REMARK VINA RESULT:      -5.4      1.562      2.290
REMARK  4 active torsions:
REMARK  status: ('A' for Active; 'I' for Inactive)
REMARK    1  A    between atoms: N_1  and  C_2 
REMARK    2  A    between atoms: C_8  and  O_9 
REMARK    3  A    between atoms: O_9  and  C_10 
REMARK    4  A    between atoms: C_10  and  C_11 
ROOT
HETATM    1  C   UNK N   1      28.214  18.802   4.824  0.00  0.00     0.132 A 
HETATM    2  N   UNK N   1      27.713  20.004   4.426  0.00  0.00    -0.350 N 
ATOM      3  HN  UNK N   1      27.674  20.217   3.429  1.00  0.00     0.166 HD
HETATM    4  C   UNK N   1      27.264  20.927   5.312  0.00  0.00     0.090 A 
HETATM    5  C   UNK N   1      27.306  20.662   6.679  0.00  0.00     0.020 A 
HETATM    6  C   UNK N   1      27.813  19.440   7.125  0.00  0.00     0.042 A 
HETATM    7  C   UNK N   1      28.276  18.488   6.213  0.00  0.00     0.112 A 
ENDROOT
BRANCH   7   8
HETATM    8  O   UNK N   1      28.761  17.311   6.704  0.00  0.00    -0.343 OA
BRANCH   8   9
HETATM    9  C   UNK N   1      29.651  17.226   7.753  0.00  0.00     0.214 C 
BRANCH   9  10
HETATM   10  C   UNK N   1      31.089  17.329   7.355  0.00  0.00    -0.034 A 
HETATM   11  C   UNK N   1      31.545  16.976   6.076  0.00  0.00     0.009 A 
HETATM   12  C   UNK N   1      32.905  17.096   5.763  0.00  0.00     0.001 A 
HETATM   13  C   UNK N   1      33.808  17.566   6.723  0.00  0.00     0.000 A 
HETATM   14  C   UNK N   1      33.354  17.917   7.996  0.00  0.00     0.001 A 
HETATM   15  C   UNK N   1      31.998  17.798   8.309  0.00  0.00     0.009 A 
ENDBRANCH   9  10
ENDBRANCH   8   9
ENDBRANCH   7   8
BRANCH   1  16
HETATM   16  N   UNK N   1      28.660  17.900   3.837  0.00  0.00    -0.383 N 
HETATM   17  H   UNK N   1      28.950  18.235   2.958  0.00  0.00     0.157 HD
HETATM   18  H   UNK N   1      28.681  16.933   4.026  0.00  0.00     0.157 HD
ENDBRANCH   1  16
TORSDOF 4
ENDMDL
MODEL 5
REMARK VINA RESULT:      -5.3      1.665      5.309
REMARK  4 active torsions:
REMARK  status: ('A' for Active; 'I' for Inactive)
REMARK    1  A    between atoms: N_1  and  C_2 
REMARK    2  A    between atoms: C_8  and  O_9 
REMARK    3  A    between atoms: O_9  and  C_10 
REMARK    4  A    between atoms: C_10  and  C_11 
ROOT
HETATM    1  C   UNK N   1      31.059  17.367   8.648  0.00  0.00     0.132 A 
HETATM    2  N   UNK N   1      32.379  17.516   8.951  0.00  0.00    -0.350 N 
ATOM      3  HN  UNK N   1      32.651  17.634   9.927  1.00  0.00     0.166 HD
HETATM    4  C   UNK N   1      33.342  17.514   7.996  0.00  0.00     0.090 A 
HETATM    5  C   UNK N   1      32.997  17.355   6.656  0.00  0.00     0.020 A 
HETATM    6  C   UNK N   1      31.655  17.200   6.307  0.00  0.00     0.042 A 
HETATM    7  C   UNK N   1      30.661  17.202   7.290  0.00  0.00     0.112 A 
ENDROOT
BRANCH   7   8
HETATM    8  O   UNK N   1      29.364  17.046   6.893  0.00  0.00    -0.343 OA
BRANCH   8   9
HETATM    9  C   UNK N   1      28.905  17.362   5.632  0.00  0.00     0.214 C 
BRANCH   9  10
HETATM   10  C   UNK N   1      28.141  18.645   5.555  0.00  0.00    -0.034 A 
HETATM   11  C   UNK N   1      27.686  19.181   4.342  0.00  0.00     0.009 A 
HETATM   12  C   UNK N   1      26.976  20.388   4.335  0.00  0.00     0.001 A 
HETATM   13  C   UNK N   1      26.720  21.060   5.536  0.00  0.00     0.000 A 
HETATM   14  C   UNK N   1      27.174  20.526   6.744  0.00  0.00     0.001 A 
HETATM   15  C   UNK N   1      27.882  19.323   6.751  0.00  0.00     0.009 A 
ENDBRANCH   9  10
ENDBRANCH   8   9
ENDBRANCH   7   8
BRANCH   1  16
HETATM   16  N   UNK N   1      30.122  17.382   9.701  0.00  0.00    -0.383 N 
HETATM   17  H   UNK N   1      29.918  18.225  10.167  0.00  0.00     0.157 HD
HETATM   18  H   UNK N   1      29.671  16.549   9.971  0.00  0.00     0.157 HD
ENDBRANCH   1  16
TORSDOF 4
ENDMDL
MODEL 6
REMARK VINA RESULT:      -5.3      3.713      6.751
REMARK  4 active torsions:
REMARK  status: ('A' for Active; 'I' for Inactive)
REMARK    1  A    between atoms: N_1  and  C_2 
REMARK    2  A    between atoms: C_8  and  O_9 
REMARK    3  A    between atoms: O_9  and  C_10 
REMARK    4  A    between atoms: C_10  and  C_11 
ROOT
HETATM    1  C   UNK N   1      33.425  14.921   9.899  0.00  0.00     0.132 A 
HETATM    2  N   UNK N   1      34.071  14.415  10.986  0.00  0.00    -0.350 N 
ATOM      3  HN  UNK N   1      33.749  13.533  11.384  1.00  0.00     0.166 HD
HETATM    4  C   UNK N   1      35.128  15.046  11.555  0.00  0.00     0.090 A 
HETATM    5  C   UNK N   1      35.588  16.252  11.030  0.00  0.00     0.020 A 
HETATM    6  C   UNK N   1      34.951  16.801   9.917  0.00  0.00     0.042 A 
HETATM    7  C   UNK N   1      33.862  16.153   9.329  0.00  0.00     0.112 A 
ENDROOT
BRANCH   7   8
HETATM    8  O   UNK N   1      33.276  16.735   8.242  0.00  0.00    -0.343 OA
BRANCH   8   9
HETATM    9  C   UNK N   1      32.620  17.947   8.281  0.00  0.00     0.214 C 
BRANCH   9  10
HETATM   10  C   UNK N   1      31.129  17.844   8.219  0.00  0.00    -0.034 A 
HETATM   11  C   UNK N   1      30.465  17.084   7.246  0.00  0.00     0.009 A 
HETATM   12  C   UNK N   1      29.065  17.027   7.240  0.00  0.00     0.001 A 
HETATM   13  C   UNK N   1      28.330  17.727   8.204  0.00  0.00     0.000 A 
HETATM   14  C   UNK N   1      28.991  18.484   9.173  0.00  0.00     0.001 A 
HETATM   15  C   UNK N   1      30.387  18.541   9.179  0.00  0.00     0.009 A 
ENDBRANCH   9  10
ENDBRANCH   8   9
ENDBRANCH   7   8
BRANCH   1  16
HETATM   16  N   UNK N   1      32.335  14.202   9.369  0.00  0.00    -0.383 N 
HETATM   17  H   UNK N   1      31.840  14.558   8.596  0.00  0.00     0.157 HD
HETATM   18  H   UNK N   1      32.069  13.343   9.771  0.00  0.00     0.157 HD
ENDBRANCH   1  16
TORSDOF 4
ENDMDL
MODEL 7
REMARK VINA RESULT:      -5.3      9.784     11.922
REMARK  4 active torsions:
REMARK  status: ('A' for Active; 'I' for Inactive)
REMARK    1  A    between atoms: N_1  and  C_2 
REMARK    2  A    between atoms: C_8  and  O_9 
REMARK    3  A    between atoms: O_9  and  C_10 
REMARK    4  A    between atoms: C_10  and  C_11 
ROOT
HETATM    1  C   UNK N   1      34.916  12.356  12.074  0.00  0.00     0.132 A 
HETATM    2  N   UNK N   1      35.461  12.913  10.957  0.00  0.00    -0.350 N 
ATOM      3  HN  UNK N   1      35.338  12.442  10.061  1.00  0.00     0.166 HD
HETATM    4  C   UNK N   1      36.162  14.073  10.999  0.00  0.00     0.090 A 
HETATM    5  C   UNK N   1      36.346  14.736  12.210  0.00  0.00     0.020 A 
HETATM    6  C   UNK N   1      35.801  14.196  13.376  0.00  0.00     0.042 A 
HETATM    7  C   UNK N   1      35.079  13.001  13.335  0.00  0.00     0.112 A 
ENDROOT
BRANCH   7   8
HETATM    8  O   UNK N   1      34.568  12.518  14.505  0.00  0.00    -0.343 OA
BRANCH   8   9
HETATM    9  C   UNK N   1      35.213  11.594  15.300  0.00  0.00     0.214 C 
BRANCH   9  10
HETATM   10  C   UNK N   1      35.240  11.940  16.754  0.00  0.00    -0.034 A 
HETATM   11  C   UNK N   1      35.373  10.970  17.759  0.00  0.00     0.009 A 
HETATM   12  C   UNK N   1      35.392  11.358  19.104  0.00  0.00     0.001 A 
HETATM   13  C   UNK N   1      35.279  12.711  19.448  0.00  0.00     0.000 A 
HETATM   14  C   UNK N   1      35.147  13.676  18.447  0.00  0.00     0.001 A 
HETATM   15  C   UNK N   1      35.128  13.290  17.105  0.00  0.00     0.009 A 
ENDBRANCH   9  10
ENDBRANCH   8   9
ENDBRANCH   7   8
BRANCH   1  16
HETATM   16  N   UNK N   1      34.202  11.148  11.943  0.00  0.00    -0.383 N 
HETATM   17  H   UNK N   1      34.602  10.390  11.459  0.00  0.00     0.157 HD
HETATM   18  H   UNK N   1      33.303  11.062  12.336  0.00  0.00     0.157 HD
ENDBRANCH   1  16
TORSDOF 4
ENDMDL
MODEL 8
REMARK VINA RESULT:      -5.3      3.550      6.435
REMARK  4 active torsions:
REMARK  status: ('A' for Active; 'I' for Inactive)
REMARK    1  A    between atoms: N_1  and  C_2 
REMARK    2  A    between atoms: C_8  and  O_9 
REMARK    3  A    between atoms: O_9  and  C_10 
REMARK    4  A    between atoms: C_10  and  C_11 
ROOT
HETATM    1  C   UNK N   1      34.510  17.382   9.189  0.00  0.00     0.132 A 
HETATM    2  N   UNK N   1      35.270  17.160  10.297  0.00  0.00    -0.350 N 
ATOM      3  HN  UNK N   1      35.954  17.863  10.575  1.00  0.00     0.166 HD
HETATM    4  C   UNK N   1      35.146  16.033  11.041  0.00  0.00     0.090 A 
HETATM    5  C   UNK N   1      34.219  15.057  10.684  0.00  0.00     0.020 A 
HETATM    6  C   UNK N   1      33.422  15.250   9.554  0.00  0.00     0.042 A 
HETATM    7  C   UNK N   1      33.549  16.410   8.786  0.00  0.00     0.112 A 
ENDROOT
BRANCH   7   8
HETATM    8  O   UNK N   1      32.744  16.547   7.691  0.00  0.00    -0.343 OA
BRANCH   8   9
HETATM    9  C   UNK N   1      31.485  15.993   7.590  0.00  0.00     0.214 C 
BRANCH   9  10
HETATM   10  C   UNK N   1      30.365  16.957   7.816  0.00  0.00    -0.034 A 
HETATM   11  C   UNK N   1      29.569  17.447   6.771  0.00  0.00     0.009 A 
HETATM   12  C   UNK N   1      28.534  18.349   7.046  0.00  0.00     0.001 A 
HETATM   13  C   UNK N   1      28.293  18.762   8.362  0.00  0.00     0.000 A 
HETATM   14  C   UNK N   1      29.086  18.274   9.403  0.00  0.00     0.001 A 
HETATM   15  C   UNK N   1      30.119  17.375   9.128  0.00  0.00     0.009 A 
ENDBRANCH   9  10
ENDBRANCH   8   9
ENDBRANCH   7   8
BRANCH   1  16
HETATM   16  N   UNK N   1      34.702  18.580   8.471  0.00  0.00    -0.383 N 
HETATM   17  H   UNK N   1      35.546  18.735   7.990  0.00  0.00     0.157 HD
HETATM   18  H   UNK N   1      33.991  19.262   8.450  0.00  0.00     0.157 HD
ENDBRANCH   1  16
TORSDOF 4
ENDMDL
MODEL 9
REMARK VINA RESULT:      -5.2      2.493      5.455
REMARK  4 active torsions:
REMARK  status: ('A' for Active; 'I' for Inactive)
REMARK    1  A    between atoms: N_1  and  C_2 
REMARK    2  A    between atoms: C_8  and  O_9 
REMARK    3  A    between atoms: O_9  and  C_10 
REMARK    4  A    between atoms: C_10  and  C_11 
ROOT
HETATM    1  C   UNK N   1      32.297  17.219   5.630  0.00  0.00     0.132 A 
HETATM    2  N   UNK N   1      33.551  17.580   6.019  0.00  0.00    -0.350 N 
ATOM      3  HN  UNK N   1      34.291  17.628   5.318  1.00  0.00     0.166 HD
HETATM    4  C   UNK N   1      33.847  17.880   7.308  0.00  0.00     0.090 A 
HETATM    5  C   UNK N   1      32.856  17.823   8.285  0.00  0.00     0.020 A 
HETATM    6  C   UNK N   1      31.559  17.456   7.924  0.00  0.00     0.042 A 
HETATM    7  C   UNK N   1      31.251  17.148   6.596  0.00  0.00     0.112 A 
ENDROOT
BRANCH   7   8
HETATM    8  O   UNK N   1      29.966  16.795   6.299  0.00  0.00    -0.343 OA
BRANCH   8   9
HETATM    9  C   UNK N   1      28.863  17.281   6.968  0.00  0.00     0.214 C 
BRANCH   9  10
HETATM   10  C   UNK N   1      28.299  18.542   6.398  0.00  0.00    -0.034 A 
HETATM   11  C   UNK N   1      27.815  19.584   7.202  0.00  0.00     0.009 A 
HETATM   12  C   UNK N   1      27.298  20.742   6.608  0.00  0.00     0.001 A 
HETATM   13  C   UNK N   1      27.263  20.861   5.213  0.00  0.00     0.000 A 
HETATM   14  C   UNK N   1      27.745  19.823   4.412  0.00  0.00     0.001 A 
HETATM   15  C   UNK N   1      28.261  18.668   5.005  0.00  0.00     0.009 A 
ENDBRANCH   9  10
ENDBRANCH   8   9
ENDBRANCH   7   8
BRANCH   1  16
HETATM   16  N   UNK N   1      32.074  16.924   4.270  0.00  0.00    -0.383 N 
HETATM   17  H   UNK N   1      32.524  16.154   3.853  0.00  0.00     0.157 HD
HETATM   18  H   UNK N   1      31.467  17.488   3.736  0.00  0.00     0.157 HD
ENDBRANCH   1  16
TORSDOF 4
ENDMDL
