MODEL 1
REMARK VINA RESULT:      -5.1      0.000      0.000
REMARK  8 active torsions:
REMARK  status: ('A' for Active; 'I' for Inactive)
REMARK    1  A    between atoms: P_1  and  O_3 
REMARK    2  A    between atoms: P_1  and  O_7 
REMARK    3  A    between atoms: P_1  and  O_8 
REMARK    4  A    between atoms: C_13  and  O_3 
REMARK    5  A    between atoms: C_10  and  O_4 
REMARK    6  A    between atoms: C_11  and  O_5 
REMARK    7  A    between atoms: O_6  and  C_14 
REMARK    8  A    between atoms: C_12  and  C_14 
ROOT
HETATM    1  O   UNK N   1      22.770  13.733   9.084  0.00  0.00    -0.348 OA
HETATM    2  C   UNK N   1      22.692  12.223  10.886  0.00  0.00     0.182 C 
HETATM    3  C   UNK N   1      21.310  12.399  10.370  0.00  0.00     0.205 C 
HETATM    4  C   UNK N   1      23.467  12.655   9.668  0.00  0.00     0.179 C 
HETATM    5  C   UNK N   1      21.480  13.720   9.660  0.00  0.00     0.303 C 
ENDROOT
BRANCH   5   6
HETATM    6  O   UNK N   1      20.506  13.861   8.660  0.00  0.00    -0.263 OA
BRANCH   6   7
HETATM    7  P   UNK N   1      20.103  15.557   8.642  0.00  0.00     0.393 P 
HETATM    8  O   UNK N   1      19.834  15.155   7.165  0.00  0.00    -0.631 OA
BRANCH   7   9
HETATM    9  O   UNK N   1      18.474  16.092   8.371  0.00  0.00    -0.307 OA
HETATM   10  H   UNK N   1      18.223  16.984   8.083  0.00  0.00     0.222 HD
ENDBRANCH   7   9
BRANCH   7  11
HETATM   11  O   UNK N   1      18.999  14.704   9.676  0.00  0.00    -0.307 OA
HETATM   12  H   UNK N   1      18.099  14.410   9.466  0.00  0.00     0.222 HD
ENDBRANCH   7  11
ENDBRANCH   6   7
ENDBRANCH   5   6
BRANCH   3  13
HETATM   13  O   UNK N   1      20.387  12.496  11.410  0.00  0.00    -0.388 OA
HETATM   14  H   UNK N   1      19.809  13.230  11.672  0.00  0.00     0.210 HD
ENDBRANCH   3  13
BRANCH   4  15
HETATM   15  C   UNK N   1      24.871  13.079  10.058  0.00  0.00     0.198 C 
BRANCH  15  16
HETATM   16  O   UNK N   1      25.158  12.632  11.348  0.00  0.00    -0.398 OA
HETATM   17  H   UNK N   1      25.494  13.198  12.062  0.00  0.00     0.209 HD
ENDBRANCH  15  16
ENDBRANCH   4  15
BRANCH   2  18
HETATM   18  O   UNK N   1      22.951  10.889  11.204  0.00  0.00    -0.390 OA
HETATM   19  H   UNK N   1      23.783  10.526  11.547  0.00  0.00     0.210 HD
ENDBRANCH   2  18
TORSDOF 8
ENDMDL
MODEL 2
REMARK VINA RESULT:      -4.9      7.895      9.889
REMARK  8 active torsions:
REMARK  status: ('A' for Active; 'I' for Inactive)
REMARK    1  A    between atoms: P_1  and  O_3 
REMARK    2  A    between atoms: P_1  and  O_7 
REMARK    3  A    between atoms: P_1  and  O_8 
REMARK    4  A    between atoms: C_13  and  O_3 
REMARK    5  A    between atoms: C_10  and  O_4 
REMARK    6  A    between atoms: C_11  and  O_5 
REMARK    7  A    between atoms: O_6  and  C_14 
REMARK    8  A    between atoms: C_12  and  C_14 
ROOT
HETATM    1  O   UNK N   1      21.782  18.226   3.448  0.00  0.00    -0.348 OA
HETATM    2  C   UNK N   1      20.703  20.041   2.412  0.00  0.00     0.182 C 
HETATM    3  C   UNK N   1      22.147  20.366   2.528  0.00  0.00     0.205 C 
HETATM    4  C   UNK N   1      20.780  18.539   2.506  0.00  0.00     0.179 C 
HETATM    5  C   UNK N   1      22.526  19.412   3.634  0.00  0.00     0.303 C 
ENDROOT
BRANCH   5   6
HETATM    6  O   UNK N   1      23.899  19.130   3.582  0.00  0.00    -0.263 OA
BRANCH   6   7
HETATM    7  P   UNK N   1      24.065  17.516   4.217  0.00  0.00     0.393 P 
HETATM    8  O   UNK N   1      25.486  17.774   3.642  0.00  0.00    -0.631 OA
BRANCH   7   9
HETATM    9  O   UNK N   1      25.110  17.180   5.562  0.00  0.00    -0.307 OA
HETATM   10  H   UNK N   1      25.797  17.779   5.894  0.00  0.00     0.222 HD
ENDBRANCH   7   9
BRANCH   7  11
HETATM   11  O   UNK N   1      23.765  18.627   5.516  0.00  0.00    -0.307 OA
HETATM   12  H   UNK N   1      22.949  18.730   6.031  0.00  0.00     0.222 HD
ENDBRANCH   7  11
ENDBRANCH   6   7
ENDBRANCH   5   6
BRANCH   3  13
HETATM   13  O   UNK N   1      22.341  21.693   2.912  0.00  0.00    -0.388 OA
HETATM   14  H   UNK N   1      22.443  22.495   2.375  0.00  0.00     0.210 HD
ENDBRANCH   3  13
BRANCH   4  15
HETATM   15  C   UNK N   1      19.443  17.968   2.943  0.00  0.00     0.198 C 
BRANCH  15  16
HETATM   16  O   UNK N   1      18.405  18.732   2.409  0.00  0.00    -0.398 OA
HETATM   17  H   UNK N   1      17.541  18.376   2.148  0.00  0.00     0.209 HD
ENDBRANCH  15  16
ENDBRANCH   4  15
BRANCH   2  18
HETATM   18  O   UNK N   1      20.186  20.445   1.181  0.00  0.00    -0.390 OA
HETATM   19  H   UNK N   1      19.585  19.940   0.611  0.00  0.00     0.210 HD
ENDBRANCH   2  18
TORSDOF 8
ENDMDL
MODEL 3
REMARK VINA RESULT:      -4.8      8.193     10.787
REMARK  8 active torsions:
REMARK  status: ('A' for Active; 'I' for Inactive)
REMARK    1  A    between atoms: P_1  and  O_3 
REMARK    2  A    between atoms: P_1  and  O_7 
REMARK    3  A    between atoms: P_1  and  O_8 
REMARK    4  A    between atoms: C_13  and  O_3 
REMARK    5  A    between atoms: C_10  and  O_4 
REMARK    6  A    between atoms: C_11  and  O_5 
REMARK    7  A    between atoms: O_6  and  C_14 
REMARK    8  A    between atoms: C_12  and  C_14 
ROOT
HETATM    1  O   UNK N   1      30.189  17.289   7.265  0.00  0.00    -0.348 OA
HETATM    2  C   UNK N   1      28.432  18.114   8.593  0.00  0.00     0.182 C 
HETATM    3  C   UNK N   1      29.713  18.606   9.161  0.00  0.00     0.205 C 
HETATM    4  C   UNK N   1      28.885  17.819   7.186  0.00  0.00     0.179 C 
HETATM    5  C   UNK N   1      30.654  17.590   8.565  0.00  0.00     0.303 C 
ENDROOT
BRANCH   5   6
HETATM    6  O   UNK N   1      31.955  18.111   8.500  0.00  0.00    -0.263 OA
BRANCH   6   7
HETATM    7  P   UNK N   1      33.006  16.725   8.392  0.00  0.00     0.393 P 
HETATM    8  O   UNK N   1      33.957  17.793   9.000  0.00  0.00    -0.631 OA
BRANCH   7   9
HETATM    9  O   UNK N   1      33.622  15.948   9.817  0.00  0.00    -0.307 OA
HETATM   10  H   UNK N   1      33.744  14.992   9.919  0.00  0.00     0.222 HD
ENDBRANCH   7   9
BRANCH   7  11
HETATM   11  O   UNK N   1      31.722  16.400   9.515  0.00  0.00    -0.307 OA
HETATM   12  H   UNK N   1      31.027  17.009   9.812  0.00  0.00     0.222 HD
ENDBRANCH   7  11
ENDBRANCH   6   7
ENDBRANCH   5   6
BRANCH   3  13
HETATM   13  O   UNK N   1      29.710  18.540  10.554  0.00  0.00    -0.388 OA
HETATM   14  H   UNK N   1      30.350  18.143  11.167  0.00  0.00     0.210 HD
ENDBRANCH   3  13
BRANCH   4  15
HETATM   15  C   UNK N   1      27.946  16.825   6.527  0.00  0.00     0.198 C 
BRANCH  15  16
HETATM   16  O   UNK N   1      26.879  16.545   7.381  0.00  0.00    -0.398 OA
HETATM   17  H   UNK N   1      26.659  15.658   7.709  0.00  0.00     0.209 HD
ENDBRANCH  15  16
ENDBRANCH   4  15
BRANCH   2  18
HETATM   18  O   UNK N   1      27.452  19.107   8.611  0.00  0.00    -0.390 OA
HETATM   19  H   UNK N   1      26.491  18.972   8.627  0.00  0.00     0.210 HD
ENDBRANCH   2  18
TORSDOF 8
ENDMDL
MODEL 4
REMARK VINA RESULT:      -4.8     12.288     13.819
REMARK  8 active torsions:
REMARK  status: ('A' for Active; 'I' for Inactive)
REMARK    1  A    between atoms: P_1  and  O_3 
REMARK    2  A    between atoms: P_1  and  O_7 
REMARK    3  A    between atoms: P_1  and  O_8 
REMARK    4  A    between atoms: C_13  and  O_3 
REMARK    5  A    between atoms: C_10  and  O_4 
REMARK    6  A    between atoms: C_11  and  O_5 
REMARK    7  A    between atoms: O_6  and  C_14 
REMARK    8  A    between atoms: C_12  and  C_14 
ROOT
HETATM    1  O   UNK N   1      36.365  14.896   9.574  0.00  0.00    -0.348 OA
HETATM    2  C   UNK N   1      34.967  13.792  11.110  0.00  0.00     0.182 C 
HETATM    3  C   UNK N   1      34.110  14.570  10.179  0.00  0.00     0.205 C 
HETATM    4  C   UNK N   1      36.207  13.675  10.262  0.00  0.00     0.179 C 
HETATM    5  C   UNK N   1      35.127  15.567   9.682  0.00  0.00     0.303 C 
ENDROOT
BRANCH   5   6
HETATM    6  O   UNK N   1      34.742  16.070   8.431  0.00  0.00    -0.263 OA
BRANCH   6   7
HETATM    7  P   UNK N   1      34.117  17.666   8.745  0.00  0.00     0.393 P 
HETATM    8  O   UNK N   1      35.336  17.612   9.707  0.00  0.00    -0.631 OA
BRANCH   7   9
HETATM    9  O   UNK N   1      35.024  19.087   8.326  0.00  0.00    -0.307 OA
HETATM   10  H   UNK N   1      34.750  19.747   7.670  0.00  0.00     0.222 HD
ENDBRANCH   7   9
BRANCH   7  11
HETATM   11  O   UNK N   1      34.681  17.571   7.105  0.00  0.00    -0.307 OA
HETATM   12  H   UNK N   1      35.519  17.902   6.747  0.00  0.00     0.222 HD
ENDBRANCH   7  11
ENDBRANCH   6   7
ENDBRANCH   5   6
BRANCH   3  13
HETATM   13  O   UNK N   1      33.067  15.201  10.856  0.00  0.00    -0.388 OA
HETATM   14  H   UNK N   1      32.953  16.130  11.110  0.00  0.00     0.210 HD
ENDBRANCH   3  13
BRANCH   4  15
HETATM   15  C   UNK N   1      37.418  13.396  11.133  0.00  0.00     0.198 C 
BRANCH  15  16
HETATM   16  O   UNK N   1      37.126  13.706  12.462  0.00  0.00    -0.398 OA
HETATM   17  H   UNK N   1      37.775  13.692  13.183  0.00  0.00     0.209 HD
ENDBRANCH  15  16
ENDBRANCH   4  15
BRANCH   2  18
HETATM   18  O   UNK N   1      34.419  12.538  11.380  0.00  0.00    -0.390 OA
HETATM   19  H   UNK N   1      34.453  12.060  12.224  0.00  0.00     0.210 HD
ENDBRANCH   2  18
TORSDOF 8
ENDMDL
MODEL 5
REMARK VINA RESULT:      -4.8      1.304      2.279
REMARK  8 active torsions:
REMARK  status: ('A' for Active; 'I' for Inactive)
REMARK    1  A    between atoms: P_1  and  O_3 
REMARK    2  A    between atoms: P_1  and  O_7 
REMARK    3  A    between atoms: P_1  and  O_8 
REMARK    4  A    between atoms: C_13  and  O_3 
REMARK    5  A    between atoms: C_10  and  O_4 
REMARK    6  A    between atoms: C_11  and  O_5 
REMARK    7  A    between atoms: O_6  and  C_14 
REMARK    8  A    between atoms: C_12  and  C_14 
ROOT
HETATM    1  O   UNK N   1      21.555  12.240  10.521  0.00  0.00    -0.348 OA
HETATM    2  C   UNK N   1      23.813  12.605   9.973  0.00  0.00     0.182 C 
HETATM    3  C   UNK N   1      22.979  13.067   8.834  0.00  0.00     0.205 C 
HETATM    4  C   UNK N   1      22.782  12.663  11.071  0.00  0.00     0.179 C 
HETATM    5  C   UNK N   1      21.719  12.288   9.118  0.00  0.00     0.303 C 
ENDROOT
BRANCH   5   6
HETATM    6  O   UNK N   1      20.614  12.918   8.527  0.00  0.00    -0.263 OA
BRANCH   6   7
HETATM    7  P   UNK N   1      20.708  14.585   9.029  0.00  0.00     0.393 P 
HETATM    8  O   UNK N   1      20.277  14.729   7.543  0.00  0.00    -0.631 OA
BRANCH   7   9
HETATM    9  O   UNK N   1      19.288  15.580   9.118  0.00  0.00    -0.307 OA
HETATM   10  H   UNK N   1      18.458  15.325   9.549  0.00  0.00     0.222 HD
ENDBRANCH   7   9
BRANCH   7  11
HETATM   11  O   UNK N   1      19.451  13.778   9.912  0.00  0.00    -0.307 OA
HETATM   12  H   UNK N   1      18.492  13.876   9.801  0.00  0.00     0.222 HD
ENDBRANCH   7  11
ENDBRANCH   6   7
ENDBRANCH   5   6
BRANCH   3  13
HETATM   13  O   UNK N   1      23.540  12.699   7.611  0.00  0.00    -0.388 OA
HETATM   14  H   UNK N   1      23.825  13.244   6.860  0.00  0.00     0.210 HD
ENDBRANCH   3  13
BRANCH   4  15
HETATM   15  C   UNK N   1      23.187  11.761  12.223  0.00  0.00     0.198 C 
BRANCH  15  16
HETATM   16  O   UNK N   1      24.175  12.384  12.987  0.00  0.00    -0.398 OA
HETATM   17  H   UNK N   1      25.097  12.493  12.705  0.00  0.00     0.209 HD
ENDBRANCH  15  16
ENDBRANCH   4  15
BRANCH   2  18
HETATM   18  O   UNK N   1      24.868  13.484  10.222  0.00  0.00    -0.390 OA
HETATM   19  H   UNK N   1      24.951  14.396   9.902  0.00  0.00     0.210 HD
ENDBRANCH   2  18
TORSDOF 8
ENDMDL
MODEL 6
REMARK VINA RESULT:      -4.7      7.573      9.310
REMARK  8 active torsions:
REMARK  status: ('A' for Active; 'I' for Inactive)
REMARK    1  A    between atoms: P_1  and  O_3 
REMARK    2  A    between atoms: P_1  and  O_7 
REMARK    3  A    between atoms: P_1  and  O_8 
REMARK    4  A    between atoms: C_13  and  O_3 
REMARK    5  A    between atoms: C_10  and  O_4 
REMARK    6  A    between atoms: C_11  and  O_5 
REMARK    7  A    between atoms: O_6  and  C_14 
REMARK    8  A    between atoms: C_12  and  C_14 
ROOT
HETATM    1  O   UNK N   1      22.310  18.351   3.597  0.00  0.00    -0.348 OA
HETATM    2  C   UNK N   1      21.869  20.390   2.510  0.00  0.00     0.182 C 
HETATM    3  C   UNK N   1      20.574  19.702   2.748  0.00  0.00     0.205 C 
HETATM    4  C   UNK N   1      22.708  19.703   3.557  0.00  0.00     0.179 C 
HETATM    5  C   UNK N   1      21.073  18.289   2.917  0.00  0.00     0.303 C 
ENDROOT
BRANCH   5   6
HETATM    6  O   UNK N   1      20.154  17.535   3.661  0.00  0.00    -0.263 OA
BRANCH   6   7
HETATM    7  P   UNK N   1      20.394  15.883   3.159  0.00  0.00     0.393 P 
HETATM    8  O   UNK N   1      19.548  15.699   4.450  0.00  0.00    -0.631 OA
BRANCH   7   9
HETATM    9  O   UNK N   1      19.063  14.901   2.630  0.00  0.00    -0.307 OA
HETATM   10  H   UNK N   1      19.046  13.931   2.654  0.00  0.00     0.222 HD
ENDBRANCH   7   9
BRANCH   7  11
HETATM   11  O   UNK N   1      19.446  16.724   1.972  0.00  0.00    -0.307 OA
HETATM   12  H   UNK N   1      19.762  17.173   1.171  0.00  0.00     0.222 HD
ENDBRANCH   7  11
ENDBRANCH   6   7
ENDBRANCH   5   6
BRANCH   3  13
HETATM   13  O   UNK N   1      19.729  19.815   1.645  0.00  0.00    -0.388 OA
HETATM   14  H   UNK N   1      18.870  20.258   1.554  0.00  0.00     0.210 HD
ENDBRANCH   3  13
BRANCH   4  15
HETATM   15  C   UNK N   1      24.182  19.813   3.208  0.00  0.00     0.198 C 
BRANCH  15  16
HETATM   16  O   UNK N   1      24.369  20.818   2.259  0.00  0.00    -0.398 OA
HETATM   17  H   UNK N   1      25.073  20.816   1.591  0.00  0.00     0.209 HD
ENDBRANCH  15  16
ENDBRANCH   4  15
BRANCH   2  18
HETATM   18  O   UNK N   1      21.773  21.759   2.758  0.00  0.00    -0.390 OA
HETATM   19  H   UNK N   1      21.680  22.187   3.624  0.00  0.00     0.210 HD
ENDBRANCH   2  18
TORSDOF 8
ENDMDL
MODEL 7
REMARK VINA RESULT:      -4.6      7.349      9.575
REMARK  8 active torsions:
REMARK  status: ('A' for Active; 'I' for Inactive)
REMARK    1  A    between atoms: P_1  and  O_3 
REMARK    2  A    between atoms: P_1  and  O_7 
REMARK    3  A    between atoms: P_1  and  O_8 
REMARK    4  A    between atoms: C_13  and  O_3 
REMARK    5  A    between atoms: C_10  and  O_4 
REMARK    6  A    between atoms: C_11  and  O_5 
REMARK    7  A    between atoms: O_6  and  C_14 
REMARK    8  A    between atoms: C_12  and  C_14 
ROOT
HETATM    1  O   UNK N   1      21.987  20.006   2.952  0.00  0.00    -0.348 OA
HETATM    2  C   UNK N   1      20.088  18.778   2.303  0.00  0.00     0.182 C 
HETATM    3  C   UNK N   1      20.681  18.119   3.495  0.00  0.00     0.205 C 
HETATM    4  C   UNK N   1      20.670  20.158   2.471  0.00  0.00     0.179 C 
HETATM    5  C   UNK N   1      22.082  18.673   3.411  0.00  0.00     0.303 C 
ENDROOT
BRANCH   5   6
HETATM    6  O   UNK N   1      22.692  18.643   4.674  0.00  0.00    -0.263 OA
BRANCH   6   7
HETATM    7  P   UNK N   1      24.155  17.722   4.461  0.00  0.00     0.393 P 
HETATM    8  O   UNK N   1      24.718  19.139   4.761  0.00  0.00    -0.631 OA
BRANCH   7   9
HETATM    9  O   UNK N   1      25.248  17.448   5.782  0.00  0.00    -0.307 OA
HETATM   10  H   UNK N   1      25.279  16.640   6.318  0.00  0.00     0.222 HD
ENDBRANCH   7   9
BRANCH   7  11
HETATM   11  O   UNK N   1      23.297  17.142   5.854  0.00  0.00    -0.307 OA
HETATM   12  H   UNK N   1      23.246  17.553   6.731  0.00  0.00     0.222 HD
ENDBRANCH   7  11
ENDBRANCH   6   7
ENDBRANCH   5   6
BRANCH   3  13
HETATM   13  O   UNK N   1      20.675  16.731   3.363  0.00  0.00    -0.388 OA
HETATM   14  H   UNK N   1      20.047  16.144   2.912  0.00  0.00     0.210 HD
ENDBRANCH   3  13
BRANCH   4  15
HETATM   15  C   UNK N   1      20.671  20.896   1.144  0.00  0.00     0.198 C 
BRANCH  15  16
HETATM   16  O   UNK N   1      20.575  19.981   0.095  0.00  0.00    -0.398 OA
HETATM   17  H   UNK N   1      19.799  19.888  -0.481  0.00  0.00     0.209 HD
ENDBRANCH  15  16
ENDBRANCH   4  15
BRANCH   2  18
HETATM   18  O   UNK N   1      18.695  18.805   2.375  0.00  0.00    -0.390 OA
HETATM   19  H   UNK N   1      18.097  18.044   2.307  0.00  0.00     0.210 HD
ENDBRANCH   2  18
TORSDOF 8
ENDMDL
MODEL 8
REMARK VINA RESULT:      -4.6      8.025      9.220
REMARK  8 active torsions:
REMARK  status: ('A' for Active; 'I' for Inactive)
REMARK    1  A    between atoms: P_1  and  O_3 
REMARK    2  A    between atoms: P_1  and  O_7 
REMARK    3  A    between atoms: P_1  and  O_8 
REMARK    4  A    between atoms: C_13  and  O_3 
REMARK    5  A    between atoms: C_10  and  O_4 
REMARK    6  A    between atoms: C_11  and  O_5 
REMARK    7  A    between atoms: O_6  and  C_14 
REMARK    8  A    between atoms: C_12  and  C_14 
ROOT
HETATM    1  O   UNK N   1      21.595  16.957   3.292  0.00  0.00    -0.348 OA
HETATM    2  C   UNK N   1      20.029  16.740   1.550  0.00  0.00     0.182 C 
HETATM    3  C   UNK N   1      19.848  18.076   2.172  0.00  0.00     0.205 C 
HETATM    4  C   UNK N   1      21.445  16.458   1.982  0.00  0.00     0.179 C 
HETATM    5  C   UNK N   1      20.494  17.815   3.510  0.00  0.00     0.303 C 
ENDROOT
BRANCH   5   6
HETATM    6  O   UNK N   1      20.930  19.020   4.082  0.00  0.00    -0.263 OA
BRANCH   6   7
HETATM    7  P   UNK N   1      21.108  20.128   2.748  0.00  0.00     0.393 P 
HETATM    8  O   UNK N   1      20.191  20.936   3.707  0.00  0.00    -0.631 OA
BRANCH   7   9
HETATM    9  O   UNK N   1      21.951  21.634   2.935  0.00  0.00    -0.307 OA
HETATM   10  H   UNK N   1      22.060  22.108   3.774  0.00  0.00     0.222 HD
ENDBRANCH   7   9
BRANCH   7  11
HETATM   11  O   UNK N   1      22.648  19.876   3.509  0.00  0.00    -0.307 OA
HETATM   12  H   UNK N   1      22.821  19.497   4.385  0.00  0.00     0.222 HD
ENDBRANCH   7  11
ENDBRANCH   6   7
ENDBRANCH   5   6
BRANCH   3  13
HETATM   13  O   UNK N   1      18.497  18.393   2.313  0.00  0.00    -0.388 OA
HETATM   14  H   UNK N   1      17.906  18.305   3.078  0.00  0.00     0.210 HD
ENDBRANCH   3  13
BRANCH   4  15
HETATM   15  C   UNK N   1      21.721  14.966   1.947  0.00  0.00     0.198 C 
BRANCH  15  16
HETATM   16  O   UNK N   1      21.993  14.566   0.638  0.00  0.00    -0.398 OA
HETATM   17  H   UNK N   1      21.404  14.012   0.101  0.00  0.00     0.209 HD
ENDBRANCH  15  16
ENDBRANCH   4  15
BRANCH   2  18
HETATM   18  O   UNK N   1      19.928  16.806   0.160  0.00  0.00    -0.390 OA
HETATM   19  H   UNK N   1      20.643  17.002  -0.465  0.00  0.00     0.210 HD
ENDBRANCH   2  18
TORSDOF 8
ENDMDL
MODEL 9
REMARK VINA RESULT:      -4.6     17.873     19.139
REMARK  8 active torsions:
REMARK  status: ('A' for Active; 'I' for Inactive)
REMARK    1  A    between atoms: P_1  and  O_3 
REMARK    2  A    between atoms: P_1  and  O_7 
REMARK    3  A    between atoms: P_1  and  O_8 
REMARK    4  A    between atoms: C_13  and  O_3 
REMARK    5  A    between atoms: C_10  and  O_4 
REMARK    6  A    between atoms: C_11  and  O_5 
REMARK    7  A    between atoms: O_6  and  C_14 
REMARK    8  A    between atoms: C_12  and  C_14 
ROOT
HETATM    1  O   UNK N   1      28.051  23.401  -5.401  0.00  0.00    -0.348 OA
HETATM    2  C   UNK N   1      25.936  24.393  -5.125  0.00  0.00     0.182 C 
HETATM    3  C   UNK N   1      26.890  25.074  -4.213  0.00  0.00     0.205 C 
HETATM    4  C   UNK N   1      26.913  23.822  -6.120  0.00  0.00     0.179 C 
HETATM    5  C   UNK N   1      27.955  24.009  -4.130  0.00  0.00     0.303 C 
ENDROOT
BRANCH   5   6
HETATM    6  O   UNK N   1      29.186  24.580  -3.776  0.00  0.00    -0.263 OA
BRANCH   6   7
HETATM    7  P   UNK N   1      30.157  23.259  -3.183  0.00  0.00     0.393 P 
HETATM    8  O   UNK N   1      31.001  24.489  -2.748  0.00  0.00    -0.631 OA
BRANCH   7   9
HETATM    9  O   UNK N   1      30.388  23.006  -1.481  0.00  0.00    -0.307 OA
HETATM   10  H   UNK N   1      30.805  22.223  -1.088  0.00  0.00     0.222 HD
ENDBRANCH   7   9
BRANCH   7  11
HETATM   11  O   UNK N   1      28.635  23.289  -2.348  0.00  0.00    -0.307 OA
HETATM   12  H   UNK N   1      28.364  22.745  -1.591  0.00  0.00     0.222 HD
ENDBRANCH   7  11
ENDBRANCH   6   7
ENDBRANCH   5   6
BRANCH   3  13
HETATM   13  O   UNK N   1      26.315  25.318  -2.966  0.00  0.00    -0.388 OA
HETATM   14  H   UNK N   1      26.378  24.818  -2.136  0.00  0.00     0.210 HD
ENDBRANCH   3  13
BRANCH   4  15
HETATM   15  C   UNK N   1      26.290  22.652  -6.860  0.00  0.00     0.198 C 
BRANCH  15  16
HETATM   16  O   UNK N   1      24.956  22.507  -6.478  0.00  0.00    -0.398 OA
HETATM   17  H   UNK N   1      24.461  21.674  -6.522  0.00  0.00     0.209 HD
ENDBRANCH  15  16
ENDBRANCH   4  15
BRANCH   2  18
HETATM   18  O   UNK N   1      25.071  25.305  -5.732  0.00  0.00    -0.390 OA
HETATM   19  H   UNK N   1      24.161  25.506  -5.464  0.00  0.00     0.210 HD
ENDBRANCH   2  18
TORSDOF 8
ENDMDL
