REMARK  8 active torsions:
REMARK  status: ('A' for Active; 'I' for Inactive)
REMARK    1  A    between atoms: P_1  and  O_3 
REMARK    2  A    between atoms: P_1  and  O_7 
REMARK    3  A    between atoms: P_1  and  O_8 
REMARK    4  A    between atoms: C_13  and  O_3 
REMARK    5  A    between atoms: C_10  and  O_4 
REMARK    6  A    between atoms: C_11  and  O_5 
REMARK    7  A    between atoms: O_6  and  C_14 
REMARK    8  A    between atoms: C_12  and  C_14 
ROOT
HETATM    1  O   UNK N   1       4.701   0.694  -0.122  0.00  0.00    -0.348 OA
HETATM    2  C   UNK N   1       5.270  -1.562   0.222  0.00  0.00     0.182 C 
HETATM    3  C   UNK N   1       3.839  -1.500  -0.171  0.00  0.00     0.205 C 
HETATM    4  C   UNK N   1       5.735  -0.241  -0.334  0.00  0.00     0.179 C 
HETATM    5  C   UNK N   1       3.548  -0.063   0.184  0.00  0.00     0.303 C 
ENDROOT
BRANCH   5   6
HETATM    6  O   UNK N   1       2.454   0.408  -0.557  0.00  0.00    -0.263 OA
BRANCH   6   7
HETATM    7  P   UNK N   1       1.748   1.673   0.412  0.00  0.00     0.393 P 
HETATM    8  O   UNK N   1       2.558   2.492  -0.631  0.00  0.00    -0.631 OA
BRANCH   7   9
HETATM    9  O   UNK N   1       0.567   2.761  -0.249  0.00  0.00    -0.307 OA
HETATM   10  H   UNK N   1       0.764   3.636  -0.618  0.00  0.00     0.222 HD
ENDBRANCH   7   9
BRANCH   7  11
HETATM   11  O   UNK N   1       0.494   0.792  -0.404  0.00  0.00    -0.307 OA
HETATM   12  H   UNK N   1      -0.282   1.153  -0.861  0.00  0.00     0.222 HD
ENDBRANCH   7  11
ENDBRANCH   6   7
ENDBRANCH   5   6
BRANCH   3  13
HETATM   13  O   UNK N   1       3.065  -2.378   0.587  0.00  0.00    -0.388 OA
HETATM   14  H   UNK N   1       2.266  -2.218   1.114  0.00  0.00     0.210 HD
ENDBRANCH   3  13
BRANCH   4  15
HETATM   15  C   UNK N   1       7.007   0.207   0.363  0.00  0.00     0.198 C 
BRANCH  15  16
HETATM   16  O   UNK N   1       7.410   1.445  -0.139  0.00  0.00    -0.398 OA
HETATM   17  H   UNK N   1       8.296   1.632  -0.488  0.00  0.00     0.209 HD
ENDBRANCH  15  16
ENDBRANCH   4  15
BRANCH   2  18
HETATM   18  O   UNK N   1       5.923  -2.629  -0.396  0.00  0.00    -0.390 OA
HETATM   19  H   UNK N   1       5.507  -3.393  -0.825  0.00  0.00     0.210 HD
ENDBRANCH   2  18
TORSDOF 8
