MODEL 1
REMARK VINA RESULT:      -9.2      0.000      0.000
REMARK  14 active torsions:
REMARK  status: ('A' for Active; 'I' for Inactive)
REMARK    1  A    between atoms: P_1  and  O_5 
REMARK    2  A    between atoms: P_1  and  O_6 
REMARK    3  A    between atoms: P_1  and  O_7 
REMARK    4  A    between atoms: C_20  and  O_3 
REMARK    5  A    between atoms: C_21  and  O_4 
REMARK    6  A    between atoms: O_5  and  C_24 
REMARK    7  A    between atoms: O_6  and  C_34 
REMARK    8  A    between atoms: C_22  and  N_10 
REMARK    9  A    between atoms: N_17  and  C_28 
REMARK   10  A    between atoms: C_30  and  N_19 
REMARK   11  A    between atoms: C_23  and  C_24 
REMARK   12  A    between atoms: C_29  and  C_30 
REMARK   13  A    between atoms: C_29  and  C_31 
REMARK   14  A    between atoms: C_30  and  C_34 
ROOT
HETATM    1  O   UNK N   1      32.813  15.007   7.859  0.00  0.00    -0.353 OA
HETATM    2  C   UNK N   1      33.930  16.646   6.620  0.00  0.00     0.198 C 
HETATM    3  C   UNK N   1      34.962  15.719   7.141  0.00  0.00     0.182 C 
HETATM    4  C   UNK N   1      32.844  16.395   7.636  0.00  0.00     0.262 C 
HETATM    5  C   UNK N   1      34.131  14.548   7.608  0.00  0.00     0.180 C 
ENDROOT
BRANCH   5   6
HETATM    6  C   UNK N   1      34.794  14.030   8.878  0.00  0.00     0.215 C 
BRANCH   6   7
HETATM    7  O   UNK N   1      35.744  14.931   9.352  0.00  0.00    -0.294 OA
BRANCH   7   8
HETATM    8  P   UNK N   1      35.055  15.601  10.807  0.00  0.00     0.400 P 
HETATM    9  O   UNK N   1      35.131  17.148  10.732  0.00  0.00    -0.631 OA
BRANCH   8  10
HETATM   10  O   UNK N   1      35.945  15.057  12.177  0.00  0.00    -0.218 OA
BRANCH  10  11
HETATM   11  C   UNK N   1      35.606  14.019  12.988  0.00  0.00     0.290 C 
HETATM   12  O   UNK N   1      34.679  13.300  12.656  0.00  0.00    -0.262 OA
BRANCH  11  13
HETATM   13  C   UNK N   1      36.283  13.735  14.303  0.00  0.00     0.179 C 
BRANCH  13  14
HETATM   14  N   UNK N   1      37.086  14.850  14.770  0.00  0.00    -0.418 N 
HETATM   15  H   UNK N   1      37.169  15.235  15.711  0.00  0.00     0.150 HD
HETATM   16  H   UNK N   1      37.648  15.314  14.056  0.00  0.00     0.150 HD
ENDBRANCH  13  14
BRANCH  13  17
HETATM   17  C   UNK N   1      35.289  13.295  15.364  0.00  0.00     0.075 C 
BRANCH  17  18
HETATM   18  C   UNK N   1      35.787  12.069  16.041  0.00  0.00    -0.028 A 
HETATM   19  C   UNK N   1      35.731  11.783  17.381  0.00  0.00    -0.002 A 
HETATM   20  C   UNK N   1      36.283  10.547  17.541  0.00  0.00     0.042 A 
HETATM   21  C   UNK N   1      35.230  12.514  18.455  0.00  0.00     0.014 A 
HETATM   22  N   UNK N   1      36.692  10.042  16.362  0.00  0.00    -0.365 N 
HETATM   23  C   UNK N   1      36.376   9.941  18.790  0.00  0.00     0.030 A 
HETATM   24  C   UNK N   1      36.389  10.978  15.425  0.00  0.00     0.096 A 
HETATM   25  H   UNK N   1      37.124   9.171  16.208  0.00  0.00     0.165 HD
HETATM   26  C   UNK N   1      35.877  10.650  19.900  0.00  0.00     0.002 A 
HETATM   27  C   UNK N   1      35.307  11.933  19.733  0.00  0.00     0.001 A 
ENDBRANCH  17  18
ENDBRANCH  13  17
ENDBRANCH  11  13
ENDBRANCH  10  11
ENDBRANCH   8  10
BRANCH   8  28
HETATM   28  O   UNK N   1      33.381  15.180  11.006  0.00  0.00    -0.307 OA
HETATM   29  H   UNK N   1      32.845  14.884  11.757  0.00  0.00     0.222 HD
ENDBRANCH   8  28
ENDBRANCH   7   8
ENDBRANCH   6   7
ENDBRANCH   5   6
BRANCH   3  30
HETATM   30  O   UNK N   1      35.861  15.342   6.145  0.00  0.00    -0.390 OA
HETATM   31  H   UNK N   1      36.762  15.668   5.995  0.00  0.00     0.210 HD
ENDBRANCH   3  30
BRANCH   4  32
HETATM   32  N   UNK N   1      31.523  16.900   7.237  0.00  0.00    -0.297 N 
HETATM   33  C   UNK N   1      30.563  17.491   7.967  0.00  0.00     0.142 A 
HETATM   34  N   UNK N   1      30.578  17.792   9.289  0.00  0.00    -0.336 N 
HETATM   35  C   UNK N   1      29.499  17.749   7.182  0.00  0.00     0.122 A 
HETATM   36  C   UNK N   1      29.467  18.379   9.831  0.00  0.00     0.183 A 
ATOM     37  HN  UNK N   1      31.395  17.587   9.863  1.00  0.00     0.168 HD
HETATM   38  N   UNK N   1      28.371  18.649   9.048  0.00  0.00    -0.337 N 
HETATM   39  C   UNK N   1      28.365  18.341   7.717  0.00  0.00     0.131 A 
ATOM     40  HN  UNK N   1      27.549  19.084   9.467  1.00  0.00     0.168 HD
HETATM   41  N   UNK N   1      29.747  17.338   5.925  0.00  0.00    -0.346 N 
HETATM   42  C   UNK N   1      31.004  16.813   5.984  0.00  0.00     0.188 A 
ATOM     43  HN  UNK N   1      29.134  17.406   5.113  1.00  0.00     0.167 HD
BRANCH  39  44
HETATM   44  N   UNK N   1      27.234  18.613   6.922  0.00  0.00    -0.383 N 
HETATM   45  H   UNK N   1      27.300  19.249   6.174  0.00  0.00     0.157 HD
HETATM   46  H   UNK N   1      26.378  18.167   7.117  0.00  0.00     0.157 HD
ENDBRANCH  39  44
ENDBRANCH   4  32
BRANCH   2  47
HETATM   47  O   UNK N   1      34.382  17.964   6.686  0.00  0.00    -0.388 OA
HETATM   48  H   UNK N   1      35.114  18.576   6.865  0.00  0.00     0.210 HD
ENDBRANCH   2  47
TORSDOF 14
ENDMDL
MODEL 2
REMARK VINA RESULT:      -8.9      1.538      2.146
REMARK  14 active torsions:
REMARK  status: ('A' for Active; 'I' for Inactive)
REMARK    1  A    between atoms: P_1  and  O_5 
REMARK    2  A    between atoms: P_1  and  O_6 
REMARK    3  A    between atoms: P_1  and  O_7 
REMARK    4  A    between atoms: C_20  and  O_3 
REMARK    5  A    between atoms: C_21  and  O_4 
REMARK    6  A    between atoms: O_5  and  C_24 
REMARK    7  A    between atoms: O_6  and  C_34 
REMARK    8  A    between atoms: C_22  and  N_10 
REMARK    9  A    between atoms: N_17  and  C_28 
REMARK   10  A    between atoms: C_30  and  N_19 
REMARK   11  A    between atoms: C_23  and  C_24 
REMARK   12  A    between atoms: C_29  and  C_30 
REMARK   13  A    between atoms: C_29  and  C_31 
REMARK   14  A    between atoms: C_30  and  C_34 
ROOT
HETATM    1  O   UNK N   1      32.694  15.092   7.792  0.00  0.00    -0.353 OA
HETATM    2  C   UNK N   1      33.843  16.713   6.559  0.00  0.00     0.198 C 
HETATM    3  C   UNK N   1      34.853  15.748   7.054  0.00  0.00     0.182 C 
HETATM    4  C   UNK N   1      32.764  16.482   7.586  0.00  0.00     0.262 C 
HETATM    5  C   UNK N   1      33.994  14.597   7.517  0.00  0.00     0.180 C 
ENDROOT
BRANCH   5   6
HETATM    6  C   UNK N   1      34.657  14.043   8.771  0.00  0.00     0.215 C 
BRANCH   6   7
HETATM    7  O   UNK N   1      35.627  14.917   9.255  0.00  0.00    -0.294 OA
BRANCH   7   8
HETATM    8  P   UNK N   1      34.993  15.514  10.766  0.00  0.00     0.400 P 
HETATM    9  O   UNK N   1      35.142  17.058  10.798  0.00  0.00    -0.631 OA
BRANCH   8  10
HETATM   10  O   UNK N   1      35.876  14.834  12.078  0.00  0.00    -0.218 OA
BRANCH  10  11
HETATM   11  C   UNK N   1      36.384  13.575  12.131  0.00  0.00     0.290 C 
HETATM   12  O   UNK N   1      37.418  13.339  11.528  0.00  0.00    -0.262 OA
BRANCH  11  13
HETATM   13  C   UNK N   1      35.715  12.436  12.853  0.00  0.00     0.179 C 
BRANCH  13  14
HETATM   14  N   UNK N   1      35.310  11.368  11.957  0.00  0.00    -0.418 N 
HETATM   15  H   UNK N   1      34.941  11.428  11.009  0.00  0.00     0.150 HD
HETATM   16  H   UNK N   1      35.412  10.423  12.329  0.00  0.00     0.150 HD
ENDBRANCH  13  14
BRANCH  13  17
HETATM   17  C   UNK N   1      36.576  11.903  13.984  0.00  0.00     0.075 C 
BRANCH  17  18
HETATM   18  C   UNK N   1      36.034  12.366  15.290  0.00  0.00    -0.028 A 
HETATM   19  C   UNK N   1      36.326  13.537  15.938  0.00  0.00    -0.002 A 
HETATM   20  C   UNK N   1      35.584  13.547  17.082  0.00  0.00     0.042 A 
HETATM   21  C   UNK N   1      37.176  14.587  15.598  0.00  0.00     0.014 A 
HETATM   22  N   UNK N   1      34.843  12.429  17.188  0.00  0.00    -0.365 N 
HETATM   23  C   UNK N   1      35.632  14.611  17.978  0.00  0.00     0.030 A 
HETATM   24  C   UNK N   1      35.114  11.689  16.082  0.00  0.00     0.096 A 
HETATM   25  H   UNK N   1      34.227  12.194  17.920  0.00  0.00     0.165 HD
HETATM   26  C   UNK N   1      36.479  15.692  17.666  0.00  0.00     0.002 A 
HETATM   27  C   UNK N   1      37.249  15.679  16.481  0.00  0.00     0.001 A 
ENDBRANCH  17  18
ENDBRANCH  13  17
ENDBRANCH  11  13
ENDBRANCH  10  11
ENDBRANCH   8  10
BRANCH   8  28
HETATM   28  O   UNK N   1      33.304  15.159  10.966  0.00  0.00    -0.307 OA
HETATM   29  H   UNK N   1      32.627  14.759  10.398  0.00  0.00     0.222 HD
ENDBRANCH   8  28
ENDBRANCH   7   8
ENDBRANCH   6   7
ENDBRANCH   5   6
BRANCH   3  30
HETATM   30  O   UNK N   1      35.728  15.357   6.041  0.00  0.00    -0.390 OA
HETATM   31  H   UNK N   1      36.496  14.768   6.106  0.00  0.00     0.210 HD
ENDBRANCH   3  30
BRANCH   4  32
HETATM   32  N   UNK N   1      31.454  17.031   7.212  0.00  0.00    -0.297 N 
HETATM   33  C   UNK N   1      30.493  17.581   7.972  0.00  0.00     0.142 A 
HETATM   34  N   UNK N   1      30.497  17.785   9.312  0.00  0.00    -0.336 N 
HETATM   35  C   UNK N   1      29.441  17.908   7.198  0.00  0.00     0.122 A 
HETATM   36  C   UNK N   1      29.388  18.345   9.884  0.00  0.00     0.183 A 
ATOM     37  HN  UNK N   1      31.305  17.529   9.879  1.00  0.00     0.168 HD
HETATM   38  N   UNK N   1      28.304  18.686   9.112  0.00  0.00    -0.337 N 
HETATM   39  C   UNK N   1      28.309  18.475   7.762  0.00  0.00     0.131 A 
ATOM     40  HN  UNK N   1      27.483  19.101   9.553  1.00  0.00     0.168 HD
HETATM   41  N   UNK N   1      29.697  17.586   5.917  0.00  0.00    -0.346 N 
HETATM   42  C   UNK N   1      30.947  17.041   5.950  0.00  0.00     0.188 A 
ATOM     43  HN  UNK N   1      29.095  17.720   5.106  1.00  0.00     0.167 HD
BRANCH  39  44
HETATM   44  N   UNK N   1      27.190  18.819   6.978  0.00  0.00    -0.383 N 
HETATM   45  H   UNK N   1      27.296  19.419   6.205  0.00  0.00     0.157 HD
HETATM   46  H   UNK N   1      26.302  18.458   7.204  0.00  0.00     0.157 HD
ENDBRANCH  39  44
ENDBRANCH   4  32
BRANCH   2  47
HETATM   47  O   UNK N   1      34.336  18.015   6.635  0.00  0.00    -0.388 OA
HETATM   48  H   UNK N   1      34.277  18.896   7.039  0.00  0.00     0.210 HD
ENDBRANCH   2  47
TORSDOF 14
ENDMDL
MODEL 3
REMARK VINA RESULT:      -8.4      2.070     10.893
REMARK  14 active torsions:
REMARK  status: ('A' for Active; 'I' for Inactive)
REMARK    1  A    between atoms: P_1  and  O_5 
REMARK    2  A    between atoms: P_1  and  O_6 
REMARK    3  A    between atoms: P_1  and  O_7 
REMARK    4  A    between atoms: C_20  and  O_3 
REMARK    5  A    between atoms: C_21  and  O_4 
REMARK    6  A    between atoms: O_5  and  C_24 
REMARK    7  A    between atoms: O_6  and  C_34 
REMARK    8  A    between atoms: C_22  and  N_10 
REMARK    9  A    between atoms: N_17  and  C_28 
REMARK   10  A    between atoms: C_30  and  N_19 
REMARK   11  A    between atoms: C_23  and  C_24 
REMARK   12  A    between atoms: C_29  and  C_30 
REMARK   13  A    between atoms: C_29  and  C_31 
REMARK   14  A    between atoms: C_30  and  C_34 
ROOT
HETATM    1  O   UNK N   1      35.120  13.269  14.136  0.00  0.00    -0.353 OA
HETATM    2  C   UNK N   1      36.913  11.797  13.830  0.00  0.00     0.198 C 
HETATM    3  C   UNK N   1      36.765  12.568  12.573  0.00  0.00     0.182 C 
HETATM    4  C   UNK N   1      35.510  11.937  14.366  0.00  0.00     0.262 C 
HETATM    5  C   UNK N   1      35.846  13.690  12.993  0.00  0.00     0.180 C 
ENDROOT
BRANCH   5   6
HETATM    6  C   UNK N   1      34.922  13.953  11.811  0.00  0.00     0.215 C 
BRANCH   6   7
HETATM    7  O   UNK N   1      34.548  15.293  11.754  0.00  0.00    -0.294 OA
BRANCH   7   8
HETATM    8  P   UNK N   1      35.522  15.987  10.484  0.00  0.00     0.400 P 
HETATM    9  O   UNK N   1      35.394  17.532  10.542  0.00  0.00    -0.631 OA
BRANCH   8  10
HETATM   10  O   UNK N   1      34.964  15.432   8.953  0.00  0.00    -0.218 OA
BRANCH  10  11
HETATM   11  C   UNK N   1      33.806  14.760   8.721  0.00  0.00     0.290 C 
HETATM   12  O   UNK N   1      33.870  13.615   8.305  0.00  0.00    -0.262 OA
BRANCH  11  13
HETATM   13  C   UNK N   1      32.440  15.367   8.903  0.00  0.00     0.179 C 
BRANCH  13  14
HETATM   14  N   UNK N   1      31.928  15.195  10.251  0.00  0.00    -0.418 N 
HETATM   15  H   UNK N   1      31.195  15.715  10.733  0.00  0.00     0.150 HD
HETATM   16  H   UNK N   1      32.364  14.448  10.792  0.00  0.00     0.150 HD
ENDBRANCH  13  14
BRANCH  13  17
HETATM   17  C   UNK N   1      32.414  16.829   8.492  0.00  0.00     0.075 C 
BRANCH  17  18
HETATM   18  C   UNK N   1      31.531  17.002   7.308  0.00  0.00    -0.028 A 
HETATM   19  C   UNK N   1      31.908  17.016   5.990  0.00  0.00    -0.002 A 
HETATM   20  C   UNK N   1      30.768  17.178   5.259  0.00  0.00     0.042 A 
HETATM   21  C   UNK N   1      33.159  16.889   5.392  0.00  0.00     0.014 A 
HETATM   22  N   UNK N   1      29.690  17.275   6.058  0.00  0.00    -0.365 N 
HETATM   23  C   UNK N   1      30.789  17.223   3.868  0.00  0.00     0.030 A 
HETATM   24  C   UNK N   1      30.152  17.167   7.331  0.00  0.00     0.096 A 
HETATM   25  H   UNK N   1      28.754  17.399   5.778  0.00  0.00     0.165 HD
HETATM   26  C   UNK N   1      32.037  17.096   3.228  0.00  0.00     0.002 A 
HETATM   27  C   UNK N   1      33.218  16.930   3.987  0.00  0.00     0.001 A 
ENDBRANCH  17  18
ENDBRANCH  13  17
ENDBRANCH  11  13
ENDBRANCH  10  11
ENDBRANCH   8  10
BRANCH   8  28
HETATM   28  O   UNK N   1      37.207  15.606  10.655  0.00  0.00    -0.307 OA
HETATM   29  H   UNK N   1      37.906  15.345  10.035  0.00  0.00     0.222 HD
ENDBRANCH   8  28
ENDBRANCH   7   8
ENDBRANCH   6   7
ENDBRANCH   5   6
BRANCH   3  30
HETATM   30  O   UNK N   1      37.991  13.055  12.123  0.00  0.00    -0.390 OA
HETATM   31  H   UNK N   1      38.326  13.089  11.213  0.00  0.00     0.210 HD
ENDBRANCH   3  30
BRANCH   4  32
HETATM   32  N   UNK N   1      35.372  11.578  15.783  0.00  0.00    -0.297 N 
HETATM   33  C   UNK N   1      35.344  12.357  16.877  0.00  0.00     0.142 A 
HETATM   34  N   UNK N   1      35.423  13.709  16.948  0.00  0.00    -0.336 N 
HETATM   35  C   UNK N   1      35.243  11.584  17.975  0.00  0.00     0.122 A 
HETATM   36  C   UNK N   1      35.398  14.294  18.185  0.00  0.00     0.183 A 
ATOM     37  HN  UNK N   1      35.499  14.274  16.103  1.00  0.00     0.168 HD
HETATM   38  N   UNK N   1      35.296  13.524  19.317  0.00  0.00    -0.337 N 
HETATM   39  C   UNK N   1      35.217  12.162  19.235  0.00  0.00     0.131 A 
ATOM     40  HN  UNK N   1      35.280  13.974  20.232  1.00  0.00     0.168 HD
HETATM   41  N   UNK N   1      35.195  10.287  17.620  0.00  0.00    -0.346 N 
HETATM   42  C   UNK N   1      35.281  10.308  16.259  0.00  0.00     0.188 A 
ATOM     43  HN  UNK N   1      35.113   9.474  18.229  1.00  0.00     0.167 HD
BRANCH  39  44
HETATM   44  N   UNK N   1      35.122  11.377  20.402  0.00  0.00    -0.383 N 
HETATM   45  H   UNK N   1      34.441  10.670  20.465  0.00  0.00     0.157 HD
HETATM   46  H   UNK N   1      35.737  11.538  21.154  0.00  0.00     0.157 HD
ENDBRANCH  39  44
ENDBRANCH   4  32
BRANCH   2  47
HETATM   47  O   UNK N   1      37.213  10.465  13.552  0.00  0.00    -0.388 OA
HETATM   48  H   UNK N   1      37.839   9.821  13.185  0.00  0.00     0.210 HD
ENDBRANCH   2  47
TORSDOF 14
ENDMDL
MODEL 4
REMARK VINA RESULT:      -8.4      1.880     10.613
REMARK  14 active torsions:
REMARK  status: ('A' for Active; 'I' for Inactive)
REMARK    1  A    between atoms: P_1  and  O_5 
REMARK    2  A    between atoms: P_1  and  O_6 
REMARK    3  A    between atoms: P_1  and  O_7 
REMARK    4  A    between atoms: C_20  and  O_3 
REMARK    5  A    between atoms: C_21  and  O_4 
REMARK    6  A    between atoms: O_5  and  C_24 
REMARK    7  A    between atoms: O_6  and  C_34 
REMARK    8  A    between atoms: C_22  and  N_10 
REMARK    9  A    between atoms: N_17  and  C_28 
REMARK   10  A    between atoms: C_30  and  N_19 
REMARK   11  A    between atoms: C_23  and  C_24 
REMARK   12  A    between atoms: C_29  and  C_30 
REMARK   13  A    between atoms: C_29  and  C_31 
REMARK   14  A    between atoms: C_30  and  C_34 
ROOT
HETATM    1  O   UNK N   1      34.918  13.262  13.945  0.00  0.00    -0.353 OA
HETATM    2  C   UNK N   1      36.843  11.958  13.691  0.00  0.00     0.198 C 
HETATM    3  C   UNK N   1      36.646  12.692  12.419  0.00  0.00     0.182 C 
HETATM    4  C   UNK N   1      35.425  11.975  14.203  0.00  0.00     0.262 C 
HETATM    5  C   UNK N   1      35.621  13.730  12.806  0.00  0.00     0.180 C 
ENDROOT
BRANCH   5   6
HETATM    6  C   UNK N   1      34.695  13.889  11.606  0.00  0.00     0.215 C 
BRANCH   6   7
HETATM    7  O   UNK N   1      34.234  15.197  11.496  0.00  0.00    -0.294 OA
BRANCH   7   8
HETATM    8  P   UNK N   1      35.176  15.910  10.214  0.00  0.00     0.400 P 
HETATM    9  O   UNK N   1      36.503  16.452  10.808  0.00  0.00    -0.631 OA
BRANCH   8  10
HETATM   10  O   UNK N   1      34.302  17.212   9.503  0.00  0.00    -0.218 OA
BRANCH  10  11
HETATM   11  C   UNK N   1      34.373  17.606   8.204  0.00  0.00     0.290 C 
HETATM   12  O   UNK N   1      34.934  18.657   7.944  0.00  0.00    -0.262 OA
BRANCH  11  13
HETATM   13  C   UNK N   1      33.754  16.838   7.066  0.00  0.00     0.179 C 
BRANCH  13  14
HETATM   14  N   UNK N   1      34.720  16.027   6.349  0.00  0.00    -0.418 N 
HETATM   15  H   UNK N   1      35.726  15.941   6.498  0.00  0.00     0.150 HD
HETATM   16  H   UNK N   1      34.340  15.460   5.590  0.00  0.00     0.150 HD
ENDBRANCH  13  14
BRANCH  13  17
HETATM   17  C   UNK N   1      32.574  16.001   7.528  0.00  0.00     0.075 C 
BRANCH  17  18
HETATM   18  C   UNK N   1      31.310  16.575   6.992  0.00  0.00    -0.028 A 
HETATM   19  C   UNK N   1      30.368  17.291   7.684  0.00  0.00    -0.002 A 
HETATM   20  C   UNK N   1      29.399  17.631   6.787  0.00  0.00     0.042 A 
HETATM   21  C   UNK N   1      30.303  17.669   9.023  0.00  0.00     0.014 A 
HETATM   22  N   UNK N   1      29.685  17.155   5.561  0.00  0.00    -0.365 N 
HETATM   23  C   UNK N   1      28.286  18.380   7.158  0.00  0.00     0.030 A 
HETATM   24  C   UNK N   1      30.868  16.499   5.677  0.00  0.00     0.096 A 
HETATM   25  H   UNK N   1      29.145  17.261   4.744  0.00  0.00     0.165 HD
HETATM   26  C   UNK N   1      28.188  18.782   8.504  0.00  0.00     0.002 A 
HETATM   27  C   UNK N   1      29.192  18.427   9.433  0.00  0.00     0.001 A 
ENDBRANCH  17  18
ENDBRANCH  13  17
ENDBRANCH  11  13
ENDBRANCH  10  11
ENDBRANCH   8  10
BRANCH   8  28
HETATM   28  O   UNK N   1      35.598  14.761   8.982  0.00  0.00    -0.307 OA
HETATM   29  H   UNK N   1      35.352  13.841   8.805  0.00  0.00     0.222 HD
ENDBRANCH   8  28
ENDBRANCH   7   8
ENDBRANCH   6   7
ENDBRANCH   5   6
BRANCH   3  30
HETATM   30  O   UNK N   1      37.829  13.283  11.979  0.00  0.00    -0.390 OA
HETATM   31  H   UNK N   1      38.512  12.902  11.405  0.00  0.00     0.210 HD
ENDBRANCH   3  30
BRANCH   4  32
HETATM   32  N   UNK N   1      35.298  11.628  15.625  0.00  0.00    -0.297 N 
HETATM   33  C   UNK N   1      35.321  12.411  16.715  0.00  0.00     0.142 A 
HETATM   34  N   UNK N   1      35.457  13.759  16.779  0.00  0.00    -0.336 N 
HETATM   35  C   UNK N   1      35.208  11.647  17.819  0.00  0.00     0.122 A 
HETATM   36  C   UNK N   1      35.477  14.349  18.013  0.00  0.00     0.183 A 
ATOM     37  HN  UNK N   1      35.541  14.317  15.930  1.00  0.00     0.168 HD
HETATM   38  N   UNK N   1      35.365  13.588  19.151  0.00  0.00    -0.337 N 
HETATM   39  C   UNK N   1      35.229  12.230  19.076  0.00  0.00     0.131 A 
ATOM     40  HN  UNK N   1      35.383  14.042  20.064  1.00  0.00     0.168 HD
HETATM   41  N   UNK N   1      35.102  10.352  17.470  0.00  0.00    -0.346 N 
HETATM   42  C   UNK N   1      35.164  10.364  16.107  0.00  0.00     0.188 A 
ATOM     43  HN  UNK N   1      34.997   9.545  18.084  1.00  0.00     0.167 HD
BRANCH  39  44
HETATM   44  N   UNK N   1      35.122  11.454  20.248  0.00  0.00    -0.383 N 
HETATM   45  H   UNK N   1      35.820  11.510  20.940  0.00  0.00     0.157 HD
HETATM   46  H   UNK N   1      34.350  10.857  20.374  0.00  0.00     0.157 HD
ENDBRANCH  39  44
ENDBRANCH   4  32
BRANCH   2  47
HETATM   47  O   UNK N   1      37.269  10.654  13.440  0.00  0.00    -0.388 OA
HETATM   48  H   UNK N   1      37.086   9.792  13.035  0.00  0.00     0.210 HD
ENDBRANCH   2  47
TORSDOF 14
ENDMDL
MODEL 5
REMARK VINA RESULT:      -8.3     10.914     13.350
REMARK  14 active torsions:
REMARK  status: ('A' for Active; 'I' for Inactive)
REMARK    1  A    between atoms: P_1  and  O_5 
REMARK    2  A    between atoms: P_1  and  O_6 
REMARK    3  A    between atoms: P_1  and  O_7 
REMARK    4  A    between atoms: C_20  and  O_3 
REMARK    5  A    between atoms: C_21  and  O_4 
REMARK    6  A    between atoms: O_5  and  C_24 
REMARK    7  A    between atoms: O_6  and  C_34 
REMARK    8  A    between atoms: C_22  and  N_10 
REMARK    9  A    between atoms: N_17  and  C_28 
REMARK   10  A    between atoms: C_30  and  N_19 
REMARK   11  A    between atoms: C_23  and  C_24 
REMARK   12  A    between atoms: C_29  and  C_30 
REMARK   13  A    between atoms: C_29  and  C_31 
REMARK   14  A    between atoms: C_30  and  C_34 
ROOT
HETATM    1  O   UNK N   1      23.358  18.679   4.215  0.00  0.00    -0.353 OA
HETATM    2  C   UNK N   1      24.162  20.589   3.130  0.00  0.00     0.198 C 
HETATM    3  C   UNK N   1      22.756  20.408   2.703  0.00  0.00     0.182 C 
HETATM    4  C   UNK N   1      24.481  19.168   3.523  0.00  0.00     0.262 C 
HETATM    5  C   UNK N   1      22.247  19.394   3.698  0.00  0.00     0.180 C 
ENDROOT
BRANCH   5   6
HETATM    6  C   UNK N   1      21.300  18.478   2.934  0.00  0.00     0.215 C 
BRANCH   6   7
HETATM    7  O   UNK N   1      20.087  18.338   3.602  0.00  0.00    -0.294 OA
BRANCH   7   8
HETATM    8  P   UNK N   1      20.168  16.778   4.378  0.00  0.00     0.400 P 
HETATM    9  O   UNK N   1      18.744  16.375   4.843  0.00  0.00    -0.631 OA
BRANCH   8  10
HETATM   10  O   UNK N   1      21.207  16.861   5.747  0.00  0.00    -0.218 OA
BRANCH  10  11
HETATM   11  C   UNK N   1      20.875  17.344   6.973  0.00  0.00     0.290 C 
HETATM   12  O   UNK N   1      20.860  18.552   7.138  0.00  0.00    -0.262 OA
BRANCH  11  13
HETATM   13  C   UNK N   1      20.570  16.468   8.160  0.00  0.00     0.179 C 
BRANCH  13  14
HETATM   14  N   UNK N   1      19.392  16.904   8.887  0.00  0.00    -0.418 N 
HETATM   15  H   UNK N   1      19.330  17.371   9.792  0.00  0.00     0.150 HD
HETATM   16  H   UNK N   1      18.500  16.720   8.427  0.00  0.00     0.150 HD
ENDBRANCH  13  14
BRANCH  13  17
HETATM   17  C   UNK N   1      20.457  15.006   7.765  0.00  0.00     0.075 C 
BRANCH  17  18
HETATM   18  C   UNK N   1      21.674  14.272   8.204  0.00  0.00    -0.028 A 
HETATM   19  C   UNK N   1      21.807  13.483   9.316  0.00  0.00    -0.002 A 
HETATM   20  C   UNK N   1      23.083  13.000   9.303  0.00  0.00     0.042 A 
HETATM   21  C   UNK N   1      20.902  13.153  10.322  0.00  0.00     0.014 A 
HETATM   22  N   UNK N   1      23.762  13.456   8.234  0.00  0.00    -0.365 N 
HETATM   23  C   UNK N   1      23.554  12.145  10.295  0.00  0.00     0.030 A 
HETATM   24  C   UNK N   1      22.897  14.246   7.546  0.00  0.00     0.096 A 
HETATM   25  H   UNK N   1      24.697  13.258   7.998  0.00  0.00     0.165 HD
HETATM   26  C   UNK N   1      22.666  11.788  11.327  0.00  0.00     0.002 A 
HETATM   27  C   UNK N   1      21.345  12.291  11.342  0.00  0.00     0.001 A 
ENDBRANCH  17  18
ENDBRANCH  13  17
ENDBRANCH  11  13
ENDBRANCH  10  11
ENDBRANCH   8  10
BRANCH   8  28
HETATM   28  O   UNK N   1      20.727  15.531   3.306  0.00  0.00    -0.307 OA
HETATM   29  H   UNK N   1      20.804  15.453   2.343  0.00  0.00     0.222 HD
ENDBRANCH   8  28
ENDBRANCH   7   8
ENDBRANCH   6   7
ENDBRANCH   5   6
BRANCH   3  30
HETATM   30  O   UNK N   1      22.039  21.602   2.779  0.00  0.00    -0.390 OA
HETATM   31  H   UNK N   1      22.247  22.395   3.298  0.00  0.00     0.210 HD
ENDBRANCH   3  30
BRANCH   4  32
HETATM   32  N   UNK N   1      25.703  19.029   4.325  0.00  0.00    -0.297 N 
HETATM   33  C   UNK N   1      26.078  18.059   5.176  0.00  0.00     0.142 A 
HETATM   34  N   UNK N   1      25.409  16.927   5.507  0.00  0.00    -0.336 N 
HETATM   35  C   UNK N   1      27.269  18.375   5.718  0.00  0.00     0.122 A 
HETATM   36  C   UNK N   1      25.976  16.085   6.424  0.00  0.00     0.183 A 
ATOM     37  HN  UNK N   1      24.507  16.710   5.083  1.00  0.00     0.168 HD
HETATM   38  N   UNK N   1      27.190  16.390   6.990  0.00  0.00    -0.337 N 
HETATM   39  C   UNK N   1      27.857  17.533   6.650  0.00  0.00     0.131 A 
ATOM     40  HN  UNK N   1      27.599  15.753   7.674  1.00  0.00     0.168 HD
HETATM   41  N   UNK N   1      27.699  19.551   5.227  0.00  0.00    -0.346 N 
HETATM   42  C   UNK N   1      26.712  19.939   4.369  0.00  0.00     0.188 A 
ATOM     43  HN  UNK N   1      28.566  20.041   5.445  1.00  0.00     0.167 HD
BRANCH  39  44
HETATM   44  N   UNK N   1      29.098  17.843   7.242  0.00  0.00    -0.383 N 
HETATM   45  H   UNK N   1      29.140  18.094   8.192  0.00  0.00     0.157 HD
HETATM   46  H   UNK N   1      29.921  17.807   6.703  0.00  0.00     0.157 HD
ENDBRANCH  39  44
ENDBRANCH   4  32
BRANCH   2  47
HETATM   47  O   UNK N   1      24.949  21.000   2.055  0.00  0.00    -0.388 OA
HETATM   48  H   UNK N   1      25.147  21.681   1.392  0.00  0.00     0.210 HD
ENDBRANCH   2  47
TORSDOF 14
ENDMDL
MODEL 6
REMARK VINA RESULT:      -8.3      2.577     11.019
REMARK  14 active torsions:
REMARK  status: ('A' for Active; 'I' for Inactive)
REMARK    1  A    between atoms: P_1  and  O_5 
REMARK    2  A    between atoms: P_1  and  O_6 
REMARK    3  A    between atoms: P_1  and  O_7 
REMARK    4  A    between atoms: C_20  and  O_3 
REMARK    5  A    between atoms: C_21  and  O_4 
REMARK    6  A    between atoms: O_5  and  C_24 
REMARK    7  A    between atoms: O_6  and  C_34 
REMARK    8  A    between atoms: C_22  and  N_10 
REMARK    9  A    between atoms: N_17  and  C_28 
REMARK   10  A    between atoms: C_30  and  N_19 
REMARK   11  A    between atoms: C_23  and  C_24 
REMARK   12  A    between atoms: C_29  and  C_30 
REMARK   13  A    between atoms: C_29  and  C_31 
REMARK   14  A    between atoms: C_30  and  C_34 
ROOT
HETATM    1  O   UNK N   1      33.919  14.575  10.552  0.00  0.00    -0.353 OA
HETATM    2  C   UNK N   1      35.838  15.840  10.988  0.00  0.00     0.198 C 
HETATM    3  C   UNK N   1      35.255  16.357   9.728  0.00  0.00     0.182 C 
HETATM    4  C   UNK N   1      35.256  14.449  10.972  0.00  0.00     0.262 C 
HETATM    5  C   UNK N   1      33.882  15.730   9.731  0.00  0.00     0.180 C 
ENDROOT
BRANCH   5   6
HETATM    6  C   UNK N   1      33.568  15.375   8.283  0.00  0.00     0.215 C 
BRANCH   6   7
HETATM    7  O   UNK N   1      32.754  16.339   7.695  0.00  0.00    -0.294 OA
BRANCH   7   8
HETATM    8  P   UNK N   1      33.712  17.027   6.410  0.00  0.00     0.400 P 
HETATM    9  O   UNK N   1      34.459  18.273   6.953  0.00  0.00    -0.631 OA
BRANCH   8  10
HETATM   10  O   UNK N   1      32.688  17.504   5.110  0.00  0.00    -0.218 OA
BRANCH  10  11
HETATM   11  C   UNK N   1      31.846  16.691   4.419  0.00  0.00     0.290 C 
HETATM   12  O   UNK N   1      32.246  15.590   4.081  0.00  0.00    -0.262 OA
BRANCH  11  13
HETATM   13  C   UNK N   1      30.456  17.094   4.001  0.00  0.00     0.179 C 
BRANCH  13  14
HETATM   14  N   UNK N   1      30.164  16.743   2.624  0.00  0.00    -0.418 N 
HETATM   15  H   UNK N   1      30.596  16.030   2.035  0.00  0.00     0.150 HD
HETATM   16  H   UNK N   1      29.421  17.285   2.181  0.00  0.00     0.150 HD
ENDBRANCH  13  14
BRANCH  13  17
HETATM   17  C   UNK N   1      29.402  16.536   4.942  0.00  0.00     0.075 C 
BRANCH  17  18
HETATM   18  C   UNK N   1      28.938  17.605   5.866  0.00  0.00    -0.028 A 
HETATM   19  C   UNK N   1      28.184  18.704   5.546  0.00  0.00    -0.002 A 
HETATM   20  C   UNK N   1      27.981  19.391   6.707  0.00  0.00     0.042 A 
HETATM   21  C   UNK N   1      27.660  19.137   4.330  0.00  0.00     0.014 A 
HETATM   22  N   UNK N   1      28.581  18.777   7.744  0.00  0.00    -0.365 N 
HETATM   23  C   UNK N   1      27.236  20.566   6.744  0.00  0.00     0.030 A 
HETATM   24  C   UNK N   1      29.177  17.669   7.233  0.00  0.00     0.096 A 
HETATM   25  H   UNK N   1      28.587  19.072   8.683  0.00  0.00     0.165 HD
HETATM   26  C   UNK N   1      26.689  21.032   5.533  0.00  0.00     0.002 A 
HETATM   27  C   UNK N   1      26.902  20.321   4.330  0.00  0.00     0.001 A 
ENDBRANCH  17  18
ENDBRANCH  13  17
ENDBRANCH  11  13
ENDBRANCH  10  11
ENDBRANCH   8  10
BRANCH   8  28
HETATM   28  O   UNK N   1      34.917  15.925   5.817  0.00  0.00    -0.307 OA
HETATM   29  H   UNK N   1      35.879  15.974   5.705  0.00  0.00     0.222 HD
ENDBRANCH   8  28
ENDBRANCH   7   8
ENDBRANCH   6   7
ENDBRANCH   5   6
BRANCH   3  30
HETATM   30  O   UNK N   1      35.181  17.749   9.730  0.00  0.00    -0.390 OA
HETATM   31  H   UNK N   1      34.388  18.307   9.691  0.00  0.00     0.210 HD
ENDBRANCH   3  30
BRANCH   4  32
HETATM   32  N   UNK N   1      35.347  13.747  12.259  0.00  0.00    -0.297 N 
HETATM   33  C   UNK N   1      34.924  12.522  12.612  0.00  0.00     0.142 A 
HETATM   34  N   UNK N   1      34.303  11.594  11.843  0.00  0.00    -0.336 N 
HETATM   35  C   UNK N   1      35.187  12.315  13.916  0.00  0.00     0.122 A 
HETATM   36  C   UNK N   1      33.937  10.411  12.425  0.00  0.00     0.183 A 
ATOM     37  HN  UNK N   1      34.113  11.773  10.857  1.00  0.00     0.168 HD
HETATM   38  N   UNK N   1      34.195  10.181  13.755  0.00  0.00    -0.337 N 
HETATM   39  C   UNK N   1      34.822  11.123  14.522  0.00  0.00     0.131 A 
ATOM     40  HN  UNK N   1      33.915   9.296  14.175  1.00  0.00     0.168 HD
HETATM   41  N   UNK N   1      35.793  13.398  14.438  0.00  0.00    -0.346 N 
HETATM   42  C   UNK N   1      35.878  14.272  13.395  0.00  0.00     0.188 A 
ATOM     43  HN  UNK N   1      36.117  13.532  15.396  1.00  0.00     0.167 HD
BRANCH  39  44
HETATM   44  N   UNK N   1      35.075  10.883  15.887  0.00  0.00    -0.383 N 
HETATM   45  H   UNK N   1      34.400  11.121  16.562  0.00  0.00     0.157 HD
HETATM   46  H   UNK N   1      35.929  10.478  16.165  0.00  0.00     0.157 HD
ENDBRANCH  39  44
ENDBRANCH   4  32
BRANCH   2  47
HETATM   47  O   UNK N   1      37.229  15.803  10.903  0.00  0.00    -0.388 OA
HETATM   48  H   UNK N   1      38.076  15.616  11.338  0.00  0.00     0.210 HD
ENDBRANCH   2  47
TORSDOF 14
ENDMDL
MODEL 7
REMARK VINA RESULT:      -8.3      2.493     10.423
REMARK  14 active torsions:
REMARK  status: ('A' for Active; 'I' for Inactive)
REMARK    1  A    between atoms: P_1  and  O_5 
REMARK    2  A    between atoms: P_1  and  O_6 
REMARK    3  A    between atoms: P_1  and  O_7 
REMARK    4  A    between atoms: C_20  and  O_3 
REMARK    5  A    between atoms: C_21  and  O_4 
REMARK    6  A    between atoms: O_5  and  C_24 
REMARK    7  A    between atoms: O_6  and  C_34 
REMARK    8  A    between atoms: C_22  and  N_10 
REMARK    9  A    between atoms: N_17  and  C_28 
REMARK   10  A    between atoms: C_30  and  N_19 
REMARK   11  A    between atoms: C_23  and  C_24 
REMARK   12  A    between atoms: C_29  and  C_30 
REMARK   13  A    between atoms: C_29  and  C_31 
REMARK   14  A    between atoms: C_30  and  C_34 
ROOT
HETATM    1  O   UNK N   1      34.407  14.516  11.852  0.00  0.00    -0.353 OA
HETATM    2  C   UNK N   1      36.507  13.650  11.294  0.00  0.00     0.198 C 
HETATM    3  C   UNK N   1      36.318  14.879  10.489  0.00  0.00     0.182 C 
HETATM    4  C   UNK N   1      35.062  13.307  11.556  0.00  0.00     0.262 C 
HETATM    5  C   UNK N   1      35.132  15.524  11.165  0.00  0.00     0.180 C 
ENDROOT
BRANCH   5   6
HETATM    6  C   UNK N   1      34.296  16.154  10.058  0.00  0.00     0.215 C 
BRANCH   6   7
HETATM    7  O   UNK N   1      35.054  16.355   8.908  0.00  0.00    -0.294 OA
BRANCH   7   8
HETATM    8  P   UNK N   1      34.368  17.765   8.145  0.00  0.00     0.400 P 
HETATM    9  O   UNK N   1      32.924  17.969   8.675  0.00  0.00    -0.631 OA
BRANCH   8  10
HETATM   10  O   UNK N   1      34.316  17.537   6.439  0.00  0.00    -0.218 OA
BRANCH  10  11
HETATM   11  C   UNK N   1      34.268  16.342   5.795  0.00  0.00     0.290 C 
HETATM   12  O   UNK N   1      35.294  15.690   5.699  0.00  0.00    -0.262 OA
BRANCH  11  13
HETATM   13  C   UNK N   1      33.023  15.795   5.146  0.00  0.00     0.179 C 
BRANCH  13  14
HETATM   14  N   UNK N   1      33.213  14.458   4.614  0.00  0.00    -0.418 N 
HETATM   15  H   UNK N   1      33.064  13.557   5.068  0.00  0.00     0.150 HD
HETATM   16  H   UNK N   1      33.541  14.414   3.649  0.00  0.00     0.150 HD
ENDBRANCH  13  14
BRANCH  13  17
HETATM   17  C   UNK N   1      31.831  15.845   6.086  0.00  0.00     0.075 C 
BRANCH  17  18
HETATM   18  C   UNK N   1      30.761  16.693   5.495  0.00  0.00    -0.028 A 
HETATM   19  C   UNK N   1      29.849  17.462   6.169  0.00  0.00    -0.002 A 
HETATM   20  C   UNK N   1      29.083  18.079   5.225  0.00  0.00     0.042 A 
HETATM   21  C   UNK N   1      29.649  17.666   7.533  0.00  0.00     0.014 A 
HETATM   22  N   UNK N   1      29.468  17.728   3.984  0.00  0.00    -0.365 N 
HETATM   23  C   UNK N   1      28.056  18.953   5.569  0.00  0.00     0.030 A 
HETATM   24  C   UNK N   1      30.508  16.868   4.140  0.00  0.00     0.096 A 
HETATM   25  H   UNK N   1      29.074  18.031   3.134  0.00  0.00     0.165 HD
HETATM   26  C   UNK N   1      27.826  19.185   6.939  0.00  0.00     0.002 A 
HETATM   27  C   UNK N   1      28.619  18.542   7.917  0.00  0.00     0.001 A 
ENDBRANCH  17  18
ENDBRANCH  13  17
ENDBRANCH  11  13
ENDBRANCH  10  11
ENDBRANCH   8  10
BRANCH   8  28
HETATM   28  O   UNK N   1      35.255  19.214   8.505  0.00  0.00    -0.307 OA
HETATM   29  H   UNK N   1      35.170  19.907   9.177  0.00  0.00     0.222 HD
ENDBRANCH   8  28
ENDBRANCH   7   8
ENDBRANCH   6   7
ENDBRANCH   5   6
BRANCH   3  30
HETATM   30  O   UNK N   1      37.442  15.702  10.538  0.00  0.00    -0.390 OA
HETATM   31  H   UNK N   1      37.541  16.556  10.987  0.00  0.00     0.210 HD
ENDBRANCH   3  30
BRANCH   4  32
HETATM   32  N   UNK N   1      34.866  12.320  12.625  0.00  0.00    -0.297 N 
HETATM   33  C   UNK N   1      35.058  12.425  13.951  0.00  0.00     0.142 A 
HETATM   34  N   UNK N   1      35.479  13.504  14.655  0.00  0.00    -0.336 N 
HETATM   35  C   UNK N   1      34.785  11.244  14.538  0.00  0.00     0.122 A 
HETATM   36  C   UNK N   1      35.628  13.375  16.009  0.00  0.00     0.183 A 
ATOM     37  HN  UNK N   1      35.680  14.388  14.188  1.00  0.00     0.168 HD
HETATM   38  N   UNK N   1      35.356  12.179  16.628  0.00  0.00    -0.337 N 
HETATM   39  C   UNK N   1      34.932  11.096  15.909  0.00  0.00     0.131 A 
ATOM     40  HN  UNK N   1      35.473  12.097  17.637  1.00  0.00     0.168 HD
HETATM   41  N   UNK N   1      34.403  10.348  13.610  0.00  0.00    -0.346 N 
HETATM   42  C   UNK N   1      34.464  11.035  12.434  0.00  0.00     0.188 A 
ATOM     43  HN  UNK N   1      34.129   9.377  13.754  1.00  0.00     0.167 HD
BRANCH  39  44
HETATM   44  N   UNK N   1      34.664   9.870  16.549  0.00  0.00    -0.383 N 
HETATM   45  H   UNK N   1      34.501   9.061  16.014  0.00  0.00     0.157 HD
HETATM   46  H   UNK N   1      34.639   9.824  17.532  0.00  0.00     0.157 HD
ENDBRANCH  39  44
ENDBRANCH   4  32
BRANCH   2  47
HETATM   47  O   UNK N   1      37.126  12.660  10.533  0.00  0.00    -0.388 OA
HETATM   48  H   UNK N   1      37.893  12.078  10.405  0.00  0.00     0.210 HD
ENDBRANCH   2  47
TORSDOF 14
ENDMDL
MODEL 8
REMARK VINA RESULT:      -8.2      1.466      2.102
REMARK  14 active torsions:
REMARK  status: ('A' for Active; 'I' for Inactive)
REMARK    1  A    between atoms: P_1  and  O_5 
REMARK    2  A    between atoms: P_1  and  O_6 
REMARK    3  A    between atoms: P_1  and  O_7 
REMARK    4  A    between atoms: C_20  and  O_3 
REMARK    5  A    between atoms: C_21  and  O_4 
REMARK    6  A    between atoms: O_5  and  C_24 
REMARK    7  A    between atoms: O_6  and  C_34 
REMARK    8  A    between atoms: C_22  and  N_10 
REMARK    9  A    between atoms: N_17  and  C_28 
REMARK   10  A    between atoms: C_30  and  N_19 
REMARK   11  A    between atoms: C_23  and  C_24 
REMARK   12  A    between atoms: C_29  and  C_30 
REMARK   13  A    between atoms: C_29  and  C_31 
REMARK   14  A    between atoms: C_30  and  C_34 
ROOT
HETATM    1  O   UNK N   1      32.752  15.876   9.134  0.00  0.00    -0.353 OA
HETATM    2  C   UNK N   1      33.909  16.408   7.172  0.00  0.00     0.198 C 
HETATM    3  C   UNK N   1      34.900  15.851   8.122  0.00  0.00     0.182 C 
HETATM    4  C   UNK N   1      32.869  16.881   8.157  0.00  0.00     0.262 C 
HETATM    5  C   UNK N   1      34.017  15.236   9.180  0.00  0.00     0.180 C 
ENDROOT
BRANCH   5   6
HETATM    6  C   UNK N   1      34.714  15.474  10.514  0.00  0.00     0.215 C 
BRANCH   6   7
HETATM    7  O   UNK N   1      34.265  14.581  11.482  0.00  0.00    -0.294 OA
BRANCH   7   8
HETATM    8  P   UNK N   1      35.578  13.457  11.714  0.00  0.00     0.400 P 
HETATM    9  O   UNK N   1      35.711  12.573  10.446  0.00  0.00    -0.631 OA
BRANCH   8  10
HETATM   10  O   UNK N   1      35.252  12.451  13.072  0.00  0.00    -0.218 OA
BRANCH  10  11
HETATM   11  C   UNK N   1      36.147  12.083  14.026  0.00  0.00     0.290 C 
HETATM   12  O   UNK N   1      36.790  11.060  13.858  0.00  0.00    -0.262 OA
BRANCH  11  13
HETATM   13  C   UNK N   1      36.358  12.843  15.309  0.00  0.00     0.179 C 
BRANCH  13  14
HETATM   14  N   UNK N   1      37.148  14.046  15.121  0.00  0.00    -0.418 N 
HETATM   15  H   UNK N   1      37.202  14.660  14.309  0.00  0.00     0.150 HD
HETATM   16  H   UNK N   1      37.731  14.315  15.914  0.00  0.00     0.150 HD
ENDBRANCH  13  14
BRANCH  13  17
HETATM   17  C   UNK N   1      35.042  13.157  16.000  0.00  0.00     0.075 C 
BRANCH  17  18
HETATM   18  C   UNK N   1      35.155  12.860  17.453  0.00  0.00    -0.028 A 
HETATM   19  C   UNK N   1      35.216  11.625  18.042  0.00  0.00    -0.002 A 
HETATM   20  C   UNK N   1      35.336  11.837  19.384  0.00  0.00     0.042 A 
HETATM   21  C   UNK N   1      35.183  10.344  17.496  0.00  0.00     0.014 A 
HETATM   22  N   UNK N   1      35.347  13.152  19.668  0.00  0.00    -0.365 N 
HETATM   23  C   UNK N   1      35.437  10.782  20.287  0.00  0.00     0.030 A 
HETATM   24  C   UNK N   1      35.234  13.796  18.477  0.00  0.00     0.096 A 
HETATM   25  H   UNK N   1      35.420  13.565  20.559  0.00  0.00     0.165 HD
HETATM   26  C   UNK N   1      35.410   9.473  19.770  0.00  0.00     0.002 A 
HETATM   27  C   UNK N   1      35.282   9.255  18.379  0.00  0.00     0.001 A 
ENDBRANCH  17  18
ENDBRANCH  13  17
ENDBRANCH  11  13
ENDBRANCH  10  11
ENDBRANCH   8  10
BRANCH   8  28
HETATM   28  O   UNK N   1      37.104  14.254  11.944  0.00  0.00    -0.307 OA
HETATM   29  H   UNK N   1      37.932  14.284  11.441  0.00  0.00     0.222 HD
ENDBRANCH   8  28
ENDBRANCH   7   8
ENDBRANCH   6   7
ENDBRANCH   5   6
BRANCH   3  30
HETATM   30  O   UNK N   1      35.710  14.893   7.514  0.00  0.00    -0.390 OA
HETATM   31  H   UNK N   1      35.746  13.940   7.689  0.00  0.00     0.210 HD
ENDBRANCH   3  30
BRANCH   4  32
HETATM   32  N   UNK N   1      31.567  17.189   7.551  0.00  0.00    -0.297 N 
HETATM   33  C   UNK N   1      30.423  17.606   8.117  0.00  0.00     0.142 A 
HETATM   34  N   UNK N   1      30.179  17.870   9.424  0.00  0.00    -0.336 N 
HETATM   35  C   UNK N   1      29.470  17.720   7.171  0.00  0.00     0.122 A 
HETATM   36  C   UNK N   1      28.919  18.265   9.781  0.00  0.00     0.183 A 
ATOM     37  HN  UNK N   1      30.916  17.777  10.123  1.00  0.00     0.168 HD
HETATM   38  N   UNK N   1      27.933  18.385   8.832  0.00  0.00    -0.337 N 
HETATM   39  C   UNK N   1      28.188  18.117   7.516  0.00  0.00     0.131 A 
ATOM     40  HN  UNK N   1      26.998  18.679   9.113  1.00  0.00     0.168 HD
HETATM   41  N   UNK N   1      29.976  17.386   5.970  0.00  0.00    -0.346 N 
HETATM   42  C   UNK N   1      31.274  17.057   6.230  0.00  0.00     0.188 A 
ATOM     43  HN  UNK N   1      29.498  17.381   5.069  1.00  0.00     0.167 HD
BRANCH  39  44
HETATM   44  N   UNK N   1      27.169  18.235   6.550  0.00  0.00    -0.383 N 
HETATM   45  H   UNK N   1      27.317  17.900   5.636  0.00  0.00     0.157 HD
HETATM   46  H   UNK N   1      26.310  18.652   6.789  0.00  0.00     0.157 HD
ENDBRANCH  39  44
ENDBRANCH   4  32
BRANCH   2  47
HETATM   47  O   UNK N   1      34.457  17.481   6.470  0.00  0.00    -0.388 OA
HETATM   48  H   UNK N   1      35.246  17.900   6.091  0.00  0.00     0.210 HD
ENDBRANCH   2  47
TORSDOF 14
ENDMDL
MODEL 9
REMARK VINA RESULT:      -8.2     11.679     16.116
REMARK  14 active torsions:
REMARK  status: ('A' for Active; 'I' for Inactive)
REMARK    1  A    between atoms: P_1  and  O_5 
REMARK    2  A    between atoms: P_1  and  O_6 
REMARK    3  A    between atoms: P_1  and  O_7 
REMARK    4  A    between atoms: C_20  and  O_3 
REMARK    5  A    between atoms: C_21  and  O_4 
REMARK    6  A    between atoms: O_5  and  C_24 
REMARK    7  A    between atoms: O_6  and  C_34 
REMARK    8  A    between atoms: C_22  and  N_10 
REMARK    9  A    between atoms: N_17  and  C_28 
REMARK   10  A    between atoms: C_30  and  N_19 
REMARK   11  A    between atoms: C_23  and  C_24 
REMARK   12  A    between atoms: C_29  and  C_30 
REMARK   13  A    between atoms: C_29  and  C_31 
REMARK   14  A    between atoms: C_30  and  C_34 
ROOT
HETATM    1  O   UNK N   1      20.987  13.366   6.781  0.00  0.00    -0.353 OA
HETATM    2  C   UNK N   1      20.094  15.285   7.774  0.00  0.00     0.198 C 
HETATM    3  C   UNK N   1      19.957  15.452   6.309  0.00  0.00     0.182 C 
HETATM    4  C   UNK N   1      21.237  14.302   7.801  0.00  0.00     0.262 C 
HETATM    5  C   UNK N   1      20.229  14.057   5.802  0.00  0.00     0.180 C 
ENDROOT
BRANCH   5   6
HETATM    6  C   UNK N   1      21.008  14.215   4.502  0.00  0.00     0.215 C 
BRANCH   6   7
HETATM    7  O   UNK N   1      20.875  15.502   3.990  0.00  0.00    -0.294 OA
BRANCH   7   8
HETATM    8  P   UNK N   1      20.302  15.289   2.356  0.00  0.00     0.400 P 
HETATM    9  O   UNK N   1      21.362  14.490   1.554  0.00  0.00    -0.631 OA
BRANCH   8  10
HETATM   10  O   UNK N   1      20.072  16.825   1.615  0.00  0.00    -0.218 OA
BRANCH  10  11
HETATM   11  C   UNK N   1      19.945  18.013   2.263  0.00  0.00     0.290 C 
HETATM   12  O   UNK N   1      18.996  18.169   3.012  0.00  0.00    -0.262 OA
BRANCH  11  13
HETATM   13  C   UNK N   1      20.888  19.172   2.071  0.00  0.00     0.179 C 
BRANCH  13  14
HETATM   14  N   UNK N   1      20.404  20.128   1.093  0.00  0.00    -0.418 N 
HETATM   15  H   UNK N   1      19.873  20.987   1.239  0.00  0.00     0.150 HD
HETATM   16  H   UNK N   1      20.627  19.912   0.121  0.00  0.00     0.150 HD
ENDBRANCH  13  14
BRANCH  13  17
HETATM   17  C   UNK N   1      21.215  19.855   3.387  0.00  0.00     0.075 C 
BRANCH  17  18
HETATM   18  C   UNK N   1      22.438  19.248   3.978  0.00  0.00    -0.028 A 
HETATM   19  C   UNK N   1      23.740  19.573   3.699  0.00  0.00    -0.002 A 
HETATM   20  C   UNK N   1      24.519  18.778   4.487  0.00  0.00     0.042 A 
HETATM   21  C   UNK N   1      24.285  20.508   2.823  0.00  0.00     0.014 A 
HETATM   22  N   UNK N   1      23.766  17.961   5.246  0.00  0.00    -0.365 N 
HETATM   23  C   UNK N   1      25.908  18.858   4.464  0.00  0.00     0.030 A 
HETATM   24  C   UNK N   1      22.473  18.244   4.938  0.00  0.00     0.096 A 
HETATM   25  H   UNK N   1      24.086  17.292   5.894  0.00  0.00     0.165 HD
HETATM   26  C   UNK N   1      26.495  19.795   3.591  0.00  0.00     0.002 A 
HETATM   27  C   UNK N   1      25.686  20.616   2.773  0.00  0.00     0.001 A 
ENDBRANCH  17  18
ENDBRANCH  13  17
ENDBRANCH  11  13
ENDBRANCH  10  11
ENDBRANCH   8  10
BRANCH   8  28
HETATM   28  O   UNK N   1      18.819  14.388   2.284  0.00  0.00    -0.307 OA
HETATM   29  H   UNK N   1      17.882  14.625   2.348  0.00  0.00     0.222 HD
ENDBRANCH   8  28
ENDBRANCH   7   8
ENDBRANCH   6   7
ENDBRANCH   5   6
BRANCH   3  30
HETATM   30  O   UNK N   1      18.678  15.881   5.959  0.00  0.00    -0.390 OA
HETATM   31  H   UNK N   1      18.055  16.404   6.488  0.00  0.00     0.210 HD
ENDBRANCH   3  30
BRANCH   4  32
HETATM   32  N   UNK N   1      21.427  13.639   9.098  0.00  0.00    -0.297 N 
HETATM   33  C   UNK N   1      22.548  13.202   9.694  0.00  0.00     0.142 A 
HETATM   34  N   UNK N   1      23.824  13.276   9.241  0.00  0.00    -0.336 N 
HETATM   35  C   UNK N   1      22.234  12.618  10.866  0.00  0.00     0.122 A 
HETATM   36  C   UNK N   1      24.817  12.736  10.012  0.00  0.00     0.183 A 
ATOM     37  HN  UNK N   1      24.038  13.722   8.349  1.00  0.00     0.168 HD
HETATM   38  N   UNK N   1      24.517  12.136  11.211  0.00  0.00    -0.337 N 
HETATM   39  C   UNK N   1      23.228  12.065  11.659  0.00  0.00     0.131 A 
ATOM     40  HN  UNK N   1      25.268  11.736  11.774  1.00  0.00     0.168 HD
HETATM   41  N   UNK N   1      20.904  12.671  11.062  0.00  0.00    -0.346 N 
HETATM   42  C   UNK N   1      20.425  13.304   9.953  0.00  0.00     0.188 A 
ATOM     43  HN  UNK N   1      20.375  12.319  11.859  1.00  0.00     0.167 HD
BRANCH  39  44
HETATM   44  N   UNK N   1      22.928  11.440  12.886  0.00  0.00    -0.383 N 
HETATM   45  H   UNK N   1      22.114  10.893  12.973  0.00  0.00     0.157 HD
HETATM   46  H   UNK N   1      23.532  11.552  13.655  0.00  0.00     0.157 HD
ENDBRANCH  39  44
ENDBRANCH   4  32
BRANCH   2  47
HETATM   47  O   UNK N   1      20.458  16.492   8.370  0.00  0.00    -0.388 OA
HETATM   48  H   UNK N   1      21.155  17.141   8.557  0.00  0.00     0.210 HD
ENDBRANCH   2  47
TORSDOF 14
ENDMDL
