MODEL 1
REMARK VINA RESULT:      -7.4      0.000      0.000
REMARK  3 active torsions:
REMARK  status: ('A' for Active; 'I' for Inactive)
REMARK    1  A    between atoms: N_6  and  C_14 
REMARK       I    between atoms: N_6  and  C_16 
REMARK       I    between atoms: N_7  and  C_16 
REMARK    2  A    between atoms: N_7  and  C_17 
REMARK    3  A    between atoms: C_8  and  C_9 
ROOT
HETATM    1  O   UNK N   1      34.951  14.001  12.951  0.00  0.00    -0.247 OA
HETATM    2  N   UNK N   1      36.484  15.367  12.063  0.00  0.00    -0.293 N 
HETATM    3  N   UNK N   1      36.851  14.255  14.102  0.00  0.00    -0.309 N 
HETATM    4  C   UNK N   1      36.054  14.523  13.034  0.00  0.00     0.326 C 
HETATM    5  H   UNK N   1      37.265  15.933  12.257  0.00  0.00     0.172 HD
HETATM    6  H   UNK N   1      37.624  14.840  14.279  0.00  0.00     0.170 HD
ENDROOT
BRANCH   2   7
HETATM    7  C   UNK N   1      35.871  15.488  10.776  0.00  0.00     0.127 A 
HETATM    8  N   UNK N   1      36.047  14.647   9.726  0.00  0.00    -0.281 N 
HETATM    9  N   UNK N   1      35.410  15.128   8.678  0.00  0.00    -0.301 N 
HETATM   10  C   UNK N   1      36.869  13.451   9.630  0.00  0.00     0.179 C 
HETATM   11  C   UNK N   1      34.828  16.288   9.037  0.00  0.00     0.037 A 
ATOM     12  HN  UNK N   1      35.365  14.698   7.754  1.00  0.00     0.187 HD
HETATM   13  C   UNK N   1      35.106  16.565  10.374  0.00  0.00     0.077 A 
BRANCH  11  14
HETATM   14  C   UNK N   1      34.046  17.157   8.089  0.00  0.00    -0.007 C 
HETATM   15  C   UNK N   1      32.579  17.156   8.469  0.00  0.00     0.021 C 
HETATM   16  C   UNK N   1      34.577  18.577   8.144  0.00  0.00     0.021 C 
HETATM   17  C   UNK N   1      34.172  16.658   6.657  0.00  0.00     0.021 C 
ENDBRANCH  11  14
ENDBRANCH   2   7
BRANCH   3  18
HETATM   18  C   UNK N   1      36.605  13.155  14.975  0.00  0.00     0.036 A 
HETATM   19  C   UNK N   1      37.131  11.891  14.687  0.00  0.00     0.031 A 
HETATM   20  C   UNK N   1      36.863  10.811  15.539  0.00  0.00     0.026 A 
HETATM   21  C   UNK N   1      36.051  10.988  16.666  0.00  0.00     0.034 A 
HETATM   22 Cl   UNK N   1      35.720   9.650  17.743  0.00  0.00    -0.084 Cl
HETATM   23  C   UNK N   1      35.500  12.238  16.940  0.00  0.00     0.026 A 
HETATM   24  C   UNK N   1      35.774  13.312  16.100  0.00  0.00     0.031 A 
ENDBRANCH   3  18
TORSDOF 3
ENDMDL
MODEL 2
REMARK VINA RESULT:      -6.5      3.258      8.206
REMARK  3 active torsions:
REMARK  status: ('A' for Active; 'I' for Inactive)
REMARK    1  A    between atoms: N_6  and  C_14 
REMARK       I    between atoms: N_6  and  C_16 
REMARK       I    between atoms: N_7  and  C_16 
REMARK    2  A    between atoms: N_7  and  C_17 
REMARK    3  A    between atoms: C_8  and  C_9 
ROOT
HETATM    1  O   UNK N   1      35.095  13.698  11.978  0.00  0.00    -0.247 OA
HETATM    2  N   UNK N   1      37.122  13.629  12.922  0.00  0.00    -0.293 N 
HETATM    3  N   UNK N   1      36.765  14.641  10.829  0.00  0.00    -0.309 N 
HETATM    4  C   UNK N   1      36.283  13.978  11.914  0.00  0.00     0.326 C 
HETATM    5  H   UNK N   1      38.090  13.669  12.751  0.00  0.00     0.172 HD
HETATM    6  H   UNK N   1      37.738  14.661  10.676  0.00  0.00     0.170 HD
ENDROOT
BRANCH   2   7
HETATM    7  C   UNK N   1      36.687  13.206  14.217  0.00  0.00     0.127 A 
HETATM    8  N   UNK N   1      36.704  13.953  15.349  0.00  0.00    -0.281 N 
HETATM    9  N   UNK N   1      36.329  13.202  16.365  0.00  0.00    -0.301 N 
HETATM   10  C   UNK N   1      37.152  15.322  15.543  0.00  0.00     0.179 C 
HETATM   11  C   UNK N   1      36.076  11.963  15.902  0.00  0.00     0.037 A 
ATOM     12  HN  UNK N   1      36.244  13.507  17.336  1.00  0.00     0.187 HD
HETATM   13  C   UNK N   1      36.303  11.916  14.527  0.00  0.00     0.077 A 
BRANCH  11  14
HETATM   14  C   UNK N   1      35.666  10.812  16.780  0.00  0.00    -0.007 C 
HETATM   15  C   UNK N   1      35.289  11.318  18.158  0.00  0.00     0.021 C 
HETATM   16  C   UNK N   1      34.477  10.100  16.165  0.00  0.00     0.021 C 
HETATM   17  C   UNK N   1      36.797   9.806  16.930  0.00  0.00     0.021 C 
ENDBRANCH  11  14
ENDBRANCH   2   7
BRANCH   3  18
HETATM   18  C   UNK N   1      35.907  15.308   9.906  0.00  0.00     0.036 A 
HETATM   19  C   UNK N   1      35.635  14.742   8.656  0.00  0.00     0.031 A 
HETATM   20  C   UNK N   1      34.810  15.419   7.747  0.00  0.00     0.026 A 
HETATM   21  C   UNK N   1      34.275  16.671   8.078  0.00  0.00     0.034 A 
HETATM   22 Cl   UNK N   1      33.234  17.518   6.956  0.00  0.00    -0.084 Cl
HETATM   23  C   UNK N   1      34.568  17.251   9.310  0.00  0.00     0.026 A 
HETATM   24  C   UNK N   1      35.379  16.575  10.216  0.00  0.00     0.031 A 
ENDBRANCH   3  18
TORSDOF 3
ENDMDL
MODEL 3
REMARK VINA RESULT:      -6.3      1.669      2.699
REMARK  3 active torsions:
REMARK  status: ('A' for Active; 'I' for Inactive)
REMARK    1  A    between atoms: N_6  and  C_14 
REMARK       I    between atoms: N_6  and  C_16 
REMARK       I    between atoms: N_7  and  C_16 
REMARK    2  A    between atoms: N_7  and  C_17 
REMARK    3  A    between atoms: C_8  and  C_9 
ROOT
HETATM    1  O   UNK N   1      35.058  13.586  13.270  0.00  0.00    -0.247 OA
HETATM    2  N   UNK N   1      36.875  14.378  12.232  0.00  0.00    -0.293 N 
HETATM    3  N   UNK N   1      36.937  13.686  14.478  0.00  0.00    -0.309 N 
HETATM    4  C   UNK N   1      36.245  13.873  13.322  0.00  0.00     0.326 C 
HETATM    5  H   UNK N   1      37.755  14.798  12.360  0.00  0.00     0.172 HD
HETATM    6  H   UNK N   1      37.813  14.121  14.585  0.00  0.00     0.170 HD
ENDROOT
BRANCH   2   7
HETATM    7  C   UNK N   1      36.337  14.339  10.906  0.00  0.00     0.127 A 
HETATM    8  N   UNK N   1      35.691  15.352  10.277  0.00  0.00    -0.281 N 
HETATM    9  N   UNK N   1      35.248  14.923   9.113  0.00  0.00    -0.301 N 
HETATM   10  C   UNK N   1      35.382  16.689  10.759  0.00  0.00     0.179 C 
HETATM   11  C   UNK N   1      35.593  13.627   8.984  0.00  0.00     0.037 A 
ATOM     12  HN  UNK N   1      34.732  15.475   8.427  1.00  0.00     0.187 HD
HETATM   13  C   UNK N   1      36.286  13.206  10.118  0.00  0.00     0.077 A 
BRANCH  11  14
HETATM   14  C   UNK N   1      35.218  12.778   7.800  0.00  0.00    -0.007 C 
HETATM   15  C   UNK N   1      33.982  11.960   8.116  0.00  0.00     0.021 C 
HETATM   16  C   UNK N   1      34.937  13.667   6.604  0.00  0.00     0.021 C 
HETATM   17  C   UNK N   1      36.344  11.825   7.430  0.00  0.00     0.021 C 
ENDBRANCH  11  14
ENDBRANCH   2   7
BRANCH   3  18
HETATM   18  C   UNK N   1      36.434  12.877  15.539  0.00  0.00     0.036 A 
HETATM   19  C   UNK N   1      36.642  11.494  15.535  0.00  0.00     0.031 A 
HETATM   20  C   UNK N   1      36.122  10.706  16.571  0.00  0.00     0.026 A 
HETATM   21  C   UNK N   1      35.375  11.296  17.599  0.00  0.00     0.034 A 
HETATM   22 Cl   UNK N   1      34.733  10.323  18.903  0.00  0.00    -0.084 Cl
HETATM   23  C   UNK N   1      35.141  12.669  17.590  0.00  0.00     0.026 A 
HETATM   24  C   UNK N   1      35.664  13.452  16.567  0.00  0.00     0.031 A 
ENDBRANCH   3  18
TORSDOF 3
ENDMDL
MODEL 4
REMARK VINA RESULT:      -6.2      3.356      8.152
REMARK  3 active torsions:
REMARK  status: ('A' for Active; 'I' for Inactive)
REMARK    1  A    between atoms: N_6  and  C_14 
REMARK       I    between atoms: N_6  and  C_16 
REMARK       I    between atoms: N_7  and  C_16 
REMARK    2  A    between atoms: N_7  and  C_17 
REMARK    3  A    between atoms: C_8  and  C_9 
ROOT
HETATM    1  O   UNK N   1      35.794  12.402  12.161  0.00  0.00    -0.247 OA
HETATM    2  N   UNK N   1      37.780  12.229  13.176  0.00  0.00    -0.293 N 
HETATM    3  N   UNK N   1      37.392  13.810  11.479  0.00  0.00    -0.309 N 
HETATM    4  C   UNK N   1      36.946  12.797  12.270  0.00  0.00     0.326 C 
HETATM    5  H   UNK N   1      38.744  12.410  13.094  0.00  0.00     0.172 HD
HETATM    6  H   UNK N   1      38.361  13.967  11.408  0.00  0.00     0.170 HD
ENDROOT
BRANCH   2   7
HETATM    7  C   UNK N   1      37.347  11.380  14.243  0.00  0.00     0.127 A 
HETATM    8  N   UNK N   1      37.308  10.024  14.220  0.00  0.00    -0.281 N 
HETATM    9  N   UNK N   1      36.757   9.591  15.336  0.00  0.00    -0.301 N 
HETATM   10  C   UNK N   1      37.678   9.110  13.152  0.00  0.00     0.179 C 
HETATM   11  C   UNK N   1      36.426  10.660  16.084  0.00  0.00     0.037 A 
ATOM     12  HN  UNK N   1      36.607   8.614  15.590  1.00  0.00     0.187 HD
HETATM   13  C   UNK N   1      36.776  11.833  15.417  0.00  0.00     0.077 A 
BRANCH  11  14
HETATM   14  C   UNK N   1      35.729  10.563  17.414  0.00  0.00    -0.007 C 
HETATM   15  C   UNK N   1      36.661   9.963  18.448  0.00  0.00     0.021 C 
HETATM   16  C   UNK N   1      35.302  11.946  17.868  0.00  0.00     0.021 C 
HETATM   17  C   UNK N   1      34.487   9.689  17.321  0.00  0.00     0.021 C 
ENDBRANCH  11  14
ENDBRANCH   2   7
BRANCH   3  18
HETATM   18  C   UNK N   1      36.501  14.651  10.751  0.00  0.00     0.036 A 
HETATM   19  C   UNK N   1      36.166  14.349   9.427  0.00  0.00     0.031 A 
HETATM   20  C   UNK N   1      35.308  15.197   8.712  0.00  0.00     0.026 A 
HETATM   21  C   UNK N   1      34.802  16.357   9.313  0.00  0.00     0.034 A 
HETATM   22 Cl   UNK N   1      33.721  17.415   8.435  0.00  0.00    -0.084 Cl
HETATM   23  C   UNK N   1      35.158  16.676  10.622  0.00  0.00     0.026 A 
HETATM   24  C   UNK N   1      36.002  15.831  11.334  0.00  0.00     0.031 A 
ENDBRANCH   3  18
TORSDOF 3
ENDMDL
MODEL 5
REMARK VINA RESULT:      -6.1     17.634     20.152
REMARK  3 active torsions:
REMARK  status: ('A' for Active; 'I' for Inactive)
REMARK    1  A    between atoms: N_6  and  C_14 
REMARK       I    between atoms: N_6  and  C_16 
REMARK       I    between atoms: N_7  and  C_16 
REMARK    2  A    between atoms: N_7  and  C_17 
REMARK    3  A    between atoms: C_8  and  C_9 
ROOT
HETATM    1  O   UNK N   1      30.286  23.094  -5.013  0.00  0.00    -0.247 OA
HETATM    2  N   UNK N   1      29.016  23.769  -3.300  0.00  0.00    -0.293 N 
HETATM    3  N   UNK N   1      30.388  21.865  -3.148  0.00  0.00    -0.309 N 
HETATM    4  C   UNK N   1      29.909  22.918  -3.864  0.00  0.00     0.326 C 
HETATM    5  H   UNK N   1      28.570  23.488  -2.469  0.00  0.00     0.172 HD
HETATM    6  H   UNK N   1      29.921  21.599  -2.323  0.00  0.00     0.170 HD
ENDROOT
BRANCH   2   7
HETATM    7  C   UNK N   1      28.679  25.051  -3.840  0.00  0.00     0.127 A 
HETATM    8  N   UNK N   1      29.502  26.126  -3.916  0.00  0.00    -0.281 N 
HETATM    9  N   UNK N   1      28.820  27.158  -4.372  0.00  0.00    -0.301 N 
HETATM   10  C   UNK N   1      30.884  26.261  -3.487  0.00  0.00     0.179 C 
HETATM   11  C   UNK N   1      27.551  26.762  -4.585  0.00  0.00     0.037 A 
ATOM     12  HN  UNK N   1      29.190  28.095  -4.537  1.00  0.00     0.187 HD
HETATM   13  C   UNK N   1      27.411  25.417  -4.246  0.00  0.00     0.077 A 
BRANCH  11  14
HETATM   14  C   UNK N   1      26.460  27.681  -5.064  0.00  0.00    -0.007 C 
HETATM   15  C   UNK N   1      25.539  28.040  -3.915  0.00  0.00     0.021 C 
HETATM   16  C   UNK N   1      27.072  28.947  -5.630  0.00  0.00     0.021 C 
HETATM   17  C   UNK N   1      25.631  27.024  -6.158  0.00  0.00     0.021 C 
ENDBRANCH  11  14
ENDBRANCH   2   7
BRANCH   3  18
HETATM   18  C   UNK N   1      31.544  21.137  -3.553  0.00  0.00     0.036 A 
HETATM   19  C   UNK N   1      31.451  20.157  -4.548  0.00  0.00     0.031 A 
HETATM   20  C   UNK N   1      32.590  19.430  -4.921  0.00  0.00     0.026 A 
HETATM   21  C   UNK N   1      33.816  19.666  -4.285  0.00  0.00     0.034 A 
HETATM   22 Cl   UNK N   1      35.246  18.772  -4.753  0.00  0.00    -0.084 Cl
HETATM   23  C   UNK N   1      33.906  20.619  -3.274  0.00  0.00     0.026 A 
HETATM   24  C   UNK N   1      32.778  21.347  -2.910  0.00  0.00     0.031 A 
ENDBRANCH   3  18
TORSDOF 3
ENDMDL
MODEL 6
REMARK VINA RESULT:      -6.0      2.988      4.946
REMARK  3 active torsions:
REMARK  status: ('A' for Active; 'I' for Inactive)
REMARK    1  A    between atoms: N_6  and  C_14 
REMARK       I    between atoms: N_6  and  C_16 
REMARK       I    between atoms: N_7  and  C_16 
REMARK    2  A    between atoms: N_7  and  C_17 
REMARK    3  A    between atoms: C_8  and  C_9 
ROOT
HETATM    1  O   UNK N   1      33.537  15.414   9.699  0.00  0.00    -0.247 OA
HETATM    2  N   UNK N   1      33.794  17.534   9.031  0.00  0.00    -0.293 N 
HETATM    3  N   UNK N   1      35.256  16.539  10.581  0.00  0.00    -0.309 N 
HETATM    4  C   UNK N   1      34.171  16.458   9.767  0.00  0.00     0.326 C 
HETATM    5  H   UNK N   1      34.178  18.409   9.264  0.00  0.00     0.172 HD
HETATM    6  H   UNK N   1      35.619  17.427  10.804  0.00  0.00     0.170 HD
ENDROOT
BRANCH   2   7
HETATM    7  C   UNK N   1      32.871  17.476   7.940  0.00  0.00     0.127 A 
HETATM    8  N   UNK N   1      31.533  17.686   8.014  0.00  0.00    -0.281 N 
HETATM    9  N   UNK N   1      30.994  17.448   6.836  0.00  0.00    -0.301 N 
HETATM   10  C   UNK N   1      30.713  18.010   9.170  0.00  0.00     0.179 C 
HETATM   11  C   UNK N   1      31.975  17.071   5.994  0.00  0.00     0.037 A 
ATOM     12  HN  UNK N   1      30.004  17.533   6.601  1.00  0.00     0.187 HD
HETATM   13  C   UNK N   1      33.198  17.065   6.663  0.00  0.00     0.077 A 
BRANCH  11  14
HETATM   14  C   UNK N   1      31.738  16.669   4.563  0.00  0.00    -0.007 C 
HETATM   15  C   UNK N   1      32.702  17.400   3.650  0.00  0.00     0.021 C 
HETATM   16  C   UNK N   1      31.941  15.174   4.413  0.00  0.00     0.021 C 
HETATM   17  C   UNK N   1      30.318  17.002   4.128  0.00  0.00     0.021 C 
ENDBRANCH  11  14
ENDBRANCH   2   7
BRANCH   3  18
HETATM   18  C   UNK N   1      35.887  15.381  11.122  0.00  0.00     0.036 A 
HETATM   19  C   UNK N   1      36.731  14.598  10.327  0.00  0.00     0.031 A 
HETATM   20  C   UNK N   1      37.326  13.447  10.863  0.00  0.00     0.026 A 
HETATM   21  C   UNK N   1      37.060  13.066  12.184  0.00  0.00     0.034 A 
HETATM   22 Cl   UNK N   1      37.808  11.639  12.866  0.00  0.00    -0.084 Cl
HETATM   23  C   UNK N   1      36.197  13.827  12.969  0.00  0.00     0.026 A 
HETATM   24  C   UNK N   1      35.613  14.974  12.441  0.00  0.00     0.031 A 
ENDBRANCH   3  18
TORSDOF 3
ENDMDL
MODEL 7
REMARK VINA RESULT:      -6.0      8.087     12.126
REMARK  3 active torsions:
REMARK  status: ('A' for Active; 'I' for Inactive)
REMARK    1  A    between atoms: N_6  and  C_14 
REMARK       I    between atoms: N_6  and  C_16 
REMARK       I    between atoms: N_7  and  C_16 
REMARK    2  A    between atoms: N_7  and  C_17 
REMARK    3  A    between atoms: C_8  and  C_9 
ROOT
HETATM    1  O   UNK N   1      28.137  18.913   6.690  0.00  0.00    -0.247 OA
HETATM    2  N   UNK N   1      28.637  16.818   7.294  0.00  0.00    -0.293 N 
HETATM    3  N   UNK N   1      26.700  17.320   6.058  0.00  0.00    -0.309 N 
HETATM    4  C   UNK N   1      27.838  17.728   6.682  0.00  0.00     0.326 C 
HETATM    5  H   UNK N   1      28.271  15.920   7.461  0.00  0.00     0.172 HD
HETATM    6  H   UNK N   1      26.350  16.419   6.245  0.00  0.00     0.170 HD
ENDROOT
BRANCH   2   7
HETATM    7  C   UNK N   1      29.978  17.083   7.715  0.00  0.00     0.127 A 
HETATM    8  N   UNK N   1      30.346  17.771   8.824  0.00  0.00    -0.281 N 
HETATM    9  N   UNK N   1      31.657  17.906   8.832  0.00  0.00    -0.301 N 
HETATM   10  C   UNK N   1      29.513  18.399   9.837  0.00  0.00     0.179 C 
HETATM   11  C   UNK N   1      32.146  17.316   7.725  0.00  0.00     0.037 A 
ATOM     12  HN  UNK N   1      32.206  18.375   9.553  1.00  0.00     0.187 HD
HETATM   13  C   UNK N   1      31.103  16.782   6.971  0.00  0.00     0.077 A 
BRANCH  11  14
HETATM   14  C   UNK N   1      33.607  17.306   7.362  0.00  0.00    -0.007 C 
HETATM   15  C   UNK N   1      34.329  18.431   8.075  0.00  0.00     0.021 C 
HETATM   16  C   UNK N   1      34.223  15.980   7.766  0.00  0.00     0.021 C 
HETATM   17  C   UNK N   1      33.801  17.483   5.864  0.00  0.00     0.021 C 
ENDBRANCH  11  14
ENDBRANCH   2   7
BRANCH   3  18
HETATM   18  C   UNK N   1      26.000  18.156   5.139  0.00  0.00     0.036 A 
HETATM   19  C   UNK N   1      26.696  19.058   4.329  0.00  0.00     0.031 A 
HETATM   20  C   UNK N   1      25.995  19.891   3.447  0.00  0.00     0.026 A 
HETATM   21  C   UNK N   1      24.596  19.839   3.391  0.00  0.00     0.034 A 
HETATM   22 Cl   UNK N   1      23.712  20.866   2.285  0.00  0.00    -0.084 Cl
HETATM   23  C   UNK N   1      23.897  18.963   4.218  0.00  0.00     0.026 A 
HETATM   24  C   UNK N   1      24.593  18.130   5.087  0.00  0.00     0.031 A 
ENDBRANCH   3  18
TORSDOF 3
ENDMDL
MODEL 8
REMARK VINA RESULT:      -6.0      3.458      5.463
REMARK  3 active torsions:
REMARK  status: ('A' for Active; 'I' for Inactive)
REMARK    1  A    between atoms: N_6  and  C_14 
REMARK       I    between atoms: N_6  and  C_16 
REMARK       I    between atoms: N_7  and  C_16 
REMARK    2  A    between atoms: N_7  and  C_17 
REMARK    3  A    between atoms: C_8  and  C_9 
ROOT
HETATM    1  O   UNK N   1      33.047  15.098   9.299  0.00  0.00    -0.247 OA
HETATM    2  N   UNK N   1      32.938  17.287   8.852  0.00  0.00    -0.293 N 
HETATM    3  N   UNK N   1      34.529  16.407  10.344  0.00  0.00    -0.309 N 
HETATM    4  C   UNK N   1      33.487  16.223   9.490  0.00  0.00     0.326 C 
HETATM    5  H   UNK N   1      33.159  18.187   9.182  0.00  0.00     0.172 HD
HETATM    6  H   UNK N   1      34.727  17.317  10.665  0.00  0.00     0.170 HD
ENDROOT
BRANCH   2   7
HETATM    7  C   UNK N   1      32.056  17.183   7.731  0.00  0.00     0.127 A 
HETATM    8  N   UNK N   1      32.421  17.196   6.424  0.00  0.00    -0.281 N 
HETATM    9  N   UNK N   1      31.337  17.185   5.675  0.00  0.00    -0.301 N 
HETATM   10  C   UNK N   1      33.746  17.316   5.838  0.00  0.00     0.179 C 
HETATM   11  C   UNK N   1      30.264  17.176   6.489  0.00  0.00     0.037 A 
ATOM     12  HN  UNK N   1      31.314  17.184   4.654  1.00  0.00     0.187 HD
HETATM   13  C   UNK N   1      30.678  17.185   7.819  0.00  0.00     0.077 A 
BRANCH  11  14
HETATM   14  C   UNK N   1      28.843  17.209   5.995  0.00  0.00    -0.007 C 
HETATM   15  C   UNK N   1      28.635  18.402   5.084  0.00  0.00     0.021 C 
HETATM   16  C   UNK N   1      28.540  15.935   5.229  0.00  0.00     0.021 C 
HETATM   17  C   UNK N   1      27.862  17.311   7.153  0.00  0.00     0.021 C 
ENDBRANCH  11  14
ENDBRANCH   2   7
BRANCH   3  18
HETATM   18  C   UNK N   1      35.344  15.326  10.788  0.00  0.00     0.036 A 
HETATM   19  C   UNK N   1      36.447  14.914  10.033  0.00  0.00     0.031 A 
HETATM   20  C   UNK N   1      37.228  13.834  10.468  0.00  0.00     0.026 A 
HETATM   21  C   UNK N   1      36.894  13.151  11.644  0.00  0.00     0.034 A 
HETATM   22 Cl   UNK N   1      37.868  11.810  12.202  0.00  0.00    -0.084 Cl
HETATM   23  C   UNK N   1      35.778  13.539  12.383  0.00  0.00     0.026 A 
HETATM   24  C   UNK N   1      35.009  14.617  11.957  0.00  0.00     0.031 A 
ENDBRANCH   3  18
TORSDOF 3
ENDMDL
MODEL 9
REMARK VINA RESULT:      -5.9      2.204      2.783
REMARK  3 active torsions:
REMARK  status: ('A' for Active; 'I' for Inactive)
REMARK    1  A    between atoms: N_6  and  C_14 
REMARK       I    between atoms: N_6  and  C_16 
REMARK       I    between atoms: N_7  and  C_16 
REMARK    2  A    between atoms: N_7  and  C_17 
REMARK    3  A    between atoms: C_8  and  C_9 
ROOT
HETATM    1  O   UNK N   1      34.022  14.670  11.685  0.00  0.00    -0.247 OA
HETATM    2  N   UNK N   1      35.042  14.039   9.797  0.00  0.00    -0.293 N 
HETATM    3  N   UNK N   1      35.962  13.583  11.912  0.00  0.00    -0.309 N 
HETATM    4  C   UNK N   1      34.972  14.118  11.150  0.00  0.00     0.326 C 
HETATM    5  H   UNK N   1      35.904  13.792   9.393  0.00  0.00     0.172 HD
HETATM    6  H   UNK N   1      36.819  13.348  11.486  0.00  0.00     0.170 HD
ENDROOT
BRANCH   2   7
HETATM    7  C   UNK N   1      33.941  14.296   8.921  0.00  0.00     0.127 A 
HETATM    8  N   UNK N   1      33.251  13.367   8.213  0.00  0.00    -0.281 N 
HETATM    9  N   UNK N   1      32.377  13.978   7.439  0.00  0.00    -0.301 N 
HETATM   10  C   UNK N   1      33.437  11.926   8.155  0.00  0.00     0.179 C 
HETATM   11  C   UNK N   1      32.502  15.305   7.630  0.00  0.00     0.037 A 
ATOM     12  HN  UNK N   1      31.719  13.524   6.803  1.00  0.00     0.187 HD
HETATM   13  C   UNK N   1      33.502  15.557   8.567  0.00  0.00     0.077 A 
BRANCH  11  14
HETATM   14  C   UNK N   1      31.699  16.334   6.882  0.00  0.00    -0.007 C 
HETATM   15  C   UNK N   1      31.077  17.317   7.854  0.00  0.00     0.021 C 
HETATM   16  C   UNK N   1      32.600  17.083   5.920  0.00  0.00     0.021 C 
HETATM   17  C   UNK N   1      30.584  15.682   6.078  0.00  0.00     0.021 C 
ENDBRANCH  11  14
ENDBRANCH   2   7
BRANCH   3  18
HETATM   18  C   UNK N   1      35.800  13.348  13.309  0.00  0.00     0.036 A 
HETATM   19  C   UNK N   1      34.877  12.401  13.765  0.00  0.00     0.031 A 
HETATM   20  C   UNK N   1      34.708  12.195  15.141  0.00  0.00     0.026 A 
HETATM   21  C   UNK N   1      35.445  12.952  16.062  0.00  0.00     0.034 A 
HETATM   22 Cl   UNK N   1      35.251  12.694  17.781  0.00  0.00    -0.084 Cl
HETATM   23  C   UNK N   1      36.344  13.916  15.612  0.00  0.00     0.026 A 
HETATM   24  C   UNK N   1      36.518  14.114  14.246  0.00  0.00     0.031 A 
ENDBRANCH   3  18
TORSDOF 3
ENDMDL
