REMARK  9 active torsions:
REMARK  status: ('A' for Active; 'I' for Inactive)
REMARK    1  A    between atoms: C_17  and  O_5 
REMARK    2  A    between atoms: C_20  and  O_7 
REMARK    3  A    between atoms: O_11  and  C_37 
REMARK    4  A    between atoms: C_17  and  C_24 
REMARK    5  A    between atoms: C_20  and  C_29 
REMARK    6  A    between atoms: C_22  and  C_27 
REMARK    7  A    between atoms: C_25  and  C_30 
REMARK    8  A    between atoms: C_28  and  C_37 
REMARK    9  A    between atoms: C_32  and  C_39 
ROOT
HETATM    1  O   UNK N   1       4.325   3.284   1.437  0.00  0.00    -0.312 OA
HETATM    2  O   UNK N   1       6.234   2.221   0.871  0.00  0.00    -0.265 OA
HETATM    3  C   UNK N   1       4.511   2.511  -0.780  0.00  0.00     0.130 C 
HETATM    4  C   UNK N   1       3.328   3.965   0.762  0.00  0.00     0.170 C 
HETATM    5  C   UNK N   1       3.910   3.962  -0.689  0.00  0.00     0.068 C 
HETATM    6  C   UNK N   1       5.129   2.645   0.570  0.00  0.00     0.267 C 
ENDROOT
BRANCH   5   7
HETATM    7  C   UNK N   1       4.795   5.176  -1.044  0.00  0.00     0.058 C 
HETATM    8  C   UNK N   1       5.287   5.040  -2.471  0.00  0.00     0.046 C 
HETATM    9  C   UNK N   1       5.994   5.367  -0.130  0.00  0.00     0.046 C 
BRANCH   7  10
HETATM   10  O   UNK N   1       4.002   6.318  -0.967  0.00  0.00    -0.390 OA
HETATM   11  H   UNK N   1       4.415   7.194  -0.913  0.00  0.00     0.210 HD
ENDBRANCH   7  10
ENDBRANCH   5   7
BRANCH   3  12
HETATM   12  C   UNK N   1       3.309   1.458  -0.570  0.00  0.00     0.087 C 
HETATM   13  C   UNK N   1       1.955   2.212  -0.555  0.00  0.00     0.060 C 
HETATM   14  C   UNK N   1       0.943   1.178  -0.236  0.00  0.00     0.187 A 
HETATM   15  C   UNK N   1       1.955   3.180   0.655  0.00  0.00     0.176 C 
HETATM   16  C   UNK N   1       1.599   2.911  -1.887  0.00  0.00     0.025 C 
HETATM   17  O   UNK N   1       0.337   0.344  -1.208  0.00  0.00    -0.357 OA
HETATM   18  C   UNK N   1       1.585  -0.104  -0.767  0.00  0.00     0.172 A 
HETATM   19  C   UNK N   1       0.876   1.267   1.248  0.00  0.00     0.298 C 
HETATM   20  C   UNK N   1       2.882   0.363  -1.518  0.00  0.00     0.075 C 
HETATM   21  O   UNK N   1       1.539   2.368   1.712  0.00  0.00    -0.310 OA
HETATM   22  O   UNK N   1       0.252   0.507   1.970  0.00  0.00    -0.262 OA
BRANCH  12  23
HETATM   23  O   UNK N   1       3.544   0.758   0.645  0.00  0.00    -0.388 OA
HETATM   24  H   UNK N   1       3.211   0.380   1.474  0.00  0.00     0.210 HD
ENDBRANCH  12  23
BRANCH  15  25
ENDBRANCH  15  25
ENDBRANCH   3  12
TORSDOF 9
