MODEL 1
REMARK VINA RESULT:      -8.5      0.000      0.000
REMARK  5 active torsions:
REMARK  status: ('A' for Active; 'I' for Inactive)
REMARK    1  A    between atoms: C_3  and  C_2 
REMARK    2  A    between atoms: C_10  and  N_11 
REMARK       I    between atoms: N_11  and  C_12 
REMARK    3  A    between atoms: C_12  and  C_14 
REMARK    4  A    between atoms: C_19  and  C_24 
REMARK    5  A    between atoms: C_24  and  N_25 
ROOT
HETATM    1  C   UNK N   1      26.334  19.142   4.015  0.00  0.00     0.033 A 
HETATM    2  C   UNK N   1      25.775  20.323   3.507  0.00  0.00     0.018 A 
HETATM    3  C   UNK N   1      24.403  20.403   3.269  0.00  0.00     0.013 A 
HETATM    4  C   UNK N   1      23.591  19.298   3.537  0.00  0.00    -0.025 A 
HETATM    5  C   UNK N   1      22.227  19.346   3.262  0.00  0.00     0.027 A 
HETATM    6  C   UNK N   1      21.425  18.219   3.495  0.00  0.00     0.008 A 
HETATM    7  C   UNK N   1      21.997  17.055   4.033  0.00  0.00     0.016 A 
HETATM    8  C   UNK N   1      23.359  17.006   4.318  0.00  0.00     0.013 A 
HETATM    9  C   UNK N   1      24.157  18.115   4.060  0.00  0.00    -0.025 A 
HETATM   10  C   UNK N   1      25.518  18.047   4.301  0.00  0.00     0.029 A 
ENDROOT
BRANCH   1  11
HETATM   11  C   UNK N   1      27.757  19.057   4.304  0.00  0.00     0.256 C 
HETATM   12  N   UNK N   1      28.395  17.856   4.232  0.00  0.00    -0.323 N 
HETATM   13  H   UNK N   1      27.932  17.102   3.799  0.00  0.00     0.169 HD
HETATM   14  O   UNK N   1      28.360  20.074   4.638  0.00  0.00    -0.267 OA
BRANCH  12  15
HETATM   15  C   UNK N   1      29.692  17.645   4.754  0.00  0.00     0.035 A 
HETATM   16  C   UNK N   1      29.852  17.472   6.127  0.00  0.00     0.037 A 
HETATM   17  C   UNK N   1      31.097  17.288   6.687  0.00  0.00    -0.042 A 
HETATM   18  C   UNK N   1      31.207  17.153   8.187  0.00  0.00     0.036 C 
HETATM   19  C   UNK N   1      32.230  17.268   5.853  0.00  0.00    -0.034 A 
HETATM   20  C   UNK N   1      32.660  16.928   8.616  0.00  0.00     0.123 C 
HETATM   21  N   UNK N   1      33.577  17.727   7.807  0.00  0.00    -0.417 N 
HETATM   22  C   UNK N   1      33.588  17.142   6.467  0.00  0.00     0.153 C 
HETATM   23  H   UNK N   1      34.108  18.541   8.118  0.00  0.00     0.153 HD
HETATM   24  C   UNK N   1      32.083  17.399   4.464  0.00  0.00     0.011 A 
HETATM   25  C   UNK N   1      30.807  17.580   3.910  0.00  0.00     0.030 A 
BRANCH  18  26
HETATM   26  C   UNK N   1      30.668  18.406   8.886  0.00  0.00     0.006 C 
HETATM   27  C   UNK N   1      29.455  18.097   9.754  0.00  0.00     0.006 C 
ENDBRANCH  18  26
ENDBRANCH  12  15
ENDBRANCH   1  11
BRANCH   6  28
HETATM   28  C   UNK N   1      19.998  18.243   3.131  0.00  0.00     0.102 C 
HETATM   29  N   UNK N   1      19.250  17.233   3.385  0.00  0.00    -0.385 N 
HETATM   30  H   UNK N   1      19.623  16.437   3.829  0.00  0.00     0.157 HD
ATOM     31  HN  UNK N   1      18.263  17.254   3.126  1.00  0.00     0.157 HD
BRANCH  28  32
HETATM   32  N   UNK N   1      19.464  19.342   2.422  0.00  0.00    -0.385 N 
HETATM   33  H   UNK N   1      19.931  20.208   2.411  0.00  0.00     0.157 HD
HETATM   34  H   UNK N   1      18.616  19.240   1.932  0.00  0.00     0.157 HD
ENDBRANCH  28  32
ENDBRANCH   6  28
TORSDOF 5
ENDMDL
MODEL 2
REMARK VINA RESULT:      -8.3      1.123      2.557
REMARK  5 active torsions:
REMARK  status: ('A' for Active; 'I' for Inactive)
REMARK    1  A    between atoms: C_3  and  C_2 
REMARK    2  A    between atoms: C_10  and  N_11 
REMARK       I    between atoms: N_11  and  C_12 
REMARK    3  A    between atoms: C_12  and  C_14 
REMARK    4  A    between atoms: C_19  and  C_24 
REMARK    5  A    between atoms: C_24  and  N_25 
ROOT
HETATM    1  C   UNK N   1      26.484  19.518   4.155  0.00  0.00     0.033 A 
HETATM    2  C   UNK N   1      26.339  20.561   3.229  0.00  0.00     0.018 A 
HETATM    3  C   UNK N   1      25.086  20.850   2.690  0.00  0.00     0.013 A 
HETATM    4  C   UNK N   1      23.977  20.093   3.075  0.00  0.00    -0.025 A 
HETATM    5  C   UNK N   1      22.729  20.338   2.512  0.00  0.00     0.027 A 
HETATM    6  C   UNK N   1      21.628  19.547   2.872  0.00  0.00     0.008 A 
HETATM    7  C   UNK N   1      21.786  18.526   3.824  0.00  0.00     0.016 A 
HETATM    8  C   UNK N   1      23.031  18.283   4.397  0.00  0.00     0.013 A 
HETATM    9  C   UNK N   1      24.127  19.051   4.017  0.00  0.00    -0.025 A 
HETATM   10  C   UNK N   1      25.372  18.775   4.553  0.00  0.00     0.029 A 
ENDROOT
BRANCH   1  11
HETATM   11  C   UNK N   1      27.777  19.228   4.754  0.00  0.00     0.256 C 
HETATM   12  N   UNK N   1      28.098  17.950   5.098  0.00  0.00    -0.323 N 
HETATM   13  H   UNK N   1      27.534  17.216   4.760  0.00  0.00     0.169 HD
HETATM   14  O   UNK N   1      28.557  20.154   4.968  0.00  0.00    -0.267 OA
BRANCH  12  15
HETATM   15  C   UNK N   1      29.203  17.632   5.920  0.00  0.00     0.035 A 
HETATM   16  C   UNK N   1      30.462  17.488   5.340  0.00  0.00     0.037 A 
HETATM   17  C   UNK N   1      31.566  17.154   6.093  0.00  0.00    -0.042 A 
HETATM   18  C   UNK N   1      32.892  16.968   5.397  0.00  0.00     0.036 C 
HETATM   19  C   UNK N   1      31.419  16.962   7.479  0.00  0.00    -0.034 A 
HETATM   20  C   UNK N   1      33.999  16.629   6.399  0.00  0.00     0.123 C 
HETATM   21  N   UNK N   1      33.506  15.741   7.448  0.00  0.00    -0.417 N 
HETATM   22  C   UNK N   1      32.601  16.528   8.286  0.00  0.00     0.153 C 
HETATM   23  H   UNK N   1      33.746  14.758   7.572  0.00  0.00     0.153 HD
HETATM   24  C   UNK N   1      30.167  17.143   8.086  0.00  0.00     0.011 A 
HETATM   25  C   UNK N   1      29.055  17.489   7.303  0.00  0.00     0.030 A 
BRANCH  18  26
HETATM   26  C   UNK N   1      32.805  15.850   4.352  0.00  0.00     0.006 C 
HETATM   27  C   UNK N   1      33.064  16.365   2.942  0.00  0.00     0.006 C 
ENDBRANCH  18  26
ENDBRANCH  12  15
ENDBRANCH   1  11
BRANCH   6  28
HETATM   28  C   UNK N   1      20.325  19.756   2.220  0.00  0.00     0.102 C 
HETATM   29  N   UNK N   1      19.271  19.192   2.686  0.00  0.00    -0.385 N 
HETATM   30  H   UNK N   1      19.326  18.621   3.485  0.00  0.00     0.157 HD
ATOM     31  HN  UNK N   1      18.372  19.337   2.225  1.00  0.00     0.157 HD
BRANCH  28  32
HETATM   32  N   UNK N   1      20.241  20.506   1.025  0.00  0.00    -0.385 N 
HETATM   33  H   UNK N   1      19.782  21.376   1.009  0.00  0.00     0.157 HD
HETATM   34  H   UNK N   1      20.647  20.155   0.200  0.00  0.00     0.157 HD
ENDBRANCH  28  32
ENDBRANCH   6  28
TORSDOF 5
ENDMDL
MODEL 3
REMARK VINA RESULT:      -8.0      1.475      9.899
REMARK  5 active torsions:
REMARK  status: ('A' for Active; 'I' for Inactive)
REMARK    1  A    between atoms: C_3  and  C_2 
REMARK    2  A    between atoms: C_10  and  N_11 
REMARK       I    between atoms: N_11  and  C_12 
REMARK    3  A    between atoms: C_12  and  C_14 
REMARK    4  A    between atoms: C_19  and  C_24 
REMARK    5  A    between atoms: C_24  and  N_25 
ROOT
HETATM    1  C   UNK N   1      27.636  18.617   5.626  0.00  0.00     0.033 A 
HETATM    2  C   UNK N   1      28.406  17.966   4.651  0.00  0.00     0.018 A 
HETATM    3  C   UNK N   1      29.643  17.416   4.986  0.00  0.00     0.013 A 
HETATM    4  C   UNK N   1      30.111  17.519   6.298  0.00  0.00    -0.025 A 
HETATM    5  C   UNK N   1      31.363  17.017   6.639  0.00  0.00     0.027 A 
HETATM    6  C   UNK N   1      31.844  17.161   7.948  0.00  0.00     0.008 A 
HETATM    7  C   UNK N   1      31.046  17.788   8.919  0.00  0.00     0.016 A 
HETATM    8  C   UNK N   1      29.789  18.284   8.585  0.00  0.00     0.013 A 
HETATM    9  C   UNK N   1      29.326  18.165   7.279  0.00  0.00    -0.025 A 
HETATM   10  C   UNK N   1      28.097  18.701   6.940  0.00  0.00     0.029 A 
ENDROOT
BRANCH   1  11
HETATM   11  C   UNK N   1      26.328  19.163   5.299  0.00  0.00     0.256 C 
HETATM   12  N   UNK N   1      25.527  18.522   4.404  0.00  0.00    -0.323 N 
HETATM   13  H   UNK N   1      25.758  17.601   4.140  0.00  0.00     0.169 HD
HETATM   14  O   UNK N   1      25.976  20.219   5.819  0.00  0.00    -0.267 OA
BRANCH  12  15
HETATM   15  C   UNK N   1      24.378  19.121   3.838  0.00  0.00     0.035 A 
HETATM   16  C   UNK N   1      23.147  18.481   3.963  0.00  0.00     0.037 A 
HETATM   17  C   UNK N   1      22.003  19.011   3.407  0.00  0.00    -0.042 A 
HETATM   18  C   UNK N   1      20.708  18.245   3.539  0.00  0.00     0.036 C 
HETATM   19  C   UNK N   1      22.080  20.228   2.705  0.00  0.00    -0.034 A 
HETATM   20  C   UNK N   1      19.549  19.003   2.886  0.00  0.00     0.123 C 
HETATM   21  N   UNK N   1      19.978  19.660   1.654  0.00  0.00    -0.417 N 
HETATM   22  C   UNK N   1      20.853  20.767   2.040  0.00  0.00     0.153 C 
HETATM   23  H   UNK N   1      19.717  19.396   0.704  0.00  0.00     0.153 HD
HETATM   24  C   UNK N   1      23.304  20.906   2.605  0.00  0.00     0.011 A 
HETATM   25  C   UNK N   1      24.457  20.354   3.182  0.00  0.00     0.030 A 
BRANCH  18  26
HETATM   26  C   UNK N   1      20.829  16.861   2.891  0.00  0.00     0.006 C 
HETATM   27  C   UNK N   1      19.999  15.814   3.624  0.00  0.00     0.006 C 
ENDBRANCH  18  26
ENDBRANCH  12  15
ENDBRANCH   1  11
BRANCH   6  28
HETATM   28  C   UNK N   1      33.200  16.698   8.290  0.00  0.00     0.102 C 
HETATM   29  N   UNK N   1      33.554  16.588   9.518  0.00  0.00    -0.385 N 
HETATM   30  H   UNK N   1      32.922  16.807  10.239  0.00  0.00     0.157 HD
ATOM     31  HN  UNK N   1      34.497  16.272   9.748  1.00  0.00     0.157 HD
BRANCH  28  32
HETATM   32  N   UNK N   1      34.146  16.457   7.269  0.00  0.00    -0.385 N 
HETATM   33  H   UNK N   1      34.723  17.182   6.937  0.00  0.00     0.157 HD
HETATM   34  H   UNK N   1      34.230  15.554   6.885  0.00  0.00     0.157 HD
ENDBRANCH  28  32
ENDBRANCH   6  28
TORSDOF 5
ENDMDL
MODEL 4
REMARK VINA RESULT:      -8.0      8.230     14.652
REMARK  5 active torsions:
REMARK  status: ('A' for Active; 'I' for Inactive)
REMARK    1  A    between atoms: C_3  and  C_2 
REMARK    2  A    between atoms: C_10  and  N_11 
REMARK       I    between atoms: N_11  and  C_12 
REMARK    3  A    between atoms: C_12  and  C_14 
REMARK    4  A    between atoms: C_19  and  C_24 
REMARK    5  A    between atoms: C_24  and  N_25 
ROOT
HETATM    1  C   UNK N   1      35.430  12.977  14.084  0.00  0.00     0.033 A 
HETATM    2  C   UNK N   1      35.455  11.576  14.049  0.00  0.00     0.018 A 
HETATM    3  C   UNK N   1      35.396  10.844  15.235  0.00  0.00     0.013 A 
HETATM    4  C   UNK N   1      35.316  11.516  16.457  0.00  0.00    -0.025 A 
HETATM    5  C   UNK N   1      35.303  10.802  17.651  0.00  0.00     0.027 A 
HETATM    6  C   UNK N   1      35.265  11.485  18.876  0.00  0.00     0.008 A 
HETATM    7  C   UNK N   1      35.210  12.888  18.891  0.00  0.00     0.016 A 
HETATM    8  C   UNK N   1      35.212  13.606  17.698  0.00  0.00     0.013 A 
HETATM    9  C   UNK N   1      35.279  12.928  16.486  0.00  0.00    -0.025 A 
HETATM   10  C   UNK N   1      35.330  13.646  15.304  0.00  0.00     0.029 A 
ENDROOT
BRANCH   1  11
HETATM   11  C   UNK N   1      35.453  13.753  12.854  0.00  0.00     0.256 C 
HETATM   12  N   UNK N   1      34.601  13.443  11.838  0.00  0.00    -0.323 N 
HETATM   13  H   UNK N   1      33.853  12.829  12.021  0.00  0.00     0.169 HD
HETATM   14  O   UNK N   1      36.267  14.666  12.739  0.00  0.00    -0.267 OA
BRANCH  12  15
HETATM   15  C   UNK N   1      34.746  13.963  10.531  0.00  0.00     0.035 A 
HETATM   16  C   UNK N   1      34.015  15.091  10.164  0.00  0.00     0.037 A 
HETATM   17  C   UNK N   1      34.101  15.621   8.895  0.00  0.00    -0.042 A 
HETATM   18  C   UNK N   1      33.247  16.817   8.547  0.00  0.00     0.036 C 
HETATM   19  C   UNK N   1      34.952  15.015   7.953  0.00  0.00    -0.034 A 
HETATM   20  C   UNK N   1      33.502  17.277   7.109  0.00  0.00     0.123 C 
HETATM   21  N   UNK N   1      33.697  16.137   6.218  0.00  0.00    -0.417 N 
HETATM   22  C   UNK N   1      34.992  15.545   6.555  0.00  0.00     0.153 C 
HETATM   23  H   UNK N   1      33.052  15.813   5.497  0.00  0.00     0.153 HD
HETATM   24  C   UNK N   1      35.727  13.904   8.318  0.00  0.00     0.011 A 
HETATM   25  C   UNK N   1      35.630  13.381   9.617  0.00  0.00     0.030 A 
BRANCH  18  26
HETATM   26  C   UNK N   1      31.759  16.487   8.710  0.00  0.00     0.006 C 
HETATM   27  C   UNK N   1      30.888  17.735   8.647  0.00  0.00     0.006 C 
ENDBRANCH  18  26
ENDBRANCH  12  15
ENDBRANCH   1  11
BRANCH   6  28
HETATM   28  C   UNK N   1      35.329  10.733  20.141  0.00  0.00     0.102 C 
HETATM   29  N   UNK N   1      34.357   9.973  20.491  0.00  0.00    -0.385 N 
HETATM   30  H   UNK N   1      33.564   9.883  19.915  0.00  0.00     0.157 HD
ATOM     31  HN  UNK N   1      34.406   9.459  21.371  1.00  0.00     0.157 HD
BRANCH  28  32
HETATM   32  N   UNK N   1      36.422  10.912  21.018  0.00  0.00    -0.385 N 
HETATM   33  H   UNK N   1      36.559  10.305  21.781  0.00  0.00     0.157 HD
HETATM   34  H   UNK N   1      37.053  11.653  20.865  0.00  0.00     0.157 HD
ENDBRANCH  28  32
ENDBRANCH   6  28
TORSDOF 5
ENDMDL
MODEL 5
REMARK VINA RESULT:      -7.9      4.270      7.150
REMARK  5 active torsions:
REMARK  status: ('A' for Active; 'I' for Inactive)
REMARK    1  A    between atoms: C_3  and  C_2 
REMARK    2  A    between atoms: C_10  and  N_11 
REMARK       I    between atoms: N_11  and  C_12 
REMARK    3  A    between atoms: C_12  and  C_14 
REMARK    4  A    between atoms: C_19  and  C_24 
REMARK    5  A    between atoms: C_24  and  N_25 
ROOT
HETATM    1  C   UNK N   1      30.953  16.674   8.248  0.00  0.00     0.033 A 
HETATM    2  C   UNK N   1      30.380  17.443   9.270  0.00  0.00     0.018 A 
HETATM    3  C   UNK N   1      29.363  18.352   8.976  0.00  0.00     0.013 A 
HETATM    4  C   UNK N   1      28.921  18.491   7.658  0.00  0.00    -0.025 A 
HETATM    5  C   UNK N   1      27.940  19.426   7.342  0.00  0.00     0.027 A 
HETATM    6  C   UNK N   1      27.531  19.590   6.010  0.00  0.00     0.008 A 
HETATM    7  C   UNK N   1      28.095  18.789   5.004  0.00  0.00     0.016 A 
HETATM    8  C   UNK N   1      29.070  17.846   5.318  0.00  0.00     0.013 A 
HETATM    9  C   UNK N   1      29.494  17.705   6.635  0.00  0.00    -0.025 A 
HETATM   10  C   UNK N   1      30.497  16.800   6.935  0.00  0.00     0.029 A 
ENDROOT
BRANCH   1  11
HETATM   11  C   UNK N   1      31.988  15.696   8.544  0.00  0.00     0.256 C 
HETATM   12  N   UNK N   1      33.044  16.040   9.332  0.00  0.00    -0.323 N 
HETATM   13  H   UNK N   1      32.993  16.878   9.848  0.00  0.00     0.169 HD
HETATM   14  O   UNK N   1      31.908  14.574   8.050  0.00  0.00    -0.267 OA
BRANCH  12  15
HETATM   15  C   UNK N   1      34.210  15.247   9.442  0.00  0.00     0.035 A 
HETATM   16  C   UNK N   1      34.523  14.666  10.669  0.00  0.00     0.037 A 
HETATM   17  C   UNK N   1      35.660  13.906  10.833  0.00  0.00    -0.042 A 
HETATM   18  C   UNK N   1      35.967  13.342  12.200  0.00  0.00     0.036 C 
HETATM   19  C   UNK N   1      36.518  13.706   9.736  0.00  0.00    -0.034 A 
HETATM   20  C   UNK N   1      37.249  12.506  12.178  0.00  0.00     0.123 C 
HETATM   21  N   UNK N   1      38.255  13.109  11.308  0.00  0.00    -0.417 N 
HETATM   22  C   UNK N   1      37.789  12.942   9.931  0.00  0.00     0.153 C 
HETATM   23  H   UNK N   1      39.120  13.563  11.604  0.00  0.00     0.153 HD
HETATM   24  C   UNK N   1      36.196  14.249   8.484  0.00  0.00     0.011 A 
HETATM   25  C   UNK N   1      35.031  15.016   8.333  0.00  0.00     0.030 A 
BRANCH  18  26
HETATM   26  C   UNK N   1      36.122  14.468  13.229  0.00  0.00     0.006 C 
HETATM   27  C   UNK N   1      36.498  13.935  14.605  0.00  0.00     0.006 C 
ENDBRANCH  18  26
ENDBRANCH  12  15
ENDBRANCH   1  11
BRANCH   6  28
HETATM   28  C   UNK N   1      26.549  20.632   5.664  0.00  0.00     0.102 C 
HETATM   29  N   UNK N   1      26.381  21.642   6.435  0.00  0.00    -0.385 N 
HETATM   30  H   UNK N   1      26.911  21.732   7.260  0.00  0.00     0.157 HD
ATOM     31  HN  UNK N   1      25.695  22.358   6.192  1.00  0.00     0.157 HD
BRANCH  28  32
HETATM   32  N   UNK N   1      25.724  20.480   4.527  0.00  0.00    -0.385 N 
HETATM   33  H   UNK N   1      24.827  20.883   4.500  0.00  0.00     0.157 HD
HETATM   34  H   UNK N   1      26.049  19.964   3.754  0.00  0.00     0.157 HD
ENDBRANCH  28  32
ENDBRANCH   6  28
TORSDOF 5
ENDMDL
MODEL 6
REMARK VINA RESULT:      -7.7      9.717     15.812
REMARK  5 active torsions:
REMARK  status: ('A' for Active; 'I' for Inactive)
REMARK    1  A    between atoms: C_3  and  C_2 
REMARK    2  A    between atoms: C_10  and  N_11 
REMARK       I    between atoms: N_11  and  C_12 
REMARK    3  A    between atoms: C_12  and  C_14 
REMARK    4  A    between atoms: C_19  and  C_24 
REMARK    5  A    between atoms: C_24  and  N_25 
ROOT
HETATM    1  C   UNK N   1      35.617  13.102  16.219  0.00  0.00     0.033 A 
HETATM    2  C   UNK N   1      35.508  13.976  17.309  0.00  0.00     0.018 A 
HETATM    3  C   UNK N   1      35.290  13.474  18.591  0.00  0.00     0.013 A 
HETATM    4  C   UNK N   1      35.178  12.095  18.782  0.00  0.00    -0.025 A 
HETATM    5  C   UNK N   1      34.915  11.580  20.048  0.00  0.00     0.027 A 
HETATM    6  C   UNK N   1      34.762  10.197  20.225  0.00  0.00     0.008 A 
HETATM    7  C   UNK N   1      34.905   9.334  19.127  0.00  0.00     0.016 A 
HETATM    8  C   UNK N   1      35.178   9.844  17.861  0.00  0.00     0.013 A 
HETATM    9  C   UNK N   1      35.301  11.218  17.682  0.00  0.00    -0.025 A 
HETATM   10  C   UNK N   1      35.525  11.723  16.414  0.00  0.00     0.029 A 
ENDROOT
BRANCH   1  11
HETATM   11  C   UNK N   1      35.882  13.608  14.881  0.00  0.00     0.256 C 
HETATM   12  N   UNK N   1      35.202  13.103  13.815  0.00  0.00    -0.323 N 
HETATM   13  H   UNK N   1      34.407  12.546  13.984  0.00  0.00     0.169 HD
HETATM   14  O   UNK N   1      36.743  14.472  14.729  0.00  0.00    -0.267 OA
BRANCH  12  15
HETATM   15  C   UNK N   1      35.588  13.343  12.476  0.00  0.00     0.035 A 
HETATM   16  C   UNK N   1      34.865  14.258  11.714  0.00  0.00     0.037 A 
HETATM   17  C   UNK N   1      35.185  14.509  10.398  0.00  0.00    -0.042 A 
HETATM   18  C   UNK N   1      34.333  15.477   9.613  0.00  0.00     0.036 C 
HETATM   19  C   UNK N   1      36.271  13.831   9.814  0.00  0.00    -0.034 A 
HETATM   20  C   UNK N   1      34.860  15.646   8.186  0.00  0.00     0.123 C 
HETATM   21  N   UNK N   1      35.342  14.376   7.650  0.00  0.00    -0.417 N 
HETATM   22  C   UNK N   1      36.575  14.048   8.365  0.00  0.00     0.153 C 
HETATM   23  H   UNK N   1      34.902  13.822   6.915  0.00  0.00     0.153 HD
HETATM   24  C   UNK N   1      37.036  12.938  10.579  0.00  0.00     0.011 A 
HETATM   25  C   UNK N   1      36.698  12.700  11.919  0.00  0.00     0.030 A 
BRANCH  18  26
HETATM   26  C   UNK N   1      32.878  14.996   9.556  0.00  0.00     0.006 C 
HETATM   27  C   UNK N   1      32.038  15.832   8.598  0.00  0.00     0.006 C 
ENDBRANCH  18  26
ENDBRANCH  12  15
ENDBRANCH   1  11
BRANCH   6  28
HETATM   28  C   UNK N   1      34.407   9.659  21.549  0.00  0.00     0.102 C 
HETATM   29  N   UNK N   1      34.554   8.409  21.799  0.00  0.00    -0.385 N 
HETATM   30  H   UNK N   1      34.910   7.803  21.110  0.00  0.00     0.157 HD
ATOM     31  HN  UNK N   1      34.301   8.042  22.716  1.00  0.00     0.157 HD
BRANCH  28  32
HETATM   32  N   UNK N   1      33.820  10.498  22.523  0.00  0.00    -0.385 N 
HETATM   33  H   UNK N   1      33.353  10.116  23.300  0.00  0.00     0.157 HD
HETATM   34  H   UNK N   1      33.878  11.476  22.422  0.00  0.00     0.157 HD
ENDBRANCH  28  32
ENDBRANCH   6  28
TORSDOF 5
ENDMDL
MODEL 7
REMARK VINA RESULT:      -7.6      8.013     13.649
REMARK  5 active torsions:
REMARK  status: ('A' for Active; 'I' for Inactive)
REMARK    1  A    between atoms: C_3  and  C_2 
REMARK    2  A    between atoms: C_10  and  N_11 
REMARK       I    between atoms: N_11  and  C_12 
REMARK    3  A    between atoms: C_12  and  C_14 
REMARK    4  A    between atoms: C_19  and  C_24 
REMARK    5  A    between atoms: C_24  and  N_25 
ROOT
HETATM    1  C   UNK N   1      35.647  14.085  12.811  0.00  0.00     0.033 A 
HETATM    2  C   UNK N   1      36.437  14.591  13.853  0.00  0.00     0.018 A 
HETATM    3  C   UNK N   1      36.493  13.924  15.077  0.00  0.00     0.013 A 
HETATM    4  C   UNK N   1      35.756  12.751  15.257  0.00  0.00    -0.025 A 
HETATM    5  C   UNK N   1      35.765  12.098  16.487  0.00  0.00     0.027 A 
HETATM    6  C   UNK N   1      34.990  10.944  16.674  0.00  0.00     0.008 A 
HETATM    7  C   UNK N   1      34.229  10.436  15.609  0.00  0.00     0.016 A 
HETATM    8  C   UNK N   1      34.224  11.080  14.375  0.00  0.00     0.013 A 
HETATM    9  C   UNK N   1      34.972  12.240  14.200  0.00  0.00    -0.025 A 
HETATM   10  C   UNK N   1      34.927  12.904  12.987  0.00  0.00     0.029 A 
ENDROOT
BRANCH   1  11
HETATM   11  C   UNK N   1      35.607  14.750  11.518  0.00  0.00     0.256 C 
HETATM   12  N   UNK N   1      34.549  15.542  11.192  0.00  0.00    -0.323 N 
HETATM   13  H   UNK N   1      33.924  15.810  11.905  0.00  0.00     0.169 HD
HETATM   14  O   UNK N   1      36.524  14.562  10.722  0.00  0.00    -0.267 OA
BRANCH  12  15
HETATM   15  C   UNK N   1      34.307  15.995   9.874  0.00  0.00     0.035 A 
HETATM   16  C   UNK N   1      33.548  15.205   9.013  0.00  0.00     0.037 A 
HETATM   17  C   UNK N   1      33.306  15.590   7.712  0.00  0.00    -0.042 A 
HETATM   18  C   UNK N   1      32.515  14.668   6.816  0.00  0.00     0.036 C 
HETATM   19  C   UNK N   1      33.831  16.810   7.247  0.00  0.00    -0.034 A 
HETATM   20  C   UNK N   1      32.326  15.277   5.424  0.00  0.00     0.123 C 
HETATM   21  N   UNK N   1      33.527  15.988   4.994  0.00  0.00    -0.417 N 
HETATM   22  C   UNK N   1      33.631  17.194   5.816  0.00  0.00     0.153 C 
HETATM   23  H   UNK N   1      34.173  15.697   4.260  0.00  0.00     0.153 HD
HETATM   24  C   UNK N   1      34.562  17.636   8.113  0.00  0.00     0.011 A 
HETATM   25  C   UNK N   1      34.794  17.231   9.436  0.00  0.00     0.030 A 
BRANCH  18  26
HETATM   26  C   UNK N   1      33.217  13.312   6.677  0.00  0.00     0.006 C 
HETATM   27  C   UNK N   1      32.700  12.522   5.482  0.00  0.00     0.006 C 
ENDBRANCH  18  26
ENDBRANCH  12  15
ENDBRANCH   1  11
BRANCH   6  28
HETATM   28  C   UNK N   1      34.939  10.298  17.996  0.00  0.00     0.102 C 
HETATM   29  N   UNK N   1      34.436   9.125  18.122  0.00  0.00    -0.385 N 
HETATM   30  H   UNK N   1      34.085   8.647  17.337  0.00  0.00     0.157 HD
ATOM     31  HN  UNK N   1      34.398   8.685  19.042  1.00  0.00     0.157 HD
BRANCH  28  32
HETATM   32  N   UNK N   1      35.363  11.000  19.147  0.00  0.00    -0.385 N 
HETATM   33  H   UNK N   1      34.740  11.583  19.637  0.00  0.00     0.157 HD
HETATM   34  H   UNK N   1      36.291  10.905  19.461  0.00  0.00     0.157 HD
ENDBRANCH  28  32
ENDBRANCH   6  28
TORSDOF 5
ENDMDL
MODEL 8
REMARK VINA RESULT:      -7.6     14.734     19.837
REMARK  5 active torsions:
REMARK  status: ('A' for Active; 'I' for Inactive)
REMARK    1  A    between atoms: C_3  and  C_2 
REMARK    2  A    between atoms: C_10  and  N_11 
REMARK       I    between atoms: N_11  and  C_12 
REMARK    3  A    between atoms: C_12  and  C_14 
REMARK    4  A    between atoms: C_19  and  C_24 
REMARK    5  A    between atoms: C_24  and  N_25 
ROOT
HETATM    1  C   UNK N   1      34.853  10.993  19.730  0.00  0.00     0.033 A 
HETATM    2  C   UNK N   1      34.972  12.378  19.913  0.00  0.00     0.018 A 
HETATM    3  C   UNK N   1      35.253  13.207  18.827  0.00  0.00     0.013 A 
HETATM    4  C   UNK N   1      35.416  12.648  17.557  0.00  0.00    -0.025 A 
HETATM    5  C   UNK N   1      35.742  13.456  16.471  0.00  0.00     0.027 A 
HETATM    6  C   UNK N   1      35.946  12.883  15.207  0.00  0.00     0.008 A 
HETATM    7  C   UNK N   1      35.792  11.498  15.037  0.00  0.00     0.016 A 
HETATM    8  C   UNK N   1      35.457  10.688  16.118  0.00  0.00     0.013 A 
HETATM    9  C   UNK N   1      35.283  11.254  17.376  0.00  0.00    -0.025 A 
HETATM   10  C   UNK N   1      34.997  10.440  18.458  0.00  0.00     0.029 A 
ENDROOT
BRANCH   1  11
HETATM   11  C   UNK N   1      34.525  10.121  20.846  0.00  0.00     0.256 C 
HETATM   12  N   UNK N   1      33.272   9.599  20.957  0.00  0.00    -0.323 N 
HETATM   13  H   UNK N   1      32.667   9.659  20.182  0.00  0.00     0.169 HD
HETATM   14  O   UNK N   1      35.382   9.889  21.695  0.00  0.00    -0.267 OA
BRANCH  12  15
HETATM   15  C   UNK N   1      32.802   8.975  22.136  0.00  0.00     0.035 A 
HETATM   16  C   UNK N   1      32.230   9.758  23.136  0.00  0.00     0.037 A 
HETATM   17  C   UNK N   1      31.781   9.203  24.314  0.00  0.00    -0.042 A 
HETATM   18  C   UNK N   1      31.214  10.112  25.378  0.00  0.00     0.036 C 
HETATM   19  C   UNK N   1      31.895   7.813  24.506  0.00  0.00    -0.034 A 
HETATM   20  C   UNK N   1      30.743   9.311  26.595  0.00  0.00     0.123 C 
HETATM   21  N   UNK N   1      31.652   8.203  26.879  0.00  0.00    -0.417 N 
HETATM   22  C   UNK N   1      31.475   7.219  25.813  0.00  0.00     0.153 C 
HETATM   23  H   UNK N   1      32.290   8.131  27.672  0.00  0.00     0.153 HD
HETATM   24  C   UNK N   1      32.430   7.005  23.492  0.00  0.00     0.011 A 
HETATM   25  C   UNK N   1      32.877   7.588  22.297  0.00  0.00     0.030 A 
BRANCH  18  26
HETATM   26  C   UNK N   1      32.260  11.138  25.828  0.00  0.00     0.006 C 
HETATM   27  C   UNK N   1      31.724  12.058  26.918  0.00  0.00     0.006 C 
ENDBRANCH  18  26
ENDBRANCH  12  15
ENDBRANCH   1  11
BRANCH   6  28
HETATM   28  C   UNK N   1      36.366  13.727  14.075  0.00  0.00     0.102 C 
HETATM   29  N   UNK N   1      36.847  14.896  14.286  0.00  0.00    -0.385 N 
HETATM   30  H   UNK N   1      36.945  15.236  15.204  0.00  0.00     0.157 HD
ATOM     31  HN  UNK N   1      37.131  15.478  13.496  1.00  0.00     0.157 HD
BRANCH  28  32
HETATM   32  N   UNK N   1      36.158  13.288  12.748  0.00  0.00    -0.385 N 
HETATM   33  H   UNK N   1      36.507  13.806  11.988  0.00  0.00     0.157 HD
HETATM   34  H   UNK N   1      35.658  12.456  12.582  0.00  0.00     0.157 HD
ENDBRANCH  28  32
ENDBRANCH   6  28
TORSDOF 5
ENDMDL
MODEL 9
REMARK VINA RESULT:      -7.5      7.467     13.453
REMARK  5 active torsions:
REMARK  status: ('A' for Active; 'I' for Inactive)
REMARK    1  A    between atoms: C_3  and  C_2 
REMARK    2  A    between atoms: C_10  and  N_11 
REMARK       I    between atoms: N_11  and  C_12 
REMARK    3  A    between atoms: C_12  and  C_14 
REMARK    4  A    between atoms: C_19  and  C_24 
REMARK    5  A    between atoms: C_24  and  N_25 
ROOT
HETATM    1  C   UNK N   1      35.409  13.499  12.157  0.00  0.00     0.033 A 
HETATM    2  C   UNK N   1      36.141  14.472  12.851  0.00  0.00     0.018 A 
HETATM    3  C   UNK N   1      36.305  14.372  14.233  0.00  0.00     0.013 A 
HETATM    4  C   UNK N   1      35.733  13.298  14.920  0.00  0.00    -0.025 A 
HETATM    5  C   UNK N   1      35.848  13.208  16.304  0.00  0.00     0.027 A 
HETATM    6  C   UNK N   1      35.237  12.150  16.991  0.00  0.00     0.008 A 
HETATM    7  C   UNK N   1      34.533  11.168  16.275  0.00  0.00     0.016 A 
HETATM    8  C   UNK N   1      34.423  11.249  14.890  0.00  0.00     0.013 A 
HETATM    9  C   UNK N   1      35.007  12.314  14.213  0.00  0.00    -0.025 A 
HETATM   10  C   UNK N   1      34.855  12.417  12.842  0.00  0.00     0.029 A 
ENDROOT
BRANCH   1  11
HETATM   11  C   UNK N   1      35.260  13.570  10.712  0.00  0.00     0.256 C 
HETATM   12  N   UNK N   1      35.692  14.671  10.036  0.00  0.00    -0.323 N 
HETATM   13  H   UNK N   1      36.271  15.314  10.506  0.00  0.00     0.169 HD
HETATM   14  O   UNK N   1      34.717  12.639  10.121  0.00  0.00    -0.267 OA
BRANCH  12  15
HETATM   15  C   UNK N   1      35.342  14.930   8.691  0.00  0.00     0.035 A 
HETATM   16  C   UNK N   1      34.403  15.921   8.412  0.00  0.00     0.037 A 
HETATM   17  C   UNK N   1      34.010  16.195   7.121  0.00  0.00    -0.042 A 
HETATM   18  C   UNK N   1      32.954  17.249   6.889  0.00  0.00     0.036 C 
HETATM   19  C   UNK N   1      34.576  15.463   6.060  0.00  0.00    -0.034 A 
HETATM   20  C   UNK N   1      32.673  17.430   5.395  0.00  0.00     0.123 C 
HETATM   21  N   UNK N   1      32.703  16.149   4.695  0.00  0.00    -0.417 N 
HETATM   22  C   UNK N   1      34.097  15.709   4.665  0.00  0.00     0.153 C 
HETATM   23  H   UNK N   1      31.902  15.654   4.302  0.00  0.00     0.153 HD
HETATM   24  C   UNK N   1      35.553  14.491   6.320  0.00  0.00     0.011 A 
HETATM   25  C   UNK N   1      35.945  14.229   7.641  0.00  0.00     0.030 A 
BRANCH  18  26
HETATM   26  C   UNK N   1      31.650  16.875   7.602  0.00  0.00     0.006 C 
HETATM   27  C   UNK N   1      31.220  17.941   8.602  0.00  0.00     0.006 C 
ENDBRANCH  18  26
ENDBRANCH  12  15
ENDBRANCH   1  11
BRANCH   6  28
HETATM   28  C   UNK N   1      35.293  12.097  18.462  0.00  0.00     0.102 C 
HETATM   29  N   UNK N   1      35.338  10.966  19.066  0.00  0.00    -0.385 N 
HETATM   30  H   UNK N   1      35.340  10.127  18.551  0.00  0.00     0.157 HD
ATOM     31  HN  UNK N   1      35.371  10.936  20.085  1.00  0.00     0.157 HD
BRANCH  28  32
HETATM   32  N   UNK N   1      35.209  13.286  19.219  0.00  0.00    -0.385 N 
HETATM   33  H   UNK N   1      35.148  13.254  20.201  0.00  0.00     0.157 HD
HETATM   34  H   UNK N   1      35.210  14.157  18.760  0.00  0.00     0.157 HD
ENDBRANCH  28  32
ENDBRANCH   6  28
TORSDOF 5
ENDMDL
