REMARK  5 active torsions:
REMARK  status: ('A' for Active; 'I' for Inactive)
REMARK    1  A    between atoms: C_3  and  C_2 
REMARK    2  A    between atoms: C_10  and  N_11 
REMARK       I    between atoms: N_11  and  C_12 
REMARK    3  A    between atoms: C_12  and  C_14 
REMARK    4  A    between atoms: C_19  and  C_24 
REMARK    5  A    between atoms: C_24  and  N_25 
ROOT
HETATM    1  C   UNK N   1       1.223   1.065   0.668  0.00  0.00     0.033 A 
HETATM    2  C   UNK N   1       1.224   2.459   0.816  0.00  0.00     0.018 A 
HETATM    3  C   UNK N   1       2.414   3.176   0.692  0.00  0.00     0.013 A 
HETATM    4  C   UNK N   1       3.604   2.496   0.422  0.00  0.00    -0.025 A 
HETATM    5  C   UNK N   1       4.807   3.191   0.341  0.00  0.00     0.027 A 
HETATM    6  C   UNK N   1       6.004   2.497   0.111  0.00  0.00     0.008 A 
HETATM    7  C   UNK N   1       5.979   1.104  -0.065  0.00  0.00     0.016 A 
HETATM    8  C   UNK N   1       4.777   0.406   0.006  0.00  0.00     0.013 A 
HETATM    9  C   UNK N   1       3.595   1.093   0.262  0.00  0.00    -0.025 A 
HETATM   10  C   UNK N   1       2.409   0.390   0.379  0.00  0.00     0.029 A 
ENDROOT
BRANCH   1  11
HETATM   11  C   UNK N   1      -0.016   0.308   0.758  0.00  0.00     0.256 C 
HETATM   12  N   UNK N   1      -0.013  -1.033   0.522  0.00  0.00    -0.323 N 
HETATM   13  H   UNK N   1       0.852  -1.503   0.487  0.00  0.00     0.169 HD
HETATM   14  O   UNK N   1      -1.060   0.901   1.020  0.00  0.00    -0.267 OA
BRANCH  12  15
HETATM   15  C   UNK N   1      -1.198  -1.779   0.324  0.00  0.00     0.035 A 
HETATM   16  C   UNK N   1      -2.351  -1.122  -0.100  0.00  0.00     0.037 A 
HETATM   17  C   UNK N   1      -3.537  -1.799  -0.283  0.00  0.00    -0.042 A 
HETATM   18  C   UNK N   1      -4.762  -1.021  -0.699  0.00  0.00     0.036 C 
HETATM   19  C   UNK N   1      -3.581  -3.185  -0.044  0.00  0.00    -0.034 A 
HETATM   20  C   UNK N   1      -5.969  -1.946  -0.879  0.00  0.00     0.123 C 
HETATM   21  N   UNK N   1      -5.984  -2.995   0.137  0.00  0.00    -0.417 N 
HETATM   22  C   UNK N   1      -4.884  -3.908  -0.172  0.00  0.00     0.153 C 
HETATM   23  H   UNK N   1      -6.638  -3.075   0.916  0.00  0.00     0.153 HD
HETATM   24  C   UNK N   1      -2.419  -3.869   0.343  0.00  0.00     0.011 A 
HETATM   25  C   UNK N   1      -1.219  -3.164   0.519  0.00  0.00     0.030 A 
BRANCH  18  26
HETATM   26  C   UNK N   1      -5.104   0.050   0.343  0.00  0.00     0.006 C 
HETATM   27  C   UNK N   1      -4.662   1.439  -0.100  0.00  0.00     0.006 C 
ENDBRANCH  18  26
ENDBRANCH  12  15
ENDBRANCH   1  11
BRANCH   6  28
HETATM   28  C   UNK N   1       7.286   3.222   0.102  0.00  0.00     0.102 C 
HETATM   29  N   UNK N   1       8.390   2.580  -0.015  0.00  0.00    -0.385 N 
HETATM   30  H   UNK N   1       8.388   1.600  -0.105  0.00  0.00     0.157 HD
ATOM     31  HN  UNK N   1       9.275   3.088  -0.015  1.00  0.00     0.157 HD
BRANCH  28  32
HETATM   32  N   UNK N   1       7.313   4.619   0.311  0.00  0.00    -0.385 N 
HETATM   33  H   UNK N   1       8.165   5.089   0.457  0.00  0.00     0.157 HD
HETATM   34  H   UNK N   1       6.470   5.128   0.311  0.00  0.00     0.157 HD
ENDBRANCH  28  32
ENDBRANCH   6  28
TORSDOF 5
