REMARK  7 active torsions:
REMARK  status: ('A' for Active; 'I' for Inactive)
REMARK    1  A    between atoms: C_9  and  C_10 
REMARK    2  A    between atoms: C_11  and  C_12 
REMARK    3  A    between atoms: C_12  and  O_13 
REMARK    4  A    between atoms: C_16  and  C_19 
REMARK    5  A    between atoms: C_21  and  C_22 
REMARK    6  A    between atoms: C_24  and  O_25 
REMARK    7  A    between atoms: C_27  and  O_28 
ROOT
HETATM    1  C   UNK N   1       2.217   0.664   0.077  0.00  0.00     0.038 A 
HETATM    2  C   UNK N   1       3.549   1.126   0.102  0.00  0.00     0.135 A 
HETATM    3  N   UNK N   1       4.373   0.062   0.114  0.00  0.00    -0.293 N 
HETATM    4  C   UNK N   1       2.350  -0.751   0.058  0.00  0.00     0.074 A 
HETATM    5  N   UNK N   1       3.664  -1.048   0.089  0.00  0.00    -0.298 N 
ATOM      6  HN  UNK N   1       4.052  -1.992   0.092  1.00  0.00     0.187 HD
HETATM    7  H   UNK N   1       5.356   0.107   0.138  0.00  0.00     0.187 HD
ENDROOT
BRANCH   4   8
HETATM    8  C   UNK N   1       1.323  -1.853  -0.046  0.00  0.00     0.027 A 
HETATM    9  C   UNK N   1      -0.018  -1.565  -0.309  0.00  0.00     0.026 A 
HETATM   10  C   UNK N   1      -0.994  -2.556  -0.402  0.00  0.00    -0.024 A 
HETATM   11  C   UNK N   1      -0.627  -3.895  -0.247  0.00  0.00     0.074 A 
HETATM   12  C   UNK N   1       0.710  -4.221  -0.010  0.00  0.00     0.074 A 
HETATM   13  C   UNK N   1       1.685  -3.219   0.089  0.00  0.00     0.081 A 
BRANCH  10  14
HETATM   14  C   UNK N   1      -2.423  -2.171  -0.630  0.00  0.00     0.037 C 
HETATM   15  C   UNK N   1      -2.598  -1.451  -1.954  0.00  0.00     0.010 C 
ENDBRANCH  10  14
BRANCH  11  16
HETATM   16  O   UNK N   1      -1.550  -4.869  -0.318  0.00  0.00    -0.360 OA
HETATM   17  H   UNK N   1      -2.460  -4.652  -0.368  0.00  0.00     0.217 HD
ENDBRANCH  11  16
BRANCH  13  18
HETATM   18  O   UNK N   1       2.956  -3.583   0.326  0.00  0.00    -0.360 OA
HETATM   19  H   UNK N   1       3.180  -4.478   0.491  0.00  0.00     0.217 HD
ENDBRANCH  13  18
ENDBRANCH   4   8
BRANCH   1  20
HETATM   20  C   UNK N   1       0.954   1.488   0.077  0.00  0.00    -0.018 A 
HETATM   21  C   UNK N   1      -0.252   0.943   0.555  0.00  0.00     0.052 A 
HETATM   22  C   UNK N   1      -1.415   1.691   0.483  0.00  0.00     0.105 A 
HETATM   23  O   UNK N   1      -2.647   1.336   0.837  0.00  0.00    -0.323 OA
HETATM   24  C   UNK N   1      -1.430   2.931  -0.001  0.00  0.00     0.105 A 
HETATM   25  C   UNK N   1      -3.507   2.404   0.562  0.00  0.00     0.352 A 
HETATM   26  O   UNK N   1      -2.676   3.399   0.034  0.00  0.00    -0.323 OA
HETATM   27  C   UNK N   1      -0.274   3.557  -0.458  0.00  0.00     0.040 A 
HETATM   28  C   UNK N   1       0.928   2.817  -0.417  0.00  0.00     0.015 A 
ENDBRANCH   1  20
BRANCH   2  29
HETATM   29  C   UNK N   1       4.119   2.498   0.161  0.00  0.00     0.196 C 
HETATM   30  O   UNK N   1       5.332   2.635   0.186  0.00  0.00    -0.645 OA
BRANCH  29  31
HETATM   31  O   UNK N   1       3.348   3.595   0.219  0.00  0.00    -0.772 OA
HETATM   32  H   UNK N   1       3.742   4.444   0.260  0.00  0.00     0.167 HD
ENDBRANCH  29  31
ENDBRANCH   2  29
TORSDOF 7
