MODEL 1
REMARK VINA RESULT:      -7.7      0.000      0.000
REMARK  7 active torsions:
REMARK  status: ('A' for Active; 'I' for Inactive)
REMARK    1  A    between atoms: C_9  and  C_10 
REMARK    2  A    between atoms: C_11  and  C_12 
REMARK    3  A    between atoms: C_12  and  O_13 
REMARK    4  A    between atoms: C_16  and  C_19 
REMARK    5  A    between atoms: C_21  and  C_22 
REMARK    6  A    between atoms: C_24  and  O_25 
REMARK    7  A    between atoms: C_27  and  O_28 
ROOT
HETATM    1  C   UNK N   1      20.670  17.860   2.515  0.00  0.00     0.038 A 
HETATM    2  C   UNK N   1      20.642  19.223   2.155  0.00  0.00     0.135 A 
HETATM    3  N   UNK N   1      20.338  19.316   0.847  0.00  0.00    -0.293 N 
HETATM    4  C   UNK N   1      20.340  17.185   1.309  0.00  0.00     0.074 A 
HETATM    5  N   UNK N   1      20.160  18.111   0.346  0.00  0.00    -0.298 N 
ATOM      6  HN  UNK N   1      19.922  17.908  -0.625  1.00  0.00     0.187 HD
HETATM    7  H   UNK N   1      20.260  20.157   0.342  0.00  0.00     0.187 HD
ENDROOT
BRANCH   4   8
HETATM    8  C   UNK N   1      20.123  15.721   1.006  0.00  0.00     0.027 A 
HETATM    9  C   UNK N   1      21.058  14.759   1.396  0.00  0.00     0.026 A 
HETATM   10  C   UNK N   1      20.895  13.402   1.125  0.00  0.00    -0.024 A 
HETATM   11  C   UNK N   1      19.747  12.970   0.455  0.00  0.00     0.074 A 
HETATM   12  C   UNK N   1      18.779  13.902   0.075  0.00  0.00     0.074 A 
HETATM   13  C   UNK N   1      18.952  15.266   0.345  0.00  0.00     0.081 A 
BRANCH  10  14
HETATM   14  C   UNK N   1      21.964  12.432   1.521  0.00  0.00     0.037 C 
HETATM   15  C   UNK N   1      23.089  12.401   0.504  0.00  0.00     0.010 C 
ENDBRANCH  10  14
BRANCH  11  16
HETATM   16  O   UNK N   1      19.571  11.669   0.169  0.00  0.00    -0.360 OA
HETATM   17  H   UNK N   1      19.169  11.100   0.795  0.00  0.00     0.217 HD
ENDBRANCH  11  16
BRANCH  13  18
HETATM   18  O   UNK N   1      17.996  16.124  -0.048  0.00  0.00    -0.360 OA
HETATM   19  H   UNK N   1      17.238  15.824  -0.510  0.00  0.00     0.217 HD
ENDBRANCH  13  18
ENDBRANCH   4   8
BRANCH   1  20
HETATM   20  C   UNK N   1      20.985  17.268   3.866  0.00  0.00    -0.018 A 
HETATM   21  C   UNK N   1      19.963  16.704   4.651  0.00  0.00     0.052 A 
HETATM   22  C   UNK N   1      20.259  16.228   5.918  0.00  0.00     0.105 A 
HETATM   23  O   UNK N   1      19.430  15.707   6.818  0.00  0.00    -0.323 OA
HETATM   24  C   UNK N   1      21.494  16.260   6.414  0.00  0.00     0.105 A 
HETATM   25  C   UNK N   1      20.169  15.389   7.962  0.00  0.00     0.352 A 
HETATM   26  O   UNK N   1      21.482  15.757   7.647  0.00  0.00    -0.323 OA
HETATM   27  C   UNK N   1      22.567  16.766   5.687  0.00  0.00     0.040 A 
HETATM   28  C   UNK N   1      22.299  17.277   4.399  0.00  0.00     0.015 A 
ENDBRANCH   1  20
BRANCH   2  29
HETATM   29  C   UNK N   1      20.923  20.458   2.934  0.00  0.00     0.196 C 
HETATM   30  O   UNK N   1      20.293  20.668   3.958  0.00  0.00    -0.645 OA
BRANCH  29  31
HETATM   31  O   UNK N   1      21.825  21.369   2.537  0.00  0.00    -0.772 OA
HETATM   32  H   UNK N   1      21.777  21.731   1.674  0.00  0.00     0.167 HD
ENDBRANCH  29  31
ENDBRANCH   2  29
TORSDOF 7
ENDMDL
MODEL 2
REMARK VINA RESULT:      -7.7      9.280     11.787
REMARK  7 active torsions:
REMARK  status: ('A' for Active; 'I' for Inactive)
REMARK    1  A    between atoms: C_9  and  C_10 
REMARK    2  A    between atoms: C_11  and  C_12 
REMARK    3  A    between atoms: C_12  and  O_13 
REMARK    4  A    between atoms: C_16  and  C_19 
REMARK    5  A    between atoms: C_21  and  C_22 
REMARK    6  A    between atoms: C_24  and  O_25 
REMARK    7  A    between atoms: C_27  and  O_28 
ROOT
HETATM    1  C   UNK N   1      31.076  16.734   4.637  0.00  0.00     0.038 A 
HETATM    2  C   UNK N   1      31.349  16.207   3.358  0.00  0.00     0.135 A 
HETATM    3  N   UNK N   1      30.319  16.499   2.543  0.00  0.00    -0.293 N 
HETATM    4  C   UNK N   1      29.812  17.366   4.479  0.00  0.00     0.074 A 
HETATM    5  N   UNK N   1      29.410  17.184   3.206  0.00  0.00    -0.298 N 
ATOM      6  HN  UNK N   1      28.532  17.526   2.814  1.00  0.00     0.187 HD
HETATM    7  H   UNK N   1      30.255  16.241   1.595  0.00  0.00     0.187 HD
ENDROOT
BRANCH   4   8
HETATM    8  C   UNK N   1      28.976  18.186   5.432  0.00  0.00     0.027 A 
HETATM    9  C   UNK N   1      28.976  17.919   6.803  0.00  0.00     0.026 A 
HETATM   10  C   UNK N   1      28.209  18.648   7.710  0.00  0.00    -0.024 A 
HETATM   11  C   UNK N   1      27.419  19.703   7.245  0.00  0.00     0.074 A 
HETATM   12  C   UNK N   1      27.415  20.015   5.884  0.00  0.00     0.074 A 
HETATM   13  C   UNK N   1      28.184  19.272   4.977  0.00  0.00     0.081 A 
BRANCH  10  14
HETATM   14  C   UNK N   1      28.215  18.271   9.159  0.00  0.00     0.037 C 
HETATM   15  C   UNK N   1      29.608  18.369   9.751  0.00  0.00     0.010 C 
ENDBRANCH  10  14
BRANCH  11  16
HETATM   16  O   UNK N   1      26.659  20.413   8.096  0.00  0.00    -0.360 OA
HETATM   17  H   UNK N   1      26.817  21.329   8.216  0.00  0.00     0.217 HD
ENDBRANCH  11  16
BRANCH  13  18
HETATM   18  O   UNK N   1      28.140  19.607   3.677  0.00  0.00    -0.360 OA
HETATM   19  H   UNK N   1      27.608  19.127   3.072  0.00  0.00     0.217 HD
ENDBRANCH  13  18
ENDBRANCH   4   8
BRANCH   1  20
HETATM   20  C   UNK N   1      31.929  16.638   5.877  0.00  0.00    -0.018 A 
HETATM   21  C   UNK N   1      31.721  15.601   6.805  0.00  0.00     0.052 A 
HETATM   22  C   UNK N   1      32.468  15.569   7.971  0.00  0.00     0.105 A 
HETATM   23  O   UNK N   1      32.386  14.705   8.979  0.00  0.00    -0.323 OA
HETATM   24  C   UNK N   1      33.405  16.476   8.236  0.00  0.00     0.105 A 
HETATM   25  C   UNK N   1      33.318  15.078   9.952  0.00  0.00     0.352 A 
HETATM   26  O   UNK N   1      33.946  16.212   9.423  0.00  0.00    -0.323 OA
HETATM   27  C   UNK N   1      33.699  17.511   7.353  0.00  0.00     0.040 A 
HETATM   28  C   UNK N   1      32.944  17.586   6.162  0.00  0.00     0.015 A 
ENDBRANCH   1  20
BRANCH   2  29
HETATM   29  C   UNK N   1      32.489  15.404   2.842  0.00  0.00     0.196 C 
HETATM   30  O   UNK N   1      33.490  15.982   2.447  0.00  0.00    -0.645 OA
BRANCH  29  31
HETATM   31  O   UNK N   1      32.449  14.065   2.765  0.00  0.00    -0.772 OA
HETATM   32  H   UNK N   1      33.068  13.548   3.243  0.00  0.00     0.167 HD
ENDBRANCH  29  31
ENDBRANCH   2  29
TORSDOF 7
ENDMDL
MODEL 3
REMARK VINA RESULT:      -7.3     10.321     12.883
REMARK  7 active torsions:
REMARK  status: ('A' for Active; 'I' for Inactive)
REMARK    1  A    between atoms: C_9  and  C_10 
REMARK    2  A    between atoms: C_11  and  C_12 
REMARK    3  A    between atoms: C_12  and  O_13 
REMARK    4  A    between atoms: C_16  and  C_19 
REMARK    5  A    between atoms: C_21  and  C_22 
REMARK    6  A    between atoms: C_24  and  O_25 
REMARK    7  A    between atoms: C_27  and  O_28 
ROOT
HETATM    1  C   UNK N   1      32.016  15.454   5.801  0.00  0.00     0.038 A 
HETATM    2  C   UNK N   1      32.322  14.365   4.959  0.00  0.00     0.135 A 
HETATM    3  N   UNK N   1      31.235  14.071   4.223  0.00  0.00    -0.293 N 
HETATM    4  C   UNK N   1      30.669  15.768   5.471  0.00  0.00     0.074 A 
HETATM    5  N   UNK N   1      30.257  14.900   4.526  0.00  0.00    -0.298 N 
ATOM      6  HN  UNK N   1      29.326  14.888   4.108  1.00  0.00     0.187 HD
HETATM    7  H   UNK N   1      31.179  13.347   3.559  0.00  0.00     0.187 HD
ENDROOT
BRANCH   4   8
HETATM    8  C   UNK N   1      29.753  16.871   5.943  0.00  0.00     0.027 A 
HETATM    9  C   UNK N   1      29.536  17.094   7.305  0.00  0.00     0.026 A 
HETATM   10  C   UNK N   1      28.690  18.096   7.776  0.00  0.00    -0.024 A 
HETATM   11  C   UNK N   1      28.041  18.930   6.862  0.00  0.00     0.074 A 
HETATM   12  C   UNK N   1      28.256  18.753   5.494  0.00  0.00     0.074 A 
HETATM   13  C   UNK N   1      29.103  17.739   5.027  0.00  0.00     0.081 A 
BRANCH  10  14
HETATM   14  C   UNK N   1      28.459  18.242   9.248  0.00  0.00     0.037 C 
HETATM   15  C   UNK N   1      29.745  18.579   9.979  0.00  0.00     0.010 C 
ENDBRANCH  10  14
BRANCH  11  16
HETATM   16  O   UNK N   1      27.209  19.895   7.288  0.00  0.00    -0.360 OA
HETATM   17  H   UNK N   1      26.408  20.061   6.832  0.00  0.00     0.217 HD
ENDBRANCH  11  16
BRANCH  13  18
HETATM   18  O   UNK N   1      29.271  17.604   3.701  0.00  0.00    -0.360 OA
HETATM   19  H   UNK N   1      28.538  17.604   3.118  0.00  0.00     0.217 HD
ENDBRANCH  13  18
ENDBRANCH   4   8
BRANCH   1  20
HETATM   20  C   UNK N   1      32.913  16.118   6.815  0.00  0.00    -0.018 A 
HETATM   21  C   UNK N   1      33.372  15.403   7.936  0.00  0.00     0.052 A 
HETATM   22  C   UNK N   1      34.138  16.049   8.892  0.00  0.00     0.105 A 
HETATM   23  O   UNK N   1      34.621  15.560  10.031  0.00  0.00    -0.323 OA
HETATM   24  C   UNK N   1      34.484  17.329   8.774  0.00  0.00     0.105 A 
HETATM   25  C   UNK N   1      35.314  16.582  10.688  0.00  0.00     0.352 A 
HETATM   26  O   UNK N   1      35.200  17.689   9.837  0.00  0.00    -0.323 OA
HETATM   27  C   UNK N   1      34.104  18.097   7.676  0.00  0.00     0.040 A 
HETATM   28  C   UNK N   1      33.306  17.475   6.691  0.00  0.00     0.015 A 
ENDBRANCH   1  20
BRANCH   2  29
HETATM   29  C   UNK N   1      33.551  13.539   4.818  0.00  0.00     0.196 C 
HETATM   30  O   UNK N   1      34.483  13.972   4.159  0.00  0.00    -0.645 OA
BRANCH  29  31
HETATM   31  O   UNK N   1      33.663  12.318   5.363  0.00  0.00    -0.772 OA
HETATM   32  H   UNK N   1      32.972  11.977   5.897  0.00  0.00     0.167 HD
ENDBRANCH  29  31
ENDBRANCH   2  29
TORSDOF 7
ENDMDL
MODEL 4
REMARK VINA RESULT:      -7.2      8.015     10.458
REMARK  7 active torsions:
REMARK  status: ('A' for Active; 'I' for Inactive)
REMARK    1  A    between atoms: C_9  and  C_10 
REMARK    2  A    between atoms: C_11  and  C_12 
REMARK    3  A    between atoms: C_12  and  O_13 
REMARK    4  A    between atoms: C_16  and  C_19 
REMARK    5  A    between atoms: C_21  and  C_22 
REMARK    6  A    between atoms: C_24  and  O_25 
REMARK    7  A    between atoms: C_27  and  O_28 
ROOT
HETATM    1  C   UNK N   1      28.276  16.882   3.765  0.00  0.00     0.038 A 
HETATM    2  C   UNK N   1      27.540  15.928   3.033  0.00  0.00     0.135 A 
HETATM    3  N   UNK N   1      28.357  14.909   2.711  0.00  0.00    -0.293 N 
HETATM    4  C   UNK N   1      29.577  16.314   3.848  0.00  0.00     0.074 A 
HETATM    5  N   UNK N   1      29.562  15.137   3.192  0.00  0.00    -0.298 N 
ATOM      6  HN  UNK N   1      30.364  14.516   3.084  1.00  0.00     0.187 HD
HETATM    7  H   UNK N   1      28.094  14.113   2.194  0.00  0.00     0.187 HD
ENDROOT
BRANCH   4   8
HETATM    8  C   UNK N   1      30.829  16.776   4.555  0.00  0.00     0.027 A 
HETATM    9  C   UNK N   1      30.920  16.748   5.949  0.00  0.00     0.026 A 
HETATM   10  C   UNK N   1      32.056  17.175   6.635  0.00  0.00    -0.024 A 
HETATM   11  C   UNK N   1      33.160  17.633   5.912  0.00  0.00     0.074 A 
HETATM   12  C   UNK N   1      33.113  17.649   4.516  0.00  0.00     0.074 A 
HETATM   13  C   UNK N   1      31.965  17.224   3.833  0.00  0.00     0.081 A 
BRANCH  10  14
HETATM   14  C   UNK N   1      32.064  17.170   8.132  0.00  0.00     0.037 C 
HETATM   15  C   UNK N   1      30.962  18.049   8.694  0.00  0.00     0.010 C 
ENDBRANCH  10  14
BRANCH  11  16
HETATM   16  O   UNK N   1      34.262  18.064   6.548  0.00  0.00    -0.360 OA
HETATM   17  H   UNK N   1      34.185  18.577   7.328  0.00  0.00     0.217 HD
ENDBRANCH  11  16
BRANCH  13  18
HETATM   18  O   UNK N   1      31.966  17.267   2.491  0.00  0.00    -0.360 OA
HETATM   19  H   UNK N   1      31.948  18.084   2.032  0.00  0.00     0.217 HD
ENDBRANCH  13  18
ENDBRANCH   4   8
BRANCH   1  20
HETATM   20  C   UNK N   1      27.790  18.198   4.319  0.00  0.00    -0.018 A 
HETATM   21  C   UNK N   1      27.807  18.436   5.705  0.00  0.00     0.052 A 
HETATM   22  C   UNK N   1      27.292  19.623   6.200  0.00  0.00     0.105 A 
HETATM   23  O   UNK N   1      27.178  20.007   7.468  0.00  0.00    -0.323 OA
HETATM   24  C   UNK N   1      26.801  20.568   5.402  0.00  0.00     0.105 A 
HETATM   25  C   UNK N   1      26.577  21.269   7.492  0.00  0.00     0.352 A 
HETATM   26  O   UNK N   1      26.363  21.583   6.144  0.00  0.00    -0.323 OA
HETATM   27  C   UNK N   1      26.783  20.427   4.017  0.00  0.00     0.040 A 
HETATM   28  C   UNK N   1      27.283  19.222   3.479  0.00  0.00     0.015 A 
ENDBRANCH   1  20
BRANCH   2  29
HETATM   29  C   UNK N   1      26.128  15.914   2.568  0.00  0.00     0.196 C 
HETATM   30  O   UNK N   1      25.236  16.134   3.373  0.00  0.00    -0.645 OA
BRANCH  29  31
HETATM   31  O   UNK N   1      25.792  15.636   1.298  0.00  0.00    -0.772 OA
HETATM   32  H   UNK N   1      26.450  15.372   0.686  0.00  0.00     0.167 HD
ENDBRANCH  29  31
ENDBRANCH   2  29
TORSDOF 7
ENDMDL
MODEL 5
REMARK VINA RESULT:      -7.2     12.325     14.954
REMARK  7 active torsions:
REMARK  status: ('A' for Active; 'I' for Inactive)
REMARK    1  A    between atoms: C_9  and  C_10 
REMARK    2  A    between atoms: C_11  and  C_12 
REMARK    3  A    between atoms: C_12  and  O_13 
REMARK    4  A    between atoms: C_16  and  C_19 
REMARK    5  A    between atoms: C_21  and  C_22 
REMARK    6  A    between atoms: C_24  and  O_25 
REMARK    7  A    between atoms: C_27  and  O_28 
ROOT
HETATM    1  C   UNK N   1      27.040  24.846  -5.012  0.00  0.00     0.038 A 
HETATM    2  C   UNK N   1      26.221  24.266  -6.003  0.00  0.00     0.135 A 
HETATM    3  N   UNK N   1      25.417  25.219  -6.508  0.00  0.00    -0.293 N 
HETATM    4  C   UNK N   1      26.648  26.212  -5.007  0.00  0.00     0.074 A 
HETATM    5  N   UNK N   1      25.668  26.370  -5.919  0.00  0.00    -0.298 N 
ATOM      6  HN  UNK N   1      25.193  27.250  -6.123  1.00  0.00     0.187 HD
HETATM    7  H   UNK N   1      24.743  25.077  -7.212  0.00  0.00     0.187 HD
ENDROOT
BRANCH   4   8
HETATM    8  C   UNK N   1      27.172  27.403  -4.240  0.00  0.00     0.027 A 
HETATM    9  C   UNK N   1      28.530  27.524  -3.938  0.00  0.00     0.026 A 
HETATM   10  C   UNK N   1      29.047  28.604  -3.224  0.00  0.00    -0.024 A 
HETATM   11  C   UNK N   1      28.186  29.621  -2.804  0.00  0.00     0.074 A 
HETATM   12  C   UNK N   1      26.826  29.546  -3.112  0.00  0.00     0.074 A 
HETATM   13  C   UNK N   1      26.313  28.454  -3.824  0.00  0.00     0.081 A 
BRANCH  10  14
HETATM   14  C   UNK N   1      30.505  28.641  -2.886  0.00  0.00     0.037 C 
HETATM   15  C   UNK N   1      31.176  27.313  -3.184  0.00  0.00     0.010 C 
ENDBRANCH  10  14
BRANCH  11  16
HETATM   16  O   UNK N   1      28.656  30.666  -2.102  0.00  0.00    -0.360 OA
HETATM   17  H   UNK N   1      28.380  31.536  -2.312  0.00  0.00     0.217 HD
ENDBRANCH  11  16
BRANCH  13  18
HETATM   18  O   UNK N   1      24.996  28.424  -4.089  0.00  0.00    -0.360 OA
HETATM   19  H   UNK N   1      24.644  28.858  -4.841  0.00  0.00     0.217 HD
ENDBRANCH  13  18
ENDBRANCH   4   8
BRANCH   1  20
HETATM   20  C   UNK N   1      28.080  24.165  -4.159  0.00  0.00    -0.018 A 
HETATM   21  C   UNK N   1      29.349  23.865  -4.687  0.00  0.00     0.052 A 
HETATM   22  C   UNK N   1      30.267  23.178  -3.910  0.00  0.00     0.105 A 
HETATM   23  O   UNK N   1      31.487  22.767  -4.245  0.00  0.00    -0.323 OA
HETATM   24  C   UNK N   1      30.001  22.812  -2.658  0.00  0.00     0.105 A 
HETATM   25  C   UNK N   1      32.038  22.093  -3.150  0.00  0.00     0.352 A 
HETATM   26  O   UNK N   1      31.048  22.157  -2.162  0.00  0.00    -0.323 OA
HETATM   27  C   UNK N   1      28.784  23.104  -2.048  0.00  0.00     0.040 A 
HETATM   28  C   UNK N   1      27.817  23.788  -2.817  0.00  0.00     0.015 A 
ENDBRANCH   1  20
BRANCH   2  29
HETATM   29  C   UNK N   1      26.099  22.866  -6.489  0.00  0.00     0.196 C 
HETATM   30  O   UNK N   1      27.082  22.314  -6.957  0.00  0.00    -0.645 OA
BRANCH  29  31
HETATM   31  O   UNK N   1      24.937  22.195  -6.462  0.00  0.00    -0.772 OA
HETATM   32  H   UNK N   1      24.448  22.072  -7.252  0.00  0.00     0.167 HD
ENDBRANCH  29  31
ENDBRANCH   2  29
TORSDOF 7
ENDMDL
MODEL 6
REMARK VINA RESULT:      -7.1      6.887      9.735
REMARK  7 active torsions:
REMARK  status: ('A' for Active; 'I' for Inactive)
REMARK    1  A    between atoms: C_9  and  C_10 
REMARK    2  A    between atoms: C_11  and  C_12 
REMARK    3  A    between atoms: C_12  and  O_13 
REMARK    4  A    between atoms: C_16  and  C_19 
REMARK    5  A    between atoms: C_21  and  C_22 
REMARK    6  A    between atoms: C_24  and  O_25 
REMARK    7  A    between atoms: C_27  and  O_28 
ROOT
HETATM    1  C   UNK N   1      27.015  18.432   5.230  0.00  0.00     0.038 A 
HETATM    2  C   UNK N   1      26.075  19.461   5.015  0.00  0.00     0.135 A 
HETATM    3  N   UNK N   1      26.085  20.283   6.081  0.00  0.00    -0.293 N 
HETATM    4  C   UNK N   1      27.574  18.745   6.499  0.00  0.00     0.074 A 
HETATM    5  N   UNK N   1      26.971  19.859   6.959  0.00  0.00    -0.298 N 
ATOM      6  HN  UNK N   1      27.172  20.308   7.853  1.00  0.00     0.187 HD
HETATM    7  H   UNK N   1      25.517  21.080   6.187  0.00  0.00     0.187 HD
ENDROOT
BRANCH   4   8
HETATM    8  C   UNK N   1      28.685  18.099   7.292  0.00  0.00     0.027 A 
HETATM    9  C   UNK N   1      29.885  17.729   6.680  0.00  0.00     0.026 A 
HETATM   10  C   UNK N   1      30.927  17.122   7.379  0.00  0.00    -0.024 A 
HETATM   11  C   UNK N   1      30.787  16.886   8.748  0.00  0.00     0.074 A 
HETATM   12  C   UNK N   1      29.611  17.267   9.398  0.00  0.00     0.074 A 
HETATM   13  C   UNK N   1      28.565  17.871   8.688  0.00  0.00     0.081 A 
BRANCH  10  14
HETATM   14  C   UNK N   1      32.164  16.700   6.647  0.00  0.00     0.037 C 
HETATM   15  C   UNK N   1      32.175  17.231   5.226  0.00  0.00     0.010 C 
ENDBRANCH  10  14
BRANCH  11  16
HETATM   16  O   UNK N   1      31.771  16.289   9.443  0.00  0.00    -0.360 OA
HETATM   17  H   UNK N   1      32.664  16.533   9.298  0.00  0.00     0.217 HD
ENDBRANCH  11  16
BRANCH  13  18
HETATM   18  O   UNK N   1      27.451  18.213   9.356  0.00  0.00    -0.360 OA
HETATM   19  H   UNK N   1      27.320  19.089   9.662  0.00  0.00     0.217 HD
ENDBRANCH  13  18
ENDBRANCH   4   8
BRANCH   1  20
HETATM   20  C   UNK N   1      27.338  17.272   4.323  0.00  0.00    -0.018 A 
HETATM   21  C   UNK N   1      26.427  16.209   4.174  0.00  0.00     0.052 A 
HETATM   22  C   UNK N   1      26.771  15.121   3.390  0.00  0.00     0.105 A 
HETATM   23  O   UNK N   1      26.072  14.011   3.167  0.00  0.00    -0.323 OA
HETATM   24  C   UNK N   1      27.932  15.054   2.742  0.00  0.00     0.105 A 
HETATM   25  C   UNK N   1      26.825  13.179   2.333  0.00  0.00     0.352 A 
HETATM   26  O   UNK N   1      28.001  13.897   2.087  0.00  0.00    -0.323 OA
HETATM   27  C   UNK N   1      28.871  16.079   2.806  0.00  0.00     0.040 A 
HETATM   28  C   UNK N   1      28.562  17.197   3.611  0.00  0.00     0.015 A 
ENDBRANCH   1  20
BRANCH   2  29
HETATM   29  C   UNK N   1      25.125  19.716   3.899  0.00  0.00     0.196 C 
HETATM   30  O   UNK N   1      24.020  19.199   3.933  0.00  0.00    -0.645 OA
BRANCH  29  31
HETATM   31  O   UNK N   1      25.449  20.470   2.837  0.00  0.00    -0.772 OA
HETATM   32  H   UNK N   1      24.777  20.880   2.330  0.00  0.00     0.167 HD
ENDBRANCH  29  31
ENDBRANCH   2  29
TORSDOF 7
ENDMDL
MODEL 7
REMARK VINA RESULT:      -6.9     12.348     15.473
REMARK  7 active torsions:
REMARK  status: ('A' for Active; 'I' for Inactive)
REMARK    1  A    between atoms: C_9  and  C_10 
REMARK    2  A    between atoms: C_11  and  C_12 
REMARK    3  A    between atoms: C_12  and  O_13 
REMARK    4  A    between atoms: C_16  and  C_19 
REMARK    5  A    between atoms: C_21  and  C_22 
REMARK    6  A    between atoms: C_24  and  O_25 
REMARK    7  A    between atoms: C_27  and  O_28 
ROOT
HETATM    1  C   UNK N   1      26.646  24.689  -6.443  0.00  0.00     0.038 A 
HETATM    2  C   UNK N   1      25.933  23.830  -7.304  0.00  0.00     0.135 A 
HETATM    3  N   UNK N   1      25.405  24.562  -8.302  0.00  0.00    -0.293 N 
HETATM    4  C   UNK N   1      26.496  25.970  -7.042  0.00  0.00     0.074 A 
HETATM    5  N   UNK N   1      25.737  25.828  -8.147  0.00  0.00    -0.298 N 
ATOM      6  HN  UNK N   1      25.461  26.587  -8.770  1.00  0.00     0.187 HD
HETATM    7  H   UNK N   1      24.855  24.206  -9.036  0.00  0.00     0.187 HD
ENDROOT
BRANCH   4   8
HETATM    8  C   UNK N   1      27.067  27.319  -6.679  0.00  0.00     0.027 A 
HETATM    9  C   UNK N   1      26.677  27.975  -5.510  0.00  0.00     0.026 A 
HETATM   10  C   UNK N   1      27.176  29.226  -5.148  0.00  0.00    -0.024 A 
HETATM   11  C   UNK N   1      28.117  29.850  -5.970  0.00  0.00     0.074 A 
HETATM   12  C   UNK N   1      28.550  29.211  -7.133  0.00  0.00     0.074 A 
HETATM   13  C   UNK N   1      28.039  27.957  -7.494  0.00  0.00     0.081 A 
BRANCH  10  14
HETATM   14  C   UNK N   1      26.671  29.896  -3.908  0.00  0.00     0.037 C 
HETATM   15  C   UNK N   1      27.457  29.464  -2.685  0.00  0.00     0.010 C 
ENDBRANCH  10  14
BRANCH  11  16
HETATM   16  O   UNK N   1      28.604  31.062  -5.652  0.00  0.00    -0.360 OA
HETATM   17  H   UNK N   1      28.083  31.664  -5.159  0.00  0.00     0.217 HD
ENDBRANCH  11  16
BRANCH  13  18
HETATM   18  O   UNK N   1      28.481  27.386  -8.627  0.00  0.00    -0.360 OA
HETATM   19  H   UNK N   1      29.364  27.507  -8.916  0.00  0.00     0.217 HD
ENDBRANCH  13  18
ENDBRANCH   4   8
BRANCH   1  20
HETATM   20  C   UNK N   1      27.387  24.325  -5.181  0.00  0.00    -0.018 A 
HETATM   21  C   UNK N   1      28.732  23.914  -5.238  0.00  0.00     0.052 A 
HETATM   22  C   UNK N   1      29.373  23.518  -4.076  0.00  0.00     0.105 A 
HETATM   23  O   UNK N   1      30.614  23.059  -3.936  0.00  0.00    -0.323 OA
HETATM   24  C   UNK N   1      28.768  23.538  -2.891  0.00  0.00     0.105 A 
HETATM   25  C   UNK N   1      30.820  22.761  -2.585  0.00  0.00     0.352 A 
HETATM   26  O   UNK N   1      29.611  23.091  -1.962  0.00  0.00    -0.323 OA
HETATM   27  C   UNK N   1      27.452  23.967  -2.743  0.00  0.00     0.040 A 
HETATM   28  C   UNK N   1      26.760  24.361  -3.910  0.00  0.00     0.015 A 
ENDBRANCH   1  20
BRANCH   2  29
HETATM   29  C   UNK N   1      25.666  22.369  -7.244  0.00  0.00     0.196 C 
HETATM   30  O   UNK N   1      24.641  21.975  -6.710  0.00  0.00    -0.645 OA
BRANCH  29  31
HETATM   31  O   UNK N   1      26.526  21.460  -7.730  0.00  0.00    -0.772 OA
HETATM   32  H   UNK N   1      26.648  21.376  -8.655  0.00  0.00     0.167 HD
ENDBRANCH  29  31
ENDBRANCH   2  29
TORSDOF 7
ENDMDL
MODEL 8
REMARK VINA RESULT:      -6.8     12.702     14.334
REMARK  7 active torsions:
REMARK  status: ('A' for Active; 'I' for Inactive)
REMARK    1  A    between atoms: C_9  and  C_10 
REMARK    2  A    between atoms: C_11  and  C_12 
REMARK    3  A    between atoms: C_12  and  O_13 
REMARK    4  A    between atoms: C_16  and  C_19 
REMARK    5  A    between atoms: C_21  and  C_22 
REMARK    6  A    between atoms: C_24  and  O_25 
REMARK    7  A    between atoms: C_27  and  O_28 
ROOT
HETATM    1  C   UNK N   1      29.902  22.519  -4.757  0.00  0.00     0.038 A 
HETATM    2  C   UNK N   1      30.776  21.771  -3.942  0.00  0.00     0.135 A 
HETATM    3  N   UNK N   1      31.027  20.595  -4.545  0.00  0.00    -0.293 N 
HETATM    4  C   UNK N   1      29.688  21.679  -5.883  0.00  0.00     0.074 A 
HETATM    5  N   UNK N   1      30.382  20.540  -5.693  0.00  0.00    -0.298 N 
ATOM      6  HN  UNK N   1      30.406  19.752  -6.342  1.00  0.00     0.187 HD
HETATM    7  H   UNK N   1      31.604  19.884  -4.184  0.00  0.00     0.187 HD
ENDROOT
BRANCH   4   8
HETATM    8  C   UNK N   1      28.917  21.895  -7.163  0.00  0.00     0.027 A 
HETATM    9  C   UNK N   1      27.540  22.126  -7.144  0.00  0.00     0.026 A 
HETATM   10  C   UNK N   1      26.795  22.320  -8.307  0.00  0.00    -0.024 A 
HETATM   11  C   UNK N   1      27.443  22.305  -9.545  0.00  0.00     0.074 A 
HETATM   12  C   UNK N   1      28.823  22.104  -9.599  0.00  0.00     0.074 A 
HETATM   13  C   UNK N   1      29.565  21.903  -8.427  0.00  0.00     0.081 A 
BRANCH  10  14
HETATM   14  C   UNK N   1      25.312  22.505  -8.216  0.00  0.00     0.037 C 
HETATM   15  C   UNK N   1      24.674  21.442  -7.342  0.00  0.00     0.010 C 
ENDBRANCH  10  14
BRANCH  11  16
HETATM   16  O   UNK N   1      26.747  22.475 -10.681  0.00  0.00    -0.360 OA
HETATM   17  H   UNK N   1      25.827  22.296 -10.702  0.00  0.00     0.217 HD
ENDBRANCH  11  16
BRANCH  13  18
HETATM   18  O   UNK N   1      30.889  21.707  -8.532  0.00  0.00    -0.360 OA
HETATM   19  H   UNK N   1      31.379  22.082  -9.237  0.00  0.00     0.217 HD
ENDBRANCH  13  18
ENDBRANCH   4   8
BRANCH   1  20
HETATM   20  C   UNK N   1      29.328  23.887  -4.484  0.00  0.00    -0.018 A 
HETATM   21  C   UNK N   1      28.059  24.022  -3.891  0.00  0.00     0.052 A 
HETATM   22  C   UNK N   1      27.521  25.284  -3.711  0.00  0.00     0.105 A 
HETATM   23  O   UNK N   1      26.330  25.610  -3.216  0.00  0.00    -0.323 OA
HETATM   24  C   UNK N   1      28.177  26.390  -4.057  0.00  0.00     0.105 A 
HETATM   25  C   UNK N   1      26.208  27.003  -3.249  0.00  0.00     0.352 A 
HETATM   26  O   UNK N   1      27.419  27.451  -3.789  0.00  0.00    -0.323 OA
HETATM   27  C   UNK N   1      29.452  26.345  -4.614  0.00  0.00     0.040 A 
HETATM   28  C   UNK N   1      30.025  25.072  -4.829  0.00  0.00     0.015 A 
ENDBRANCH   1  20
BRANCH   2  29
HETATM   29  C   UNK N   1      31.368  22.054  -2.607  0.00  0.00     0.196 C 
HETATM   30  O   UNK N   1      30.871  22.924  -1.910  0.00  0.00    -0.645 OA
BRANCH  29  31
HETATM   31  O   UNK N   1      32.452  21.407  -2.150  0.00  0.00    -0.772 OA
HETATM   32  H   UNK N   1      32.793  21.605  -1.301  0.00  0.00     0.167 HD
ENDBRANCH  29  31
ENDBRANCH   2  29
TORSDOF 7
ENDMDL
MODEL 9
REMARK VINA RESULT:      -6.8     12.282     14.717
REMARK  7 active torsions:
REMARK  status: ('A' for Active; 'I' for Inactive)
REMARK    1  A    between atoms: C_9  and  C_10 
REMARK    2  A    between atoms: C_11  and  C_12 
REMARK    3  A    between atoms: C_12  and  O_13 
REMARK    4  A    between atoms: C_16  and  C_19 
REMARK    5  A    between atoms: C_21  and  C_22 
REMARK    6  A    between atoms: C_24  and  O_25 
REMARK    7  A    between atoms: C_27  and  O_28 
ROOT
HETATM    1  C   UNK N   1      34.431  15.524   8.838  0.00  0.00     0.038 A 
HETATM    2  C   UNK N   1      35.215  15.912   9.944  0.00  0.00     0.135 A 
HETATM    3  N   UNK N   1      34.921  17.188  10.254  0.00  0.00    -0.293 N 
HETATM    4  C   UNK N   1      33.653  16.679   8.554  0.00  0.00     0.074 A 
HETATM    5  N   UNK N   1      33.998  17.642   9.431  0.00  0.00    -0.298 N 
ATOM      6  HN  UNK N   1      33.602  18.583   9.455  1.00  0.00     0.187 HD
HETATM    7  H   UNK N   1      35.333  17.703  10.984  0.00  0.00     0.187 HD
ENDROOT
BRANCH   4   8
HETATM    8  C   UNK N   1      32.557  16.926   7.544  0.00  0.00     0.027 A 
HETATM    9  C   UNK N   1      32.851  17.095   6.189  0.00  0.00     0.026 A 
HETATM   10  C   UNK N   1      31.867  17.334   5.232  0.00  0.00    -0.024 A 
HETATM   11  C   UNK N   1      30.528  17.391   5.626  0.00  0.00     0.074 A 
HETATM   12  C   UNK N   1      30.195  17.200   6.969  0.00  0.00     0.074 A 
HETATM   13  C   UNK N   1      31.191  16.967   7.928  0.00  0.00     0.081 A 
BRANCH  10  14
HETATM   14  C   UNK N   1      32.259  17.562   3.805  0.00  0.00     0.037 C 
HETATM   15  C   UNK N   1      32.602  16.258   3.110  0.00  0.00     0.010 C 
ENDBRANCH  10  14
BRANCH  11  16
HETATM   16  O   UNK N   1      29.560  17.635   4.726  0.00  0.00    -0.360 OA
HETATM   17  H   UNK N   1      29.149  18.476   4.694  0.00  0.00     0.217 HD
ENDBRANCH  11  16
BRANCH  13  18
HETATM   18  O   UNK N   1      30.821  16.797   9.208  0.00  0.00    -0.360 OA
HETATM   19  H   UNK N   1      30.500  17.515   9.717  0.00  0.00     0.217 HD
ENDBRANCH  13  18
ENDBRANCH   4   8
BRANCH   1  20
HETATM   20  C   UNK N   1      34.431  14.195   8.127  0.00  0.00    -0.018 A 
HETATM   21  C   UNK N   1      33.441  13.236   8.409  0.00  0.00     0.052 A 
HETATM   22  C   UNK N   1      33.497  11.995   7.797  0.00  0.00     0.105 A 
HETATM   23  O   UNK N   1      32.688  10.953   7.968  0.00  0.00    -0.323 OA
HETATM   24  C   UNK N   1      34.449  11.681   6.920  0.00  0.00     0.105 A 
HETATM   25  C   UNK N   1      33.145   9.907   7.161  0.00  0.00     0.352 A 
HETATM   26  O   UNK N   1      34.268  10.428   6.508  0.00  0.00    -0.323 OA
HETATM   27  C   UNK N   1      35.442  12.586   6.557  0.00  0.00     0.040 A 
HETATM   28  C   UNK N   1      35.427  13.855   7.176  0.00  0.00     0.015 A 
ENDBRANCH   1  20
BRANCH   2  29
HETATM   29  C   UNK N   1      36.262  15.191  10.716  0.00  0.00     0.196 C 
HETATM   30  O   UNK N   1      35.921  14.356  11.539  0.00  0.00    -0.645 OA
BRANCH  29  31
HETATM   31  O   UNK N   1      37.571  15.444  10.563  0.00  0.00    -0.772 OA
HETATM   32  H   UNK N   1      37.850  16.179  10.054  0.00  0.00     0.167 HD
ENDBRANCH  29  31
ENDBRANCH   2  29
TORSDOF 7
ENDMDL
