REMARK  10 active torsions:
REMARK  status: ('A' for Active; 'I' for Inactive)
REMARK    1  A    between atoms: C_1  and  C_2 
REMARK    2  A    between atoms: C_1  and  S_18 
REMARK    3  A    between atoms: C_2  and  C_6 
REMARK    4  A    between atoms: C_3  and  C_9 
REMARK    5  A    between atoms: C_9  and  C_10 
REMARK    6  A    between atoms: C_10  and  S_13 
REMARK    7  A    between atoms: N_11  and  C_12 
REMARK    8  A    between atoms: C_12  and  S_13 
REMARK    9  A    between atoms: N_16  and  C_17 
REMARK   10  A    between atoms: C_17  and  S_18 
ROOT
HETATM    1  C   UNK N   1      -1.858   0.501   0.232  0.00  0.00    -0.057 A 
HETATM    2  C   UNK N   1      -1.871   1.893   0.100  0.00  0.00     0.007 A 
HETATM    3  C   UNK N   1      -0.679   2.585  -0.141  0.00  0.00     0.007 A 
HETATM    4  C   UNK N   1       0.529   1.886  -0.241  0.00  0.00    -0.057 A 
HETATM    5  C   UNK N   1       0.541   0.492  -0.109  0.00  0.00     0.007 A 
HETATM    6  C   UNK N   1      -0.649  -0.198   0.131  0.00  0.00     0.007 A 
ENDROOT
BRANCH   1   7
HETATM    7  C   UNK N   1      -3.127  -0.230   0.509  0.00  0.00     0.049 C 
BRANCH   7   8
HETATM    8  C   UNK N   1      -3.468  -1.183  -0.624  0.00  0.00     0.087 C 
BRANCH   8   9
HETATM    9  S   UNK N   1      -4.391  -2.592   0.058  0.00  0.00    -0.095 SA
BRANCH   9  10
HETATM   10  C   UNK N   1      -2.988  -3.718   0.021  0.00  0.00     0.131 C 
HETATM   11  N   UNK N   1      -1.846  -3.345   0.468  0.00  0.00    -0.380 N 
HETATM   12  H   UNK N   1      -1.160  -3.961   0.811  0.00  0.00     0.158 HD
ATOM     13  HN  UNK N   1      -1.636  -2.347   0.468  1.00  0.00     0.158 HD
BRANCH  10  14
HETATM   14  N   UNK N   1      -3.203  -5.077  -0.290  0.00  0.00    -0.380 N 
HETATM   15  H   UNK N   1      -4.099  -5.422  -0.506  0.00  0.00     0.158 HD
HETATM   16  H   UNK N   1      -2.438  -5.696  -0.290  0.00  0.00     0.158 HD
ENDBRANCH  10  14
ENDBRANCH   9  10
ENDBRANCH   8   9
ENDBRANCH   7   8
ENDBRANCH   1   7
BRANCH   4  17
HETATM   17  C   UNK N   1       1.792   2.625  -0.521  0.00  0.00     0.049 C 
BRANCH  17  18
HETATM   18  C   UNK N   1       2.774   2.488   0.630  0.00  0.00     0.087 C 
BRANCH  18  19
HETATM   19  S   UNK N   1       4.453   2.780  -0.001  0.00  0.00    -0.095 SA
BRANCH  19  20
HETATM   20  C   UNK N   1       4.914   1.040  -0.017  0.00  0.00     0.131 C 
HETATM   21  N   UNK N   1       4.104   0.158  -0.468  0.00  0.00    -0.380 N 
HETATM   22  H   UNK N   1       3.205   0.358  -0.816  0.00  0.00     0.158 HD
ATOM     23  HN  UNK N   1       4.410  -0.815  -0.468  1.00  0.00     0.158 HD
BRANCH  20  24
HETATM   24  N   UNK N   1       6.251   0.680   0.262  0.00  0.00    -0.380 N 
HETATM   25  H   UNK N   1       6.500  -0.252   0.457  0.00  0.00     0.158 HD
HETATM   26  H   UNK N   1       6.948   1.376   0.262  0.00  0.00     0.158 HD
ENDBRANCH  20  24
ENDBRANCH  19  20
ENDBRANCH  18  19
ENDBRANCH  17  18
ENDBRANCH   4  17
TORSDOF 10
