MODEL 1
REMARK VINA RESULT:      -5.4      0.000      0.000
REMARK  11 active torsions:
REMARK  status: ('A' for Active; 'I' for Inactive)
REMARK    1  A    between atoms: C_1  and  C_2 
REMARK    2  A    between atoms: C_1  and  C_14 
REMARK    3  A    between atoms: C_2  and  C_3 
REMARK    4  A    between atoms: C_3  and  C_4 
REMARK    5  A    between atoms: C_4  and  O_5 
REMARK    6  A    between atoms: C_8  and  O_9 
REMARK    7  A    between atoms: C_8  and  C_10 
REMARK    8  A    between atoms: C_10  and  C_11 
REMARK    9  A    between atoms: C_11  and  C_12 
REMARK   10  A    between atoms: C_12  and  C_13 
REMARK   11  A    between atoms: C_13  and  C_14 
ROOT
HETATM    1  C   UNK N   1      21.113  13.281   9.501  0.00  0.00     0.078 C 
ENDROOT
BRANCH   1   2
HETATM    2  C   UNK N   1      21.215  12.531  10.791  0.00  0.00     0.127 C 
HETATM    3  O   UNK N   1      20.230  12.323  11.488  0.00  0.00    -0.298 OA
BRANCH   2   4
HETATM    4  C   UNK N   1      22.574  12.061  11.206  0.00  0.00     0.088 C 
BRANCH   4   5
HETATM    5  C   UNK N   1      23.549  11.844  10.058  0.00  0.00     0.117 C 
BRANCH   5   6
HETATM    6  C   UNK N   1      24.750  12.731  10.204  0.00  0.00     0.139 C 
HETATM    7  O   UNK N   1      25.104  13.423   9.265  0.00  0.00    -0.650 OA
BRANCH   6   8
HETATM    8  O   UNK N   1      25.444  12.774  11.361  0.00  0.00    -0.776 OA
HETATM    9  H   UNK N   1      25.376  12.069  11.975  0.00  0.00     0.167 HD
ENDBRANCH   6   8
ENDBRANCH   5   6
ENDBRANCH   4   5
ENDBRANCH   2   4
ENDBRANCH   1   2
BRANCH   1  10
HETATM   10  C   UNK N   1      20.206  14.493   9.547  0.00  0.00     0.007 C 
BRANCH  10  11
HETATM   11  C   UNK N   1      20.781  15.530   8.602  0.00  0.00     0.001 C 
BRANCH  11  12
HETATM   12  C   UNK N   1      19.674  16.363   7.994  0.00  0.00     0.010 C 
BRANCH  12  13
HETATM   13  C   UNK N   1      19.089  17.301   9.030  0.00  0.00     0.110 C 
BRANCH  13  14
HETATM   14  C   UNK N   1      19.859  18.577   9.044  0.00  0.00     0.139 C 
HETATM   15  O   UNK N   1      19.867  19.277  10.043  0.00  0.00    -0.650 OA
BRANCH  14  16
HETATM   16  O   UNK N   1      20.542  18.959   7.950  0.00  0.00    -0.776 OA
HETATM   17  H   UNK N   1      20.576  18.411   7.190  0.00  0.00     0.167 HD
ENDBRANCH  14  16
ENDBRANCH  13  14
ENDBRANCH  12  13
ENDBRANCH  11  12
ENDBRANCH  10  11
ENDBRANCH   1  10
TORSDOF 11
ENDMDL
MODEL 2
REMARK VINA RESULT:      -5.1     17.319     18.440
REMARK  11 active torsions:
REMARK  status: ('A' for Active; 'I' for Inactive)
REMARK    1  A    between atoms: C_1  and  C_2 
REMARK    2  A    between atoms: C_1  and  C_14 
REMARK    3  A    between atoms: C_2  and  C_3 
REMARK    4  A    between atoms: C_3  and  C_4 
REMARK    5  A    between atoms: C_4  and  O_5 
REMARK    6  A    between atoms: C_8  and  O_9 
REMARK    7  A    between atoms: C_8  and  C_10 
REMARK    8  A    between atoms: C_10  and  C_11 
REMARK    9  A    between atoms: C_11  and  C_12 
REMARK   10  A    between atoms: C_12  and  C_13 
REMARK   11  A    between atoms: C_13  and  C_14 
ROOT
HETATM    1  C   UNK N   1      26.954  23.870  -5.214  0.00  0.00     0.078 C 
ENDROOT
BRANCH   1   2
HETATM    2  C   UNK N   1      28.180  24.123  -4.395  0.00  0.00     0.127 C 
HETATM    3  O   UNK N   1      28.300  25.139  -3.722  0.00  0.00    -0.298 OA
BRANCH   2   4
HETATM    4  C   UNK N   1      29.263  23.090  -4.444  0.00  0.00     0.088 C 
BRANCH   4   5
HETATM    5  C   UNK N   1      30.559  23.495  -3.759  0.00  0.00     0.117 C 
BRANCH   5   6
HETATM    6  C   UNK N   1      30.797  22.661  -2.534  0.00  0.00     0.139 C 
HETATM    7  O   UNK N   1      30.358  23.033  -1.460  0.00  0.00    -0.650 OA
BRANCH   6   8
HETATM    8  O   UNK N   1      31.491  21.506  -2.607  0.00  0.00    -0.776 OA
HETATM    9  H   UNK N   1      31.086  20.699  -2.354  0.00  0.00     0.167 HD
ENDBRANCH   6   8
ENDBRANCH   5   6
ENDBRANCH   4   5
ENDBRANCH   2   4
ENDBRANCH   1   2
BRANCH   1  10
HETATM   10  C   UNK N   1      25.778  24.766  -4.880  0.00  0.00     0.007 C 
BRANCH  10  11
HETATM   11  C   UNK N   1      25.525  25.653  -6.084  0.00  0.00     0.001 C 
BRANCH  11  12
HETATM   12  C   UNK N   1      25.007  27.004  -5.644  0.00  0.00     0.010 C 
BRANCH  12  13
HETATM   13  C   UNK N   1      26.154  27.893  -5.206  0.00  0.00     0.110 C 
BRANCH  13  14
HETATM   14  C   UNK N   1      25.836  28.506  -3.886  0.00  0.00     0.139 C 
HETATM   15  O   UNK N   1      25.469  27.805  -2.957  0.00  0.00    -0.650 OA
BRANCH  14  16
HETATM   16  O   UNK N   1      25.950  29.836  -3.719  0.00  0.00    -0.776 OA
HETATM   17  H   UNK N   1      25.308  30.315  -3.231  0.00  0.00     0.167 HD
ENDBRANCH  14  16
ENDBRANCH  13  14
ENDBRANCH  12  13
ENDBRANCH  11  12
ENDBRANCH  10  11
ENDBRANCH   1  10
TORSDOF 11
ENDMDL
MODEL 3
REMARK VINA RESULT:      -5.0      7.733      9.132
REMARK  11 active torsions:
REMARK  status: ('A' for Active; 'I' for Inactive)
REMARK    1  A    between atoms: C_1  and  C_2 
REMARK    2  A    between atoms: C_1  and  C_14 
REMARK    3  A    between atoms: C_2  and  C_3 
REMARK    4  A    between atoms: C_3  and  C_4 
REMARK    5  A    between atoms: C_4  and  O_5 
REMARK    6  A    between atoms: C_8  and  O_9 
REMARK    7  A    between atoms: C_8  and  C_10 
REMARK    8  A    between atoms: C_10  and  C_11 
REMARK    9  A    between atoms: C_11  and  C_12 
REMARK   10  A    between atoms: C_12  and  C_13 
REMARK   11  A    between atoms: C_13  and  C_14 
ROOT
HETATM    1  C   UNK N   1      24.823  18.791   3.444  0.00  0.00     0.078 C 
ENDROOT
BRANCH   1   2
HETATM    2  C   UNK N   1      25.335  20.111   2.958  0.00  0.00     0.127 C 
HETATM    3  O   UNK N   1      24.665  20.823   2.221  0.00  0.00    -0.298 OA
BRANCH   2   4
HETATM    4  C   UNK N   1      26.708  20.516   3.395  0.00  0.00     0.088 C 
BRANCH   4   5
HETATM    5  C   UNK N   1      27.183  19.864   4.686  0.00  0.00     0.117 C 
BRANCH   5   6
HETATM    6  C   UNK N   1      26.841  20.718   5.872  0.00  0.00     0.139 C 
HETATM    7  O   UNK N   1      27.344  21.822   5.982  0.00  0.00    -0.650 OA
BRANCH   6   8
HETATM    8  O   UNK N   1      25.983  20.278   6.817  0.00  0.00    -0.776 OA
HETATM    9  H   UNK N   1      25.060  20.373   6.692  0.00  0.00     0.167 HD
ENDBRANCH   6   8
ENDBRANCH   5   6
ENDBRANCH   4   5
ENDBRANCH   2   4
ENDBRANCH   1   2
BRANCH   1  10
HETATM   10  C   UNK N   1      23.683  18.886   4.438  0.00  0.00     0.007 C 
BRANCH  10  11
HETATM   11  C   UNK N   1      22.475  18.216   3.811  0.00  0.00     0.001 C 
BRANCH  11  12
HETATM   12  C   UNK N   1      21.302  19.170   3.774  0.00  0.00     0.010 C 
BRANCH  12  13
HETATM   13  C   UNK N   1      20.880  19.434   2.343  0.00  0.00     0.110 C 
BRANCH  13  14
HETATM   14  C   UNK N   1      21.132  20.862   2.001  0.00  0.00     0.139 C 
HETATM   15  O   UNK N   1      20.670  21.338   0.976  0.00  0.00    -0.650 OA
BRANCH  14  16
HETATM   16  O   UNK N   1      21.874  21.627   2.821  0.00  0.00    -0.776 OA
HETATM   17  H   UNK N   1      22.710  21.952   2.548  0.00  0.00     0.167 HD
ENDBRANCH  14  16
ENDBRANCH  13  14
ENDBRANCH  12  13
ENDBRANCH  11  12
ENDBRANCH  10  11
ENDBRANCH   1  10
TORSDOF 11
ENDMDL
MODEL 4
REMARK VINA RESULT:      -5.0      9.354     11.689
REMARK  11 active torsions:
REMARK  status: ('A' for Active; 'I' for Inactive)
REMARK    1  A    between atoms: C_1  and  C_2 
REMARK    2  A    between atoms: C_1  and  C_14 
REMARK    3  A    between atoms: C_2  and  C_3 
REMARK    4  A    between atoms: C_3  and  C_4 
REMARK    5  A    between atoms: C_4  and  O_5 
REMARK    6  A    between atoms: C_8  and  O_9 
REMARK    7  A    between atoms: C_8  and  C_10 
REMARK    8  A    between atoms: C_10  and  C_11 
REMARK    9  A    between atoms: C_11  and  C_12 
REMARK   10  A    between atoms: C_12  and  C_13 
REMARK   11  A    between atoms: C_13  and  C_14 
ROOT
HETATM    1  C   UNK N   1      33.120  16.230   7.329  0.00  0.00     0.078 C 
ENDROOT
BRANCH   1   2
HETATM    2  C   UNK N   1      33.763  17.376   6.613  0.00  0.00     0.127 C 
HETATM    3  O   UNK N   1      34.513  18.151   7.192  0.00  0.00    -0.298 OA
BRANCH   2   4
HETATM    4  C   UNK N   1      33.436  17.548   5.162  0.00  0.00     0.088 C 
BRANCH   4   5
HETATM    5  C   UNK N   1      32.933  16.289   4.470  0.00  0.00     0.117 C 
BRANCH   5   6
HETATM    6  C   UNK N   1      32.815  16.506   2.990  0.00  0.00     0.139 C 
HETATM    7  O   UNK N   1      33.590  15.944   2.237  0.00  0.00    -0.650 OA
BRANCH   6   8
HETATM    8  O   UNK N   1      31.860  17.314   2.482  0.00  0.00    -0.776 OA
HETATM    9  H   UNK N   1      32.047  18.219   2.326  0.00  0.00     0.167 HD
ENDBRANCH   6   8
ENDBRANCH   5   6
ENDBRANCH   4   5
ENDBRANCH   2   4
ENDBRANCH   1   2
BRANCH   1  10
HETATM   10  C   UNK N   1      32.587  16.568   8.706  0.00  0.00     0.007 C 
BRANCH  10  11
HETATM   11  C   UNK N   1      31.118  16.910   8.555  0.00  0.00     0.001 C 
BRANCH  11  12
HETATM   12  C   UNK N   1      30.893  18.388   8.785  0.00  0.00     0.010 C 
BRANCH  12  13
HETATM   13  C   UNK N   1      29.718  18.605   9.718  0.00  0.00     0.110 C 
BRANCH  13  14
HETATM   14  C   UNK N   1      28.445  18.531   8.945  0.00  0.00     0.139 C 
HETATM   15  O   UNK N   1      28.347  19.101   7.871  0.00  0.00    -0.650 OA
BRANCH  14  16
HETATM   16  O   UNK N   1      27.402  17.838   9.436  0.00  0.00    -0.776 OA
HETATM   17  H   UNK N   1      26.880  17.296   8.877  0.00  0.00     0.167 HD
ENDBRANCH  14  16
ENDBRANCH  13  14
ENDBRANCH  12  13
ENDBRANCH  11  12
ENDBRANCH  10  11
ENDBRANCH   1  10
TORSDOF 11
ENDMDL
MODEL 5
REMARK VINA RESULT:      -4.9      9.548     11.691
REMARK  11 active torsions:
REMARK  status: ('A' for Active; 'I' for Inactive)
REMARK    1  A    between atoms: C_1  and  C_2 
REMARK    2  A    between atoms: C_1  and  C_14 
REMARK    3  A    between atoms: C_2  and  C_3 
REMARK    4  A    between atoms: C_3  and  C_4 
REMARK    5  A    between atoms: C_4  and  O_5 
REMARK    6  A    between atoms: C_8  and  O_9 
REMARK    7  A    between atoms: C_8  and  C_10 
REMARK    8  A    between atoms: C_10  and  C_11 
REMARK    9  A    between atoms: C_11  and  C_12 
REMARK   10  A    between atoms: C_12  and  C_13 
REMARK   11  A    between atoms: C_13  and  C_14 
ROOT
HETATM    1  C   UNK N   1      33.152  17.859   7.613  0.00  0.00     0.078 C 
ENDROOT
BRANCH   1   2
HETATM    2  C   UNK N   1      34.426  18.040   8.377  0.00  0.00     0.127 C 
HETATM    3  O   UNK N   1      35.253  18.881   8.049  0.00  0.00    -0.298 OA
BRANCH   2   4
HETATM    4  C   UNK N   1      34.657  17.136   9.548  0.00  0.00     0.088 C 
BRANCH   4   5
HETATM    5  C   UNK N   1      35.023  15.705   9.185  0.00  0.00     0.117 C 
BRANCH   5   6
HETATM    6  C   UNK N   1      36.180  15.225  10.010  0.00  0.00     0.139 C 
HETATM    7  O   UNK N   1      36.497  14.048   9.974  0.00  0.00    -0.650 OA
BRANCH   6   8
HETATM    8  O   UNK N   1      36.875  16.078  10.791  0.00  0.00    -0.776 OA
HETATM    9  H   UNK N   1      37.493  16.669  10.406  0.00  0.00     0.167 HD
ENDBRANCH   6   8
ENDBRANCH   5   6
ENDBRANCH   4   5
ENDBRANCH   2   4
ENDBRANCH   1   2
BRANCH   1  10
HETATM   10  C   UNK N   1      31.898  17.896   8.464  0.00  0.00     0.007 C 
BRANCH  10  11
HETATM   11  C   UNK N   1      30.987  16.784   7.981  0.00  0.00     0.001 C 
BRANCH  11  12
HETATM   12  C   UNK N   1      30.059  17.293   6.900  0.00  0.00     0.010 C 
BRANCH  12  13
HETATM   13  C   UNK N   1      28.613  17.098   7.309  0.00  0.00     0.110 C 
BRANCH  13  14
HETATM   14  C   UNK N   1      28.153  18.275   8.099  0.00  0.00     0.139 C 
HETATM   15  O   UNK N   1      28.256  19.400   7.637  0.00  0.00    -0.650 OA
BRANCH  14  16
HETATM   16  O   UNK N   1      27.627  18.097   9.324  0.00  0.00    -0.776 OA
HETATM   17  H   UNK N   1      27.868  18.659  10.035  0.00  0.00     0.167 HD
ENDBRANCH  14  16
ENDBRANCH  13  14
ENDBRANCH  12  13
ENDBRANCH  11  12
ENDBRANCH  10  11
ENDBRANCH   1  10
TORSDOF 11
ENDMDL
MODEL 6
REMARK VINA RESULT:      -4.9      9.040     11.335
REMARK  11 active torsions:
REMARK  status: ('A' for Active; 'I' for Inactive)
REMARK    1  A    between atoms: C_1  and  C_2 
REMARK    2  A    between atoms: C_1  and  C_14 
REMARK    3  A    between atoms: C_2  and  C_3 
REMARK    4  A    between atoms: C_3  and  C_4 
REMARK    5  A    between atoms: C_4  and  O_5 
REMARK    6  A    between atoms: C_8  and  O_9 
REMARK    7  A    between atoms: C_8  and  C_10 
REMARK    8  A    between atoms: C_10  and  C_11 
REMARK    9  A    between atoms: C_11  and  C_12 
REMARK   10  A    between atoms: C_12  and  C_13 
REMARK   11  A    between atoms: C_13  and  C_14 
ROOT
HETATM    1  C   UNK N   1      32.031  16.422   5.521  0.00  0.00     0.078 C 
ENDROOT
BRANCH   1   2
HETATM    2  C   UNK N   1      33.288  17.226   5.639  0.00  0.00     0.127 C 
HETATM    3  O   UNK N   1      33.567  18.096   4.824  0.00  0.00    -0.298 OA
BRANCH   2   4
HETATM    4  C   UNK N   1      34.199  16.910   6.783  0.00  0.00     0.088 C 
BRANCH   4   5
HETATM    5  C   UNK N   1      34.216  17.954   7.889  0.00  0.00     0.117 C 
BRANCH   5   6
HETATM    6  C   UNK N   1      34.445  17.311   9.226  0.00  0.00     0.139 C 
HETATM    7  O   UNK N   1      35.399  17.654   9.902  0.00  0.00    -0.650 OA
BRANCH   6   8
HETATM    8  O   UNK N   1      33.609  16.358   9.688  0.00  0.00    -0.776 OA
HETATM    9  H   UNK N   1      33.480  16.254  10.610  0.00  0.00     0.167 HD
ENDBRANCH   6   8
ENDBRANCH   5   6
ENDBRANCH   4   5
ENDBRANCH   2   4
ENDBRANCH   1   2
BRANCH   1  10
HETATM   10  C   UNK N   1      30.756  17.239   5.558  0.00  0.00     0.007 C 
BRANCH  10  11
HETATM   11  C   UNK N   1      29.927  16.737   6.725  0.00  0.00     0.001 C 
BRANCH  11  12
HETATM   12  C   UNK N   1      30.559  17.144   8.037  0.00  0.00     0.010 C 
BRANCH  12  13
HETATM   13  C   UNK N   1      29.796  18.298   8.656  0.00  0.00     0.110 C 
BRANCH  13  14
HETATM   14  C   UNK N   1      28.705  17.770   9.523  0.00  0.00     0.139 C 
HETATM   15  O   UNK N   1      28.948  16.915  10.359  0.00  0.00    -0.650 OA
BRANCH  14  16
HETATM   16  O   UNK N   1      27.451  18.232   9.379  0.00  0.00    -0.776 OA
HETATM   17  H   UNK N   1      26.979  18.574  10.113  0.00  0.00     0.167 HD
ENDBRANCH  14  16
ENDBRANCH  13  14
ENDBRANCH  12  13
ENDBRANCH  11  12
ENDBRANCH  10  11
ENDBRANCH   1  10
TORSDOF 11
ENDMDL
MODEL 7
REMARK VINA RESULT:      -4.8     17.422     19.997
REMARK  11 active torsions:
REMARK  status: ('A' for Active; 'I' for Inactive)
REMARK    1  A    between atoms: C_1  and  C_2 
REMARK    2  A    between atoms: C_1  and  C_14 
REMARK    3  A    between atoms: C_2  and  C_3 
REMARK    4  A    between atoms: C_3  and  C_4 
REMARK    5  A    between atoms: C_4  and  O_5 
REMARK    6  A    between atoms: C_8  and  O_9 
REMARK    7  A    between atoms: C_8  and  C_10 
REMARK    8  A    between atoms: C_10  and  C_11 
REMARK    9  A    between atoms: C_11  and  C_12 
REMARK   10  A    between atoms: C_12  and  C_13 
REMARK   11  A    between atoms: C_13  and  C_14 
ROOT
HETATM    1  C   UNK N   1      26.625  26.761  -7.023  0.00  0.00     0.078 C 
ENDROOT
BRANCH   1   2
HETATM    2  C   UNK N   1      25.523  26.362  -6.093  0.00  0.00     0.127 C 
HETATM    3  O   UNK N   1      24.658  27.157  -5.749  0.00  0.00    -0.298 OA
BRANCH   2   4
HETATM    4  C   UNK N   1      25.532  24.954  -5.585  0.00  0.00     0.088 C 
BRANCH   4   5
HETATM    5  C   UNK N   1      26.819  24.537  -4.888  0.00  0.00     0.117 C 
BRANCH   5   6
HETATM    6  C   UNK N   1      26.721  24.766  -3.408  0.00  0.00     0.139 C 
HETATM    7  O   UNK N   1      26.404  25.865  -2.989  0.00  0.00    -0.650 OA
BRANCH   6   8
HETATM    8  O   UNK N   1      26.979  23.769  -2.534  0.00  0.00    -0.776 OA
HETATM    9  H   UNK N   1      26.288  23.203  -2.252  0.00  0.00     0.167 HD
ENDBRANCH   6   8
ENDBRANCH   5   6
ENDBRANCH   4   5
ENDBRANCH   2   4
ENDBRANCH   1   2
BRANCH   1  10
HETATM   10  C   UNK N   1      27.813  27.416  -6.347  0.00  0.00     0.007 C 
BRANCH  10  11
HETATM   11  C   UNK N   1      27.788  28.888  -6.709  0.00  0.00     0.001 C 
BRANCH  11  12
HETATM   12  C   UNK N   1      28.021  29.738  -5.479  0.00  0.00     0.010 C 
BRANCH  12  13
HETATM   13  C   UNK N   1      27.696  28.953  -4.225  0.00  0.00     0.110 C 
BRANCH  13  14
HETATM   14  C   UNK N   1      26.404  29.431  -3.655  0.00  0.00     0.139 C 
HETATM   15  O   UNK N   1      26.209  30.625  -3.498  0.00  0.00    -0.650 OA
BRANCH  14  16
HETATM   16  O   UNK N   1      25.455  28.543  -3.310  0.00  0.00    -0.776 OA
HETATM   17  H   UNK N   1      24.947  28.663  -2.531  0.00  0.00     0.167 HD
ENDBRANCH  14  16
ENDBRANCH  13  14
ENDBRANCH  12  13
ENDBRANCH  11  12
ENDBRANCH  10  11
ENDBRANCH   1  10
TORSDOF 11
ENDMDL
MODEL 8
REMARK VINA RESULT:      -4.7     17.232     18.132
REMARK  11 active torsions:
REMARK  status: ('A' for Active; 'I' for Inactive)
REMARK    1  A    between atoms: C_1  and  C_2 
REMARK    2  A    between atoms: C_1  and  C_14 
REMARK    3  A    between atoms: C_2  and  C_3 
REMARK    4  A    between atoms: C_3  and  C_4 
REMARK    5  A    between atoms: C_4  and  O_5 
REMARK    6  A    between atoms: C_8  and  O_9 
REMARK    7  A    between atoms: C_8  and  C_10 
REMARK    8  A    between atoms: C_10  and  C_11 
REMARK    9  A    between atoms: C_11  and  C_12 
REMARK   10  A    between atoms: C_12  and  C_13 
REMARK   11  A    between atoms: C_13  and  C_14 
ROOT
HETATM    1  C   UNK N   1      28.896  23.627  -3.124  0.00  0.00     0.078 C 
ENDROOT
BRANCH   1   2
HETATM    2  C   UNK N   1      30.077  22.839  -2.653  0.00  0.00     0.127 C 
HETATM    3  O   UNK N   1      30.579  23.035  -1.554  0.00  0.00    -0.298 OA
BRANCH   2   4
HETATM    4  C   UNK N   1      30.633  21.812  -3.590  0.00  0.00     0.088 C 
BRANCH   4   5
HETATM    5  C   UNK N   1      32.084  22.035  -3.990  0.00  0.00     0.117 C 
BRANCH   5   6
HETATM    6  C   UNK N   1      32.993  21.112  -3.233  0.00  0.00     0.139 C 
HETATM    7  O   UNK N   1      33.763  20.392  -3.845  0.00  0.00    -0.650 OA
BRANCH   6   8
HETATM    8  O   UNK N   1      32.971  21.069  -1.884  0.00  0.00    -0.776 OA
HETATM    9  H   UNK N   1      32.882  21.861  -1.392  0.00  0.00     0.167 HD
ENDBRANCH   6   8
ENDBRANCH   5   6
ENDBRANCH   4   5
ENDBRANCH   2   4
ENDBRANCH   1   2
BRANCH   1  10
HETATM   10  C   UNK N   1      29.122  24.391  -4.413  0.00  0.00     0.007 C 
BRANCH  10  11
HETATM   11  C   UNK N   1      28.773  25.843  -4.150  0.00  0.00     0.001 C 
BRANCH  11  12
HETATM   12  C   UNK N   1      27.402  26.165  -4.703  0.00  0.00     0.010 C 
BRANCH  12  13
HETATM   13  C   UNK N   1      26.453  26.537  -3.581  0.00  0.00     0.110 C 
BRANCH  13  14
HETATM   14  C   UNK N   1      25.635  27.714  -3.987  0.00  0.00     0.139 C 
HETATM   15  O   UNK N   1      25.005  27.691  -5.032  0.00  0.00    -0.650 OA
BRANCH  14  16
HETATM   16  O   UNK N   1      25.594  28.806  -3.202  0.00  0.00    -0.776 OA
HETATM   17  H   UNK N   1      25.171  28.779  -2.366  0.00  0.00     0.167 HD
ENDBRANCH  14  16
ENDBRANCH  13  14
ENDBRANCH  12  13
ENDBRANCH  11  12
ENDBRANCH  10  11
ENDBRANCH   1  10
TORSDOF 11
ENDMDL
MODEL 9
REMARK VINA RESULT:      -4.7      8.797     10.334
REMARK  11 active torsions:
REMARK  status: ('A' for Active; 'I' for Inactive)
REMARK    1  A    between atoms: C_1  and  C_2 
REMARK    2  A    between atoms: C_1  and  C_14 
REMARK    3  A    between atoms: C_2  and  C_3 
REMARK    4  A    between atoms: C_3  and  C_4 
REMARK    5  A    between atoms: C_4  and  O_5 
REMARK    6  A    between atoms: C_8  and  O_9 
REMARK    7  A    between atoms: C_8  and  C_10 
REMARK    8  A    between atoms: C_10  and  C_11 
REMARK    9  A    between atoms: C_11  and  C_12 
REMARK   10  A    between atoms: C_12  and  C_13 
REMARK   11  A    between atoms: C_13  and  C_14 
ROOT
HETATM    1  C   UNK N   1      31.061  16.565   6.719  0.00  0.00     0.078 C 
ENDROOT
BRANCH   1   2
HETATM    2  C   UNK N   1      30.966  17.268   8.037  0.00  0.00     0.127 C 
HETATM    3  O   UNK N   1      30.008  17.102   8.780  0.00  0.00    -0.298 OA
BRANCH   2   4
HETATM    4  C   UNK N   1      32.082  18.196   8.401  0.00  0.00     0.088 C 
BRANCH   4   5
HETATM    5  C   UNK N   1      33.384  17.949   7.654  0.00  0.00     0.117 C 
BRANCH   5   6
HETATM    6  C   UNK N   1      34.565  18.175   8.552  0.00  0.00     0.139 C 
HETATM    7  O   UNK N   1      35.273  19.152   8.379  0.00  0.00    -0.650 OA
BRANCH   6   8
HETATM    8  O   UNK N   1      34.852  17.312   9.549  0.00  0.00    -0.776 OA
HETATM    9  H   UNK N   1      35.726  17.255   9.882  0.00  0.00     0.167 HD
ENDBRANCH   6   8
ENDBRANCH   5   6
ENDBRANCH   4   5
ENDBRANCH   2   4
ENDBRANCH   1   2
BRANCH   1  10
HETATM   10  C   UNK N   1      29.741  16.408   5.992  0.00  0.00     0.007 C 
BRANCH  10  11
HETATM   11  C   UNK N   1      29.757  17.356   4.808  0.00  0.00     0.001 C 
BRANCH  11  12
HETATM   12  C   UNK N   1      28.873  18.553   5.078  0.00  0.00     0.010 C 
BRANCH  12  13
HETATM   13  C   UNK N   1      27.832  18.216   6.127  0.00  0.00     0.110 C 
BRANCH  13  14
HETATM   14  C   UNK N   1      27.712  19.344   7.094  0.00  0.00     0.139 C 
HETATM   15  O   UNK N   1      27.645  20.493   6.689  0.00  0.00    -0.650 OA
BRANCH  14  16
HETATM   16  O   UNK N   1      27.684  19.094   8.415  0.00  0.00    -0.776 OA
HETATM   17  H   UNK N   1      27.598  19.793   9.034  0.00  0.00     0.167 HD
ENDBRANCH  14  16
ENDBRANCH  13  14
ENDBRANCH  12  13
ENDBRANCH  11  12
ENDBRANCH  10  11
ENDBRANCH   1  10
TORSDOF 11
ENDMDL
