MODEL 1
REMARK VINA RESULT:      -4.7      0.000      0.000
REMARK  1 active torsions:
REMARK  status: ('A' for Active; 'I' for Inactive)
REMARK    1  A    between atoms: N_6  and  C_7 
ROOT
HETATM    1  C   UNK N   1      31.947  16.906   7.624  0.00  0.00     0.226 C 
HETATM    2  C   UNK N   1      32.959  17.913   8.186  0.00  0.00     0.055 C 
HETATM    3  C   UNK N   1      34.355  17.715   7.573  0.00  0.00     0.115 C 
HETATM    4  N   UNK N   1      34.333  16.953   6.317  0.00  0.00    -0.421 N 
HETATM    5  C   UNK N   1      33.239  17.424   5.472  0.00  0.00     0.115 C 
HETATM    6  C   UNK N   1      31.884  17.063   6.091  0.00  0.00     0.055 C 
HETATM    7  H   UNK N   1      34.984  16.207   6.071  0.00  0.00     0.153 HD
ENDROOT
BRANCH   1   8
HETATM    8  N   UNK N   1      30.614  17.105   8.208  0.00  0.00     0.093 N 
HETATM    9  C   UNK N   1      30.598  18.349   8.982  0.00  0.00     0.273 C 
HETATM   10  C   UNK N   1      29.261  18.494   9.704  0.00  0.00     0.030 C 
HETATM   11  C   UNK N   1      28.127  18.516   8.684  0.00  0.00     0.003 C 
HETATM   12  C   UNK N   1      28.215  17.304   7.759  0.00  0.00     0.030 C 
HETATM   13  C   UNK N   1      29.610  17.235   7.143  0.00  0.00     0.273 C 
ENDBRANCH   1   8
TORSDOF 1
ENDMDL
MODEL 2
REMARK VINA RESULT:      -4.7      2.795      4.424
REMARK  1 active torsions:
REMARK  status: ('A' for Active; 'I' for Inactive)
REMARK    1  A    between atoms: N_6  and  C_7 
ROOT
HETATM    1  C   UNK N   1      28.856  18.588   7.544  0.00  0.00     0.226 C 
HETATM    2  C   UNK N   1      29.753  17.421   7.113  0.00  0.00     0.055 C 
HETATM    3  C   UNK N   1      30.779  17.062   8.203  0.00  0.00     0.115 C 
HETATM    4  N   UNK N   1      30.414  17.572   9.531  0.00  0.00    -0.421 N 
HETATM    5  C   UNK N   1      28.993  17.339   9.777  0.00  0.00     0.115 C 
HETATM    6  C   UNK N   1      28.133  18.207   8.852  0.00  0.00     0.055 C 
HETATM    7  H   UNK N   1      31.056  18.023  10.184  0.00  0.00     0.153 HD
ENDROOT
BRANCH   1   8
HETATM    8  N   UNK N   1      27.875  18.921   6.503  0.00  0.00     0.093 N 
HETATM    9  C   UNK N   1      27.561  20.352   6.564  0.00  0.00     0.273 C 
HETATM   10  C   UNK N   1      26.442  20.680   5.579  0.00  0.00     0.030 C 
HETATM   11  C   UNK N   1      26.881  20.316   4.164  0.00  0.00     0.003 C 
HETATM   12  C   UNK N   1      27.364  18.869   4.109  0.00  0.00     0.030 C 
HETATM   13  C   UNK N   1      28.436  18.649   5.173  0.00  0.00     0.273 C 
ENDBRANCH   1   8
TORSDOF 1
ENDMDL
MODEL 3
REMARK VINA RESULT:      -4.7      2.586      4.134
REMARK  1 active torsions:
REMARK  status: ('A' for Active; 'I' for Inactive)
REMARK    1  A    between atoms: N_6  and  C_7 
ROOT
HETATM    1  C   UNK N   1      28.564  17.733   7.557  0.00  0.00     0.226 C 
HETATM    2  C   UNK N   1      28.629  18.682   8.760  0.00  0.00     0.055 C 
HETATM    3  C   UNK N   1      29.450  18.079   9.914  0.00  0.00     0.115 C 
HETATM    4  N   UNK N   1      30.333  16.986   9.486  0.00  0.00    -0.421 N 
HETATM    5  C   UNK N   1      31.004  17.351   8.241  0.00  0.00     0.115 C 
HETATM    6  C   UNK N   1      30.000  17.424   7.086  0.00  0.00     0.055 C 
HETATM    7  H   UNK N   1      30.459  16.105   9.983  0.00  0.00     0.153 HD
ENDROOT
BRANCH   1   8
HETATM    8  N   UNK N   1      27.786  18.316   6.457  0.00  0.00     0.093 N 
HETATM    9  C   UNK N   1      27.690  19.767   6.640  0.00  0.00     0.273 C 
HETATM   10  C   UNK N   1      26.768  20.364   5.578  0.00  0.00     0.030 C 
HETATM   11  C   UNK N   1      27.323  20.062   4.189  0.00  0.00     0.003 C 
HETATM   12  C   UNK N   1      27.582  18.566   4.029  0.00  0.00     0.030 C 
HETATM   13  C   UNK N   1      28.463  18.077   5.175  0.00  0.00     0.273 C 
ENDBRANCH   1   8
TORSDOF 1
ENDMDL
MODEL 4
REMARK VINA RESULT:      -4.6      1.406      4.838
REMARK  1 active torsions:
REMARK  status: ('A' for Active; 'I' for Inactive)
REMARK    1  A    between atoms: N_6  and  C_7 
ROOT
HETATM    1  C   UNK N   1      30.467  16.906   7.746  0.00  0.00     0.226 C 
HETATM    2  C   UNK N   1      29.043  17.244   7.286  0.00  0.00     0.055 C 
HETATM    3  C   UNK N   1      28.090  17.422   8.481  0.00  0.00     0.115 C 
HETATM    4  N   UNK N   1      28.790  17.670   9.748  0.00  0.00    -0.421 N 
HETATM    5  C   UNK N   1      29.865  18.636   9.538  0.00  0.00     0.115 C 
HETATM    6  C   UNK N   1      30.975  18.031   8.671  0.00  0.00     0.055 C 
HETATM    7  H   UNK N   1      28.560  17.233  10.640  0.00  0.00     0.153 HD
ENDROOT
BRANCH   1   8
HETATM    8  N   UNK N   1      31.374  16.745   6.602  0.00  0.00     0.093 N 
HETATM    9  C   UNK N   1      30.744  17.291   5.396  0.00  0.00     0.273 C 
HETATM   10  C   UNK N   1      31.620  17.004   4.178  0.00  0.00     0.030 C 
HETATM   11  C   UNK N   1      32.991  17.646   4.371  0.00  0.00     0.003 C 
HETATM   12  C   UNK N   1      33.603  17.214   5.702  0.00  0.00     0.030 C 
HETATM   13  C   UNK N   1      32.615  17.497   6.830  0.00  0.00     0.273 C 
ENDBRANCH   1   8
TORSDOF 1
ENDMDL
MODEL 5
REMARK VINA RESULT:      -4.6      1.226      4.829
REMARK  1 active torsions:
REMARK  status: ('A' for Active; 'I' for Inactive)
REMARK    1  A    between atoms: N_6  and  C_7 
ROOT
HETATM    1  C   UNK N   1      30.098  17.259   7.746  0.00  0.00     0.226 C 
HETATM    2  C   UNK N   1      29.071  17.441   6.621  0.00  0.00     0.055 C 
HETATM    3  C   UNK N   1      27.660  17.021   7.070  0.00  0.00     0.115 C 
HETATM    4  N   UNK N   1      27.508  16.972   8.530  0.00  0.00    -0.421 N 
HETATM    5  C   UNK N   1      28.134  18.145   9.133  0.00  0.00     0.115 C 
HETATM    6  C   UNK N   1      29.657  18.093   8.966  0.00  0.00     0.055 C 
HETATM    7  H   UNK N   1      27.037  16.228   9.046  0.00  0.00     0.153 HD
ENDROOT
BRANCH   1   8
HETATM    8  N   UNK N   1      31.442  17.668   7.314  0.00  0.00     0.093 N 
HETATM    9  C   UNK N   1      32.361  17.612   8.454  0.00  0.00     0.273 C 
HETATM   10  C   UNK N   1      33.725  18.166   8.049  0.00  0.00     0.030 C 
HETATM   11  C   UNK N   1      34.291  17.340   6.897  0.00  0.00     0.003 C 
HETATM   12  C   UNK N   1      33.283  17.251   5.755  0.00  0.00     0.030 C 
HETATM   13  C   UNK N   1      31.949  16.742   6.293  0.00  0.00     0.273 C 
ENDBRANCH   1   8
TORSDOF 1
ENDMDL
MODEL 6
REMARK VINA RESULT:      -4.5      7.780      8.895
REMARK  1 active torsions:
REMARK  status: ('A' for Active; 'I' for Inactive)
REMARK    1  A    between atoms: N_6  and  C_7 
ROOT
HETATM    1  C   UNK N   1      36.273  14.060  12.931  0.00  0.00     0.226 C 
HETATM    2  C   UNK N   1      35.356  14.783  11.937  0.00  0.00     0.055 C 
HETATM    3  C   UNK N   1      36.152  15.381  10.764  0.00  0.00     0.115 C 
HETATM    4  N   UNK N   1      37.483  14.782  10.603  0.00  0.00    -0.421 N 
HETATM    5  C   UNK N   1      37.393  13.331  10.744  0.00  0.00     0.115 C 
HETATM    6  C   UNK N   1      37.041  12.948  12.186  0.00  0.00     0.055 C 
HETATM    7  H   UNK N   1      38.342  15.302  10.420  0.00  0.00     0.153 HD
ENDROOT
BRANCH   1   8
HETATM    8  N   UNK N   1      35.508  13.485  14.045  0.00  0.00     0.093 N 
HETATM    9  C   UNK N   1      34.993  12.168  13.658  0.00  0.00     0.273 C 
HETATM   10  C   UNK N   1      34.083  11.624  14.757  0.00  0.00     0.030 C 
HETATM   11  C   UNK N   1      34.868  11.500  16.059  0.00  0.00     0.003 C 
HETATM   12  C   UNK N   1      35.548  12.823  16.402  0.00  0.00     0.030 C 
HETATM   13  C   UNK N   1      36.380  13.292  15.212  0.00  0.00     0.273 C 
ENDBRANCH   1   8
TORSDOF 1
ENDMDL
MODEL 7
REMARK VINA RESULT:      -4.4      3.090      5.263
REMARK  1 active torsions:
REMARK  status: ('A' for Active; 'I' for Inactive)
REMARK    1  A    between atoms: N_6  and  C_7 
ROOT
HETATM    1  C   UNK N   1      27.622  18.778   6.235  0.00  0.00     0.226 C 
HETATM    2  C   UNK N   1      28.211  18.904   4.824  0.00  0.00     0.055 C 
HETATM    3  C   UNK N   1      27.314  19.755   3.909  0.00  0.00     0.115 C 
HETATM    4  N   UNK N   1      26.370  20.602   4.650  0.00  0.00    -0.421 N 
HETATM    5  C   UNK N   1      27.052  21.234   5.776  0.00  0.00     0.115 C 
HETATM    6  C   UNK N   1      27.442  20.190   6.829  0.00  0.00     0.055 C 
HETATM    7  H   UNK N   1      25.386  20.730   4.414  0.00  0.00     0.153 HD
ENDROOT
BRANCH   1   8
HETATM    8  N   UNK N   1      28.487  17.970   7.106  0.00  0.00     0.093 N 
HETATM    9  C   UNK N   1      29.703  17.596   6.378  0.00  0.00     0.273 C 
HETATM   10  C   UNK N   1      30.543  16.644   7.226  0.00  0.00     0.030 C 
HETATM   11  C   UNK N   1      30.924  17.325   8.537  0.00  0.00     0.003 C 
HETATM   12  C   UNK N   1      29.681  17.866   9.241  0.00  0.00     0.030 C 
HETATM   13  C   UNK N   1      28.898  18.755   8.278  0.00  0.00     0.273 C 
ENDBRANCH   1   8
TORSDOF 1
ENDMDL
MODEL 8
REMARK VINA RESULT:      -4.4     16.597     17.327
REMARK  1 active torsions:
REMARK  status: ('A' for Active; 'I' for Inactive)
REMARK    1  A    between atoms: N_6  and  C_7 
ROOT
HETATM    1  C   UNK N   1      25.495  26.055  -6.232  0.00  0.00     0.226 C 
HETATM    2  C   UNK N   1      26.218  24.988  -5.402  0.00  0.00     0.055 C 
HETATM    3  C   UNK N   1      25.847  23.566  -5.859  0.00  0.00     0.115 C 
HETATM    4  N   UNK N   1      25.271  23.525  -7.209  0.00  0.00    -0.421 N 
HETATM    5  C   UNK N   1      26.039  24.389  -8.102  0.00  0.00     0.115 C 
HETATM    6  C   UNK N   1      25.857  25.862  -7.719  0.00  0.00     0.055 C 
HETATM    7  H   UNK N   1      24.456  22.976  -7.483  0.00  0.00     0.153 HD
ENDROOT
BRANCH   1   8
HETATM    8  N   UNK N   1      25.858  27.410  -5.796  0.00  0.00     0.093 N 
HETATM    9  C   UNK N   1      25.786  27.490  -4.334  0.00  0.00     0.273 C 
HETATM   10  C   UNK N   1      26.027  28.928  -3.880  0.00  0.00     0.030 C 
HETATM   11  C   UNK N   1      27.404  29.388  -4.348  0.00  0.00     0.003 C 
HETATM   12  C   UNK N   1      27.563  29.167  -5.850  0.00  0.00     0.030 C 
HETATM   13  C   UNK N   1      27.241  27.713  -6.186  0.00  0.00     0.273 C 
ENDBRANCH   1   8
TORSDOF 1
ENDMDL
MODEL 9
REMARK VINA RESULT:      -4.3     10.139     11.314
REMARK  1 active torsions:
REMARK  status: ('A' for Active; 'I' for Inactive)
REMARK    1  A    between atoms: N_6  and  C_7 
ROOT
HETATM    1  C   UNK N   1      34.897  12.451  16.657  0.00  0.00     0.226 C 
HETATM    2  C   UNK N   1      35.343  13.399  17.777  0.00  0.00     0.055 C 
HETATM    3  C   UNK N   1      35.195  12.748  19.163  0.00  0.00     0.115 C 
HETATM    4  N   UNK N   1      35.098  11.283  19.107  0.00  0.00    -0.421 N 
HETATM    5  C   UNK N   1      36.087  10.758  18.169  0.00  0.00     0.115 C 
HETATM    6  C   UNK N   1      35.736  11.159  16.732  0.00  0.00     0.055 C 
HETATM    7  H   UNK N   1      34.439  10.717  19.642  0.00  0.00     0.153 HD
ENDROOT
BRANCH   1   8
HETATM    8  N   UNK N   1      35.048  13.076  15.336  0.00  0.00     0.093 N 
HETATM    9  C   UNK N   1      36.362  13.719  15.245  0.00  0.00     0.273 C 
HETATM   10  C   UNK N   1      36.474  14.487  13.930  0.00  0.00     0.030 C 
HETATM   11  C   UNK N   1      36.296  13.526  12.758  0.00  0.00     0.003 C 
HETATM   12  C   UNK N   1      35.004  12.726  12.913  0.00  0.00     0.030 C 
HETATM   13  C   UNK N   1      34.984  12.054  14.283  0.00  0.00     0.273 C 
ENDBRANCH   1   8
TORSDOF 1
ENDMDL
