REMARK  1 active torsions:
REMARK  status: ('A' for Active; 'I' for Inactive)
REMARK    1  A    between atoms: N_6  and  C_7 
ROOT
HETATM    1  C   UNK N   1      -0.548   0.470   0.227  0.00  0.00     0.226 C 
HETATM    2  C   UNK N   1      -1.837  -0.111  -0.368  0.00  0.00     0.055 C 
HETATM    3  C   UNK N   1      -3.078   0.670   0.097  0.00  0.00     0.115 C 
HETATM    4  N   UNK N   1      -2.760   2.008   0.613  0.00  0.00    -0.421 N 
HETATM    5  C   UNK N   1      -1.789   2.658  -0.263  0.00  0.00     0.115 C 
HETATM    6  C   UNK N   1      -0.431   1.952  -0.185  0.00  0.00     0.055 C 
HETATM    7  H   UNK N   1      -3.157   2.421   1.457  0.00  0.00     0.153 HD
ENDROOT
BRANCH   1   8
HETATM    8  N   UNK N   1       0.634  -0.275  -0.226  0.00  0.00     0.093 N 
HETATM    9  C   UNK N   1       1.827   0.239   0.453  0.00  0.00     0.273 C 
HETATM   10  C   UNK N   1       3.076  -0.434  -0.112  0.00  0.00     0.030 C 
HETATM   11  C   UNK N   1       2.983  -1.943   0.095  0.00  0.00     0.003 C 
HETATM   12  C   UNK N   1       1.669  -2.481  -0.466  0.00  0.00     0.030 C 
HETATM   13  C   UNK N   1       0.503  -1.695   0.127  0.00  0.00     0.273 C 
ENDBRANCH   1   8
TORSDOF 1
