MODEL 1
REMARK VINA RESULT:      -4.7      0.000      0.000
REMARK  5 active torsions:
REMARK  status: ('A' for Active; 'I' for Inactive)
REMARK    1  A    between atoms: C_2  and  C_6 
REMARK    2  A    between atoms: C_6  and  C_7 
REMARK    3  A    between atoms: C_7  and  C_8 
REMARK    4  A    between atoms: C_8  and  C_9 
REMARK    5  A    between atoms: C_9  and  O_10 
ROOT
HETATM    1  C   UNK N   1      26.905  24.318  -4.033  0.00  0.00     0.046 C 
ENDROOT
BRANCH   1   2
HETATM    2  C   UNK N   1      26.211  25.589  -4.417  0.00  0.00    -0.018 A 
HETATM    3  S   UNK N   1      26.292  27.018  -3.596  0.00  0.00    -0.106 SA
HETATM    4  C   UNK N   1      25.314  27.958  -4.554  0.00  0.00     0.050 A 
HETATM    5  C   UNK N   1      24.879  27.126  -5.595  0.00  0.00     0.008 A 
HETATM    6  C   UNK N   1      25.380  25.798  -5.521  0.00  0.00     0.015 A 
ENDBRANCH   1   2
BRANCH   1   7
HETATM    7  C   UNK N   1      28.384  24.578  -3.811  0.00  0.00     0.015 C 
BRANCH   7   8
HETATM    8  C   UNK N   1      29.157  23.302  -3.532  0.00  0.00     0.110 C 
BRANCH   8   9
HETATM    9  C   UNK N   1      29.284  23.063  -2.054  0.00  0.00     0.139 C 
HETATM   10  O   UNK N   1      28.294  22.936  -1.348  0.00  0.00    -0.650 OA
BRANCH   9  11
HETATM   11  O   UNK N   1      30.507  22.987  -1.498  0.00  0.00    -0.776 OA
HETATM   12  H   UNK N   1      30.917  22.151  -1.382  0.00  0.00     0.167 HD
ENDBRANCH   9  11
ENDBRANCH   8   9
ENDBRANCH   7   8
ENDBRANCH   1   7
TORSDOF 5
ENDMDL
MODEL 2
REMARK VINA RESULT:      -4.7     17.022     18.364
REMARK  5 active torsions:
REMARK  status: ('A' for Active; 'I' for Inactive)
REMARK    1  A    between atoms: C_2  and  C_6 
REMARK    2  A    between atoms: C_6  and  C_7 
REMARK    3  A    between atoms: C_7  and  C_8 
REMARK    4  A    between atoms: C_8  and  C_9 
REMARK    5  A    between atoms: C_9  and  O_10 
ROOT
HETATM    1  C   UNK N   1      21.407  12.987   9.336  0.00  0.00     0.046 C 
ENDROOT
BRANCH   1   2
HETATM    2  C   UNK N   1      21.177  14.313   8.678  0.00  0.00    -0.018 A 
HETATM    3  S   UNK N   1      21.962  14.874   7.340  0.00  0.00    -0.106 SA
HETATM    4  C   UNK N   1      21.229  16.356   7.174  0.00  0.00     0.050 A 
HETATM    5  C   UNK N   1      20.302  16.447   8.223  0.00  0.00     0.008 A 
HETATM    6  C   UNK N   1      20.270  15.304   9.067  0.00  0.00     0.015 A 
ENDBRANCH   1   2
BRANCH   1   7
HETATM    7  C   UNK N   1      22.574  13.081  10.304  0.00  0.00     0.015 C 
BRANCH   7   8
HETATM    8  C   UNK N   1      22.544  11.980  11.348  0.00  0.00     0.110 C 
BRANCH   8   9
HETATM    9  C   UNK N   1      23.723  12.085  12.274  0.00  0.00     0.139 C 
HETATM   10  O   UNK N   1      23.576  12.050  13.487  0.00  0.00    -0.650 OA
BRANCH   9  11
HETATM   11  O   UNK N   1      24.959  12.221  11.761  0.00  0.00    -0.776 OA
HETATM   12  H   UNK N   1      25.704  11.923  12.247  0.00  0.00     0.167 HD
ENDBRANCH   9  11
ENDBRANCH   8   9
ENDBRANCH   7   8
ENDBRANCH   1   7
TORSDOF 5
ENDMDL
MODEL 3
REMARK VINA RESULT:      -4.5      3.152      5.037
REMARK  5 active torsions:
REMARK  status: ('A' for Active; 'I' for Inactive)
REMARK    1  A    between atoms: C_2  and  C_6 
REMARK    2  A    between atoms: C_6  and  C_7 
REMARK    3  A    between atoms: C_7  and  C_8 
REMARK    4  A    between atoms: C_8  and  C_9 
REMARK    5  A    between atoms: C_9  and  O_10 
ROOT
HETATM    1  C   UNK N   1      25.558  25.681  -6.180  0.00  0.00     0.046 C 
ENDROOT
BRANCH   1   2
HETATM    2  C   UNK N   1      26.545  25.094  -5.218  0.00  0.00    -0.018 A 
HETATM    3  S   UNK N   1      28.171  24.963  -5.465  0.00  0.00    -0.106 SA
HETATM    4  C   UNK N   1      28.624  24.244  -4.038  0.00  0.00     0.050 A 
HETATM    5  C   UNK N   1      27.445  24.083  -3.296  0.00  0.00     0.008 A 
HETATM    6  C   UNK N   1      26.279  24.558  -3.954  0.00  0.00     0.015 A 
ENDBRANCH   1   2
BRANCH   1   7
HETATM    7  C   UNK N   1      24.958  26.951  -5.602  0.00  0.00     0.015 C 
BRANCH   7   8
HETATM    8  C   UNK N   1      26.016  27.985  -5.266  0.00  0.00     0.110 C 
BRANCH   8   9
HETATM    9  C   UNK N   1      25.805  28.541  -3.885  0.00  0.00     0.139 C 
HETATM   10  O   UNK N   1      25.480  27.816  -2.957  0.00  0.00    -0.650 OA
BRANCH   9  11
HETATM   11  O   UNK N   1      25.979  29.857  -3.668  0.00  0.00    -0.776 OA
HETATM   12  H   UNK N   1      25.642  30.481  -4.282  0.00  0.00     0.167 HD
ENDBRANCH   9  11
ENDBRANCH   8   9
ENDBRANCH   7   8
ENDBRANCH   1   7
TORSDOF 5
ENDMDL
MODEL 4
REMARK VINA RESULT:      -4.5     17.123     19.026
REMARK  5 active torsions:
REMARK  status: ('A' for Active; 'I' for Inactive)
REMARK    1  A    between atoms: C_2  and  C_6 
REMARK    2  A    between atoms: C_6  and  C_7 
REMARK    3  A    between atoms: C_7  and  C_8 
REMARK    4  A    between atoms: C_8  and  C_9 
REMARK    5  A    between atoms: C_9  and  O_10 
ROOT
HETATM    1  C   UNK N   1      21.222  13.232   8.934  0.00  0.00     0.046 C 
ENDROOT
BRANCH   1   2
HETATM    2  C   UNK N   1      22.207  12.757   9.958  0.00  0.00    -0.018 A 
HETATM    3  S   UNK N   1      23.845  12.707   9.769  0.00  0.00    -0.106 SA
HETATM    4  C   UNK N   1      24.289  12.095  11.248  0.00  0.00     0.050 A 
HETATM    5  C   UNK N   1      23.096  11.906  11.961  0.00  0.00     0.008 A 
HETATM    6  C   UNK N   1      21.928  12.276  11.241  0.00  0.00     0.015 A 
ENDBRANCH   1   2
BRANCH   1   7
HETATM    7  C   UNK N   1      20.444  14.421   9.471  0.00  0.00     0.015 C 
BRANCH   7   8
HETATM    8  C   UNK N   1      20.793  15.709   8.749  0.00  0.00     0.110 C 
BRANCH   8   9
HETATM    9  C   UNK N   1      19.655  16.689   8.818  0.00  0.00     0.139 C 
HETATM   10  O   UNK N   1      18.494  16.310   8.786  0.00  0.00    -0.650 OA
BRANCH   9  11
HETATM   11  O   UNK N   1      19.920  18.004   8.917  0.00  0.00    -0.776 OA
HETATM   12  H   UNK N   1      20.628  18.378   8.428  0.00  0.00     0.167 HD
ENDBRANCH   9  11
ENDBRANCH   8   9
ENDBRANCH   7   8
ENDBRANCH   1   7
TORSDOF 5
ENDMDL
MODEL 5
REMARK VINA RESULT:      -4.5     13.982     14.612
REMARK  5 active torsions:
REMARK  status: ('A' for Active; 'I' for Inactive)
REMARK    1  A    between atoms: C_2  and  C_6 
REMARK    2  A    between atoms: C_6  and  C_7 
REMARK    3  A    between atoms: C_7  and  C_8 
REMARK    4  A    between atoms: C_8  and  C_9 
REMARK    5  A    between atoms: C_9  and  O_10 
ROOT
HETATM    1  C   UNK N   1      31.548  17.138   6.494  0.00  0.00     0.046 C 
ENDROOT
BRANCH   1   2
HETATM    2  C   UNK N   1      30.415  17.502   7.404  0.00  0.00    -0.018 A 
HETATM    3  S   UNK N   1      30.557  18.237   8.875  0.00  0.00    -0.106 SA
HETATM    4  C   UNK N   1      28.956  18.331   9.307  0.00  0.00     0.050 A 
HETATM    5  C   UNK N   1      28.236  17.757   8.249  0.00  0.00     0.008 A 
HETATM    6  C   UNK N   1      29.051  17.292   7.182  0.00  0.00     0.015 A 
ENDBRANCH   1   2
BRANCH   1   7
HETATM    7  C   UNK N   1      32.748  16.690   7.310  0.00  0.00     0.015 C 
BRANCH   7   8
HETATM    8  C   UNK N   1      33.960  17.575   7.082  0.00  0.00     0.110 C 
BRANCH   8   9
HETATM    9  C   UNK N   1      34.470  18.133   8.382  0.00  0.00     0.139 C 
HETATM   10  O   UNK N   1      35.097  19.182   8.414  0.00  0.00    -0.650 OA
BRANCH   9  11
HETATM   11  O   UNK N   1      34.234  17.467   9.526  0.00  0.00    -0.776 OA
HETATM   12  H   UNK N   1      34.408  16.547   9.577  0.00  0.00     0.167 HD
ENDBRANCH   9  11
ENDBRANCH   8   9
ENDBRANCH   7   8
ENDBRANCH   1   7
TORSDOF 5
ENDMDL
MODEL 6
REMARK VINA RESULT:      -4.5     12.275     13.696
REMARK  5 active torsions:
REMARK  status: ('A' for Active; 'I' for Inactive)
REMARK    1  A    between atoms: C_2  and  C_6 
REMARK    2  A    between atoms: C_6  and  C_7 
REMARK    3  A    between atoms: C_7  and  C_8 
REMARK    4  A    between atoms: C_8  and  C_9 
REMARK    5  A    between atoms: C_9  and  O_10 
ROOT
HETATM    1  C   UNK N   1      30.701  16.751   7.907  0.00  0.00     0.046 C 
ENDROOT
BRANCH   1   2
HETATM    2  C   UNK N   1      29.638  17.633   7.328  0.00  0.00    -0.018 A 
HETATM    3  S   UNK N   1      28.699  18.694   8.174  0.00  0.00    -0.106 SA
HETATM    4  C   UNK N   1      27.774  19.311   6.940  0.00  0.00     0.050 A 
HETATM    5  C   UNK N   1      28.206  18.663   5.773  0.00  0.00     0.008 A 
HETATM    6  C   UNK N   1      29.250  17.722   5.987  0.00  0.00     0.015 A 
ENDBRANCH   1   2
BRANCH   1   7
HETATM    7  C   UNK N   1      32.061  17.146   7.362  0.00  0.00     0.015 C 
BRANCH   7   8
HETATM    8  C   UNK N   1      32.858  17.975   8.352  0.00  0.00     0.110 C 
BRANCH   8   9
HETATM    9  C   UNK N   1      34.214  18.317   7.800  0.00  0.00     0.139 C 
HETATM   10  O   UNK N   1      34.959  19.085   8.391  0.00  0.00    -0.650 OA
BRANCH   9  11
HETATM   11  O   UNK N   1      34.613  17.769   6.639  0.00  0.00    -0.776 OA
HETATM   12  H   UNK N   1      34.951  16.894   6.625  0.00  0.00     0.167 HD
ENDBRANCH   9  11
ENDBRANCH   8   9
ENDBRANCH   7   8
ENDBRANCH   1   7
TORSDOF 5
ENDMDL
MODEL 7
REMARK VINA RESULT:      -4.4      4.118      4.711
REMARK  5 active torsions:
REMARK  status: ('A' for Active; 'I' for Inactive)
REMARK    1  A    between atoms: C_2  and  C_6 
REMARK    2  A    between atoms: C_6  and  C_7 
REMARK    3  A    between atoms: C_7  and  C_8 
REMARK    4  A    between atoms: C_8  and  C_9 
REMARK    5  A    between atoms: C_9  and  O_10 
ROOT
HETATM    1  C   UNK N   1      25.921  24.887  -6.488  0.00  0.00     0.046 C 
ENDROOT
BRANCH   1   2
HETATM    2  C   UNK N   1      25.862  25.944  -5.428  0.00  0.00    -0.018 A 
HETATM    3  S   UNK N   1      26.532  25.839  -3.924  0.00  0.00    -0.106 SA
HETATM    4  C   UNK N   1      26.093  27.317  -3.307  0.00  0.00     0.050 A 
HETATM    5  C   UNK N   1      25.371  27.960  -4.324  0.00  0.00     0.008 A 
HETATM    6  C   UNK N   1      25.240  27.193  -5.513  0.00  0.00     0.015 A 
ENDBRANCH   1   2
BRANCH   1   7
HETATM    7  C   UNK N   1      25.841  23.509  -5.856  0.00  0.00     0.015 C 
BRANCH   7   8
HETATM    8  C   UNK N   1      25.956  22.398  -6.883  0.00  0.00     0.110 C 
BRANCH   8   9
HETATM    9  C   UNK N   1      24.599  21.969  -7.367  0.00  0.00     0.139 C 
HETATM   10  O   UNK N   1      24.163  22.356  -8.442  0.00  0.00    -0.650 OA
BRANCH   9  11
HETATM   11  O   UNK N   1      23.853  21.149  -6.607  0.00  0.00    -0.776 OA
HETATM   12  H   UNK N   1      23.297  20.511  -7.012  0.00  0.00     0.167 HD
ENDBRANCH   9  11
ENDBRANCH   8   9
ENDBRANCH   7   8
ENDBRANCH   1   7
TORSDOF 5
ENDMDL
MODEL 8
REMARK VINA RESULT:      -4.4     13.121     14.382
REMARK  5 active torsions:
REMARK  status: ('A' for Active; 'I' for Inactive)
REMARK    1  A    between atoms: C_2  and  C_6 
REMARK    2  A    between atoms: C_6  and  C_7 
REMARK    3  A    between atoms: C_7  and  C_8 
REMARK    4  A    between atoms: C_8  and  C_9 
REMARK    5  A    between atoms: C_9  and  O_10 
ROOT
HETATM    1  C   UNK N   1      30.122  17.138   7.294  0.00  0.00     0.046 C 
ENDROOT
BRANCH   1   2
HETATM    2  C   UNK N   1      31.367  17.204   6.463  0.00  0.00    -0.018 A 
HETATM    3  S   UNK N   1      32.913  17.126   7.034  0.00  0.00    -0.106 SA
HETATM    4  C   UNK N   1      33.756  17.257   5.609  0.00  0.00     0.050 A 
HETATM    5  C   UNK N   1      32.790  17.371   4.599  0.00  0.00     0.008 A 
HETATM    6  C   UNK N   1      31.450  17.341   5.074  0.00  0.00     0.015 A 
ENDBRANCH   1   2
BRANCH   1   7
HETATM    7  C   UNK N   1      30.469  17.283   8.765  0.00  0.00     0.015 C 
BRANCH   7   8
HETATM    8  C   UNK N   1      29.642  18.357   9.447  0.00  0.00     0.110 C 
BRANCH   8   9
HETATM    9  C   UNK N   1      28.173  18.121   9.235  0.00  0.00     0.139 C 
HETATM   10  O   UNK N   1      27.635  17.098   9.636  0.00  0.00    -0.650 OA
BRANCH   9  11
HETATM   11  O   UNK N   1      27.438  19.048   8.596  0.00  0.00    -0.776 OA
HETATM   12  H   UNK N   1      26.650  18.798   8.153  0.00  0.00     0.167 HD
ENDBRANCH   9  11
ENDBRANCH   8   9
ENDBRANCH   7   8
ENDBRANCH   1   7
TORSDOF 5
ENDMDL
MODEL 9
REMARK VINA RESULT:      -4.3     19.461     21.766
REMARK  5 active torsions:
REMARK  status: ('A' for Active; 'I' for Inactive)
REMARK    1  A    between atoms: C_2  and  C_6 
REMARK    2  A    between atoms: C_6  and  C_7 
REMARK    3  A    between atoms: C_7  and  C_8 
REMARK    4  A    between atoms: C_8  and  C_9 
REMARK    5  A    between atoms: C_9  and  O_10 
ROOT
HETATM    1  C   UNK N   1      34.887  12.975  12.224  0.00  0.00     0.046 C 
ENDROOT
BRANCH   1   2
HETATM    2  C   UNK N   1      35.444  13.231  13.591  0.00  0.00    -0.018 A 
HETATM    3  S   UNK N   1      34.968  12.481  14.981  0.00  0.00    -0.106 SA
HETATM    4  C   UNK N   1      35.973  13.229  16.072  0.00  0.00     0.050 A 
HETATM    5  C   UNK N   1      36.745  14.133  15.328  0.00  0.00     0.008 A 
HETATM    6  C   UNK N   1      36.451  14.136  13.938  0.00  0.00     0.015 A 
ENDBRANCH   1   2
BRANCH   1   7
HETATM    7  C   UNK N   1      35.647  13.787  11.190  0.00  0.00     0.015 C 
BRANCH   7   8
HETATM    8  C   UNK N   1      34.871  15.008  10.734  0.00  0.00     0.110 C 
BRANCH   8   9
HETATM    9  C   UNK N   1      35.731  16.239  10.775  0.00  0.00     0.139 C 
HETATM   10  O   UNK N   1      35.238  17.355  10.695  0.00  0.00    -0.650 OA
BRANCH   9  11
HETATM   11  O   UNK N   1      37.064  16.112  10.903  0.00  0.00    -0.776 OA
HETATM   12  H   UNK N   1      37.427  15.327  11.267  0.00  0.00     0.167 HD
ENDBRANCH   9  11
ENDBRANCH   8   9
ENDBRANCH   7   8
ENDBRANCH   1   7
TORSDOF 5
ENDMDL
