REMARK  5 active torsions:
REMARK  status: ('A' for Active; 'I' for Inactive)
REMARK    1  A    between atoms: C_2  and  C_6 
REMARK    2  A    between atoms: C_6  and  C_7 
REMARK    3  A    between atoms: C_7  and  C_8 
REMARK    4  A    between atoms: C_8  and  C_9 
REMARK    5  A    between atoms: C_9  and  O_10 
ROOT
HETATM    1  C   UNK N   1      -0.216   0.913   0.000  0.00  0.00     0.046 C 
ENDROOT
BRANCH   1   2
HETATM    2  C   UNK N   1      -1.455   0.071   0.000  0.00  0.00    -0.018 A 
HETATM    3  S   UNK N   1      -3.005   0.637   0.000  0.00  0.00    -0.106 SA
HETATM    4  C   UNK N   1      -3.838  -0.800  -0.000  0.00  0.00     0.050 A 
HETATM    5  C   UNK N   1      -2.865  -1.810  -0.000  0.00  0.00     0.008 A 
HETATM    6  C   UNK N   1      -1.529  -1.325  -0.000  0.00  0.00     0.015 A 
ENDBRANCH   1   2
BRANCH   1   7
HETATM    7  C   UNK N   1       1.017   0.027   0.000  0.00  0.00     0.015 C 
BRANCH   7   8
HETATM    8  C   UNK N   1       2.303   0.832   0.000  0.00  0.00     0.110 C 
BRANCH   8   9
HETATM    9  C   UNK N   1       3.504  -0.072   0.000  0.00  0.00     0.139 C 
HETATM   10  O   UNK N   1       3.377  -1.288  -0.000  0.00  0.00    -0.650 OA
BRANCH   9  11
HETATM   11  O   UNK N   1       4.737   0.465   0.000  0.00  0.00    -0.776 OA
HETATM   12  H   UNK N   1       5.491  -0.093   0.000  0.00  0.00     0.167 HD
ENDBRANCH   9  11
ENDBRANCH   8   9
ENDBRANCH   7   8
ENDBRANCH   1   7
TORSDOF 5
