MODEL 1
REMARK VINA RESULT:      -4.6      0.000      0.000
REMARK  0 active torsions:
REMARK  status: ('A' for Active; 'I' for Inactive)
ROOT
HETATM    1  N   UNK N   1      23.984  13.348   9.786  0.00  0.00    -0.348 N 
HETATM    2  N   UNK N   1      24.199  11.963  11.558  0.00  0.00    -0.337 N 
ATOM      3  HN  UNK N   1      24.604  11.375  12.286  1.00  0.00     0.168 HD
HETATM    4  N   UNK N   1      20.432  12.969  10.547  0.00  0.00    -0.354 N 
ATOM      5  HN  UNK N   1      19.493  13.246  10.262  1.00  0.00     0.166 HD
HETATM    6  N   UNK N   1      21.845  11.744  12.021  0.00  0.00    -0.337 N 
ATOM      7  HN  UNK N   1      21.973  11.119  12.817  1.00  0.00     0.168 HD
HETATM    8  C   UNK N   1      22.772  13.043  10.274  0.00  0.00     0.100 A 
HETATM    9  C   UNK N   1      21.511  13.442   9.855  0.00  0.00     0.037 A 
HETATM   10  C   UNK N   1      22.906  12.217  11.328  0.00  0.00     0.136 A 
HETATM   11  C   UNK N   1      21.320  14.353   8.694  0.00  0.00     0.070 C 
HETATM   12  C   UNK N   1      24.847  12.672  10.593  0.00  0.00     0.182 A 
HETATM   13  C   UNK N   1      20.593  12.128  11.622  0.00  0.00     0.182 A 
HETATM   14  H   UNK N   1      24.199  13.929   9.021  0.00  0.00     0.167 HD
ENDROOT
TORSDOF 0
ENDMDL
MODEL 2
REMARK VINA RESULT:      -4.4      1.171      2.512
REMARK  0 active torsions:
REMARK  status: ('A' for Active; 'I' for Inactive)
ROOT
HETATM    1  N   UNK N   1      24.107  12.269  11.651  0.00  0.00    -0.348 N 
HETATM    2  N   UNK N   1      21.942  11.855  12.148  0.00  0.00    -0.337 N 
ATOM      3  HN  UNK N   1      21.098  11.572  12.646  1.00  0.00     0.168 HD
HETATM    4  N   UNK N   1      22.654  13.387   8.492  0.00  0.00    -0.354 N 
ATOM      5  HN  UNK N   1      22.873  13.776   7.574  1.00  0.00     0.166 HD
HETATM    6  N   UNK N   1      21.031  12.604  10.047  0.00  0.00    -0.337 N 
ATOM      7  HN  UNK N   1      20.062  12.407  10.300  1.00  0.00     0.168 HD
HETATM    8  C   UNK N   1      23.329  12.607  10.611  0.00  0.00     0.100 A 
HETATM    9  C   UNK N   1      23.667  13.135   9.374  0.00  0.00     0.037 A 
HETATM   10  C   UNK N   1      22.041  12.358  10.913  0.00  0.00     0.136 A 
HETATM   11  C   UNK N   1      25.078  13.424   9.002  0.00  0.00     0.070 C 
HETATM   12  C   UNK N   1      23.230  11.808  12.586  0.00  0.00     0.182 A 
HETATM   13  C   UNK N   1      21.346  13.125   8.822  0.00  0.00     0.182 A 
HETATM   14  H   UNK N   1      25.086  12.338  11.721  0.00  0.00     0.167 HD
ENDROOT
TORSDOF 0
ENDMDL
MODEL 3
REMARK VINA RESULT:      -4.4     12.575     13.935
REMARK  0 active torsions:
REMARK  status: ('A' for Active; 'I' for Inactive)
ROOT
HETATM    1  N   UNK N   1      34.724  13.383  12.087  0.00  0.00    -0.348 N 
HETATM    2  N   UNK N   1      36.201  15.092  12.097  0.00  0.00    -0.337 N 
ATOM      3  HN  UNK N   1      36.761  15.893  11.802  1.00  0.00     0.168 HD
HETATM    4  N   UNK N   1      35.901  12.996  15.522  0.00  0.00    -0.354 N 
ATOM      5  HN  UNK N   1      35.798  12.442  16.373  1.00  0.00     0.166 HD
HETATM    6  N   UNK N   1      36.946  14.798  14.369  0.00  0.00    -0.337 N 
ATOM      7  HN  UNK N   1      37.605  15.576  14.343  1.00  0.00     0.168 HD
HETATM    8  C   UNK N   1      35.319  13.462  13.286  0.00  0.00     0.100 A 
HETATM    9  C   UNK N   1      35.151  12.686  14.424  0.00  0.00     0.037 A 
HETATM   10  C   UNK N   1      36.198  14.482  13.287  0.00  0.00     0.136 A 
HETATM   11  C   UNK N   1      34.190  11.550  14.465  0.00  0.00     0.070 C 
HETATM   12  C   UNK N   1      35.283  14.397  11.371  0.00  0.00     0.182 A 
HETATM   13  C   UNK N   1      36.792  14.042  15.500  0.00  0.00     0.182 A 
HETATM   14  H   UNK N   1      34.040  12.739  11.793  0.00  0.00     0.167 HD
ENDROOT
TORSDOF 0
ENDMDL
MODEL 4
REMARK VINA RESULT:      -4.4     12.590     14.028
REMARK  0 active torsions:
REMARK  status: ('A' for Active; 'I' for Inactive)
ROOT
HETATM    1  N   UNK N   1      36.125  13.445  15.679  0.00  0.00    -0.348 N 
HETATM    2  N   UNK N   1      37.140  15.140  14.583  0.00  0.00    -0.337 N 
ATOM      3  HN  UNK N   1      37.719  15.955  14.380  1.00  0.00     0.168 HD
HETATM    4  N   UNK N   1      34.710  12.810  12.373  0.00  0.00    -0.354 N 
ATOM      5  HN  UNK N   1      34.087  12.198  11.845  1.00  0.00     0.166 HD
HETATM    6  N   UNK N   1      36.182  14.681  12.421  0.00  0.00    -0.337 N 
ATOM      7  HN  UNK N   1      36.654  15.454  11.954  1.00  0.00     0.168 HD
HETATM    8  C   UNK N   1      35.759  13.436  14.389  0.00  0.00     0.100 A 
HETATM    9  C   UNK N   1      34.904  12.582  13.706  0.00  0.00     0.037 A 
HETATM   10  C   UNK N   1      36.366  14.447  13.741  0.00  0.00     0.136 A 
HETATM   11  C   UNK N   1      34.213  11.453  14.386  0.00  0.00     0.070 C 
HETATM   12  C   UNK N   1      36.976  14.504  15.776  0.00  0.00     0.182 A 
HETATM   13  C   UNK N   1      35.342  13.848  11.732  0.00  0.00     0.182 A 
HETATM   14  H   UNK N   1      35.842  12.829  16.393  0.00  0.00     0.167 HD
ENDROOT
TORSDOF 0
ENDMDL
MODEL 5
REMARK VINA RESULT:      -4.4      1.110      2.983
REMARK  0 active torsions:
REMARK  status: ('A' for Active; 'I' for Inactive)
ROOT
HETATM    1  N   UNK N   1      21.999  13.875   9.078  0.00  0.00    -0.348 N 
HETATM    2  N   UNK N   1      20.508  13.053  10.562  0.00  0.00    -0.337 N 
ATOM      3  HN  UNK N   1      19.633  12.833  11.038  1.00  0.00     0.168 HD
HETATM    4  N   UNK N   1      24.373  12.161  11.261  0.00  0.00    -0.354 N 
ATOM      5  HN  UNK N   1      25.362  11.956  11.406  1.00  0.00     0.166 HD
HETATM    6  N   UNK N   1      22.112  11.938  11.972  0.00  0.00    -0.337 N 
ATOM      7  HN  UNK N   1      21.416  11.580  12.626  1.00  0.00     0.168 HD
HETATM    8  C   UNK N   1      22.640  13.174  10.025  0.00  0.00     0.100 A 
HETATM    9  C   UNK N   1      23.994  12.917  10.188  0.00  0.00     0.037 A 
HETATM   10  C   UNK N   1      21.748  12.687  10.907  0.00  0.00     0.136 A 
HETATM   11  C   UNK N   1      25.013  13.437   9.236  0.00  0.00     0.070 C 
HETATM   12  C   UNK N   1      20.687  13.786   9.430  0.00  0.00     0.182 A 
HETATM   13  C   UNK N   1      23.444  11.674  12.148  0.00  0.00     0.182 A 
HETATM   14  H   UNK N   1      22.389  14.346   8.306  0.00  0.00     0.167 HD
ENDROOT
TORSDOF 0
ENDMDL
MODEL 6
REMARK VINA RESULT:      -4.3      1.167      3.798
REMARK  0 active torsions:
REMARK  status: ('A' for Active; 'I' for Inactive)
ROOT
HETATM    1  N   UNK N   1      21.200  12.688  10.936  0.00  0.00    -0.348 N 
HETATM    2  N   UNK N   1      21.801  13.501   8.916  0.00  0.00    -0.337 N 
ATOM      3  HN  UNK N   1      21.757  13.898   7.977  1.00  0.00     0.168 HD
HETATM    4  N   UNK N   1      24.812  12.312  11.312  0.00  0.00    -0.354 N 
ATOM      5  HN  UNK N   1      25.549  12.001  11.946  1.00  0.00     0.166 HD
HETATM    6  N   UNK N   1      24.178  13.234   9.211  0.00  0.00    -0.337 N 
ATOM      7  HN  UNK N   1      24.419  13.606   8.292  1.00  0.00     0.168 HD
HETATM    8  C   UNK N   1      22.535  12.659  10.814  0.00  0.00     0.100 A 
HETATM    9  C   UNK N   1      23.507  12.226  11.705  0.00  0.00     0.037 A 
HETATM   10  C   UNK N   1      22.888  13.144   9.609  0.00  0.00     0.136 A 
HETATM   11  C   UNK N   1      23.158  11.683  13.046  0.00  0.00     0.070 C 
HETATM   12  C   UNK N   1      20.769  13.211   9.755  0.00  0.00     0.182 A 
HETATM   13  C   UNK N   1      25.150  12.811  10.077  0.00  0.00     0.182 A 
HETATM   14  H   UNK N   1      20.656  12.398  11.704  0.00  0.00     0.167 HD
ENDROOT
TORSDOF 0
ENDMDL
MODEL 7
REMARK VINA RESULT:      -4.2     23.500     25.404
REMARK  0 active torsions:
REMARK  status: ('A' for Active; 'I' for Inactive)
ROOT
HETATM    1  N   UNK N   1      43.954  24.566   1.354  0.00  0.00    -0.348 N 
HETATM    2  N   UNK N   1      45.924  24.323   2.431  0.00  0.00    -0.337 N 
ATOM      3  HN  UNK N   1      46.890  24.460   2.730  1.00  0.00     0.168 HD
HETATM    4  N   UNK N   1      43.011  21.745   3.472  0.00  0.00    -0.354 N 
ATOM      5  HN  UNK N   1      42.250  21.109   3.710  1.00  0.00     0.166 HD
HETATM    6  N   UNK N   1      45.256  22.462   3.808  0.00  0.00    -0.337 N 
ATOM      7  HN  UNK N   1      46.158  22.377   4.278  1.00  0.00     0.168 HD
HETATM    8  C   UNK N   1      43.872  23.552   2.227  0.00  0.00     0.100 A 
HETATM    9  C   UNK N   1      42.812  22.706   2.523  0.00  0.00     0.037 A 
HETATM   10  C   UNK N   1      45.048  23.411   2.867  0.00  0.00     0.136 A 
HETATM   11  C   UNK N   1      41.496  22.828   1.839  0.00  0.00     0.070 C 
HETATM   12  C   UNK N   1      45.228  25.026   1.497  0.00  0.00     0.182 A 
HETATM   13  C   UNK N   1      44.221  21.620   4.112  0.00  0.00     0.182 A 
HETATM   14  H   UNK N   1      43.254  24.900   0.748  0.00  0.00     0.167 HD
ENDROOT
TORSDOF 0
ENDMDL
MODEL 8
REMARK VINA RESULT:      -4.2      1.236      2.672
REMARK  0 active torsions:
REMARK  status: ('A' for Active; 'I' for Inactive)
ROOT
HETATM    1  N   UNK N   1      21.942  13.292   8.961  0.00  0.00    -0.348 N 
HETATM    2  N   UNK N   1      24.199  13.317   8.874  0.00  0.00    -0.337 N 
ATOM      3  HN  UNK N   1      25.157  13.457   8.550  1.00  0.00     0.168 HD
HETATM    4  N   UNK N   1      22.577  11.816  12.240  0.00  0.00    -0.354 N 
ATOM      5  HN  UNK N   1      22.130  11.442  13.079  1.00  0.00     0.166 HD
HETATM    6  N   UNK N   1      24.568  12.340  11.045  0.00  0.00    -0.337 N 
ATOM      7  HN  UNK N   1      25.585  12.364  10.977  1.00  0.00     0.168 HD
HETATM    8  C   UNK N   1      22.446  12.780  10.094  0.00  0.00     0.100 A 
HETATM    9  C   UNK N   1      21.801  12.280  11.216  0.00  0.00     0.037 A 
HETATM   10  C   UNK N   1      23.791  12.797  10.037  0.00  0.00     0.136 A 
HETATM   11  C   UNK N   1      20.317  12.244  11.319  0.00  0.00     0.070 C 
HETATM   12  C   UNK N   1      23.041  13.616   8.225  0.00  0.00     0.182 A 
HETATM   13  C   UNK N   1      23.948  11.843  12.160  0.00  0.00     0.182 A 
HETATM   14  H   UNK N   1      20.995  13.407   8.718  0.00  0.00     0.167 HD
ENDROOT
TORSDOF 0
ENDMDL
MODEL 9
REMARK VINA RESULT:      -4.1      7.786      9.290
REMARK  0 active torsions:
REMARK  status: ('A' for Active; 'I' for Inactive)
ROOT
HETATM    1  N   UNK N   1      29.164  16.526   6.420  0.00  0.00    -0.348 N 
HETATM    2  N   UNK N   1      27.277  17.147   7.495  0.00  0.00    -0.337 N 
ATOM      3  HN  UNK N   1      26.293  17.274   7.733  1.00  0.00     0.168 HD
HETATM    4  N   UNK N   1      30.741  18.263   9.219  0.00  0.00    -0.354 N 
ATOM      5  HN  UNK N   1      31.638  18.528   9.627  1.00  0.00     0.166 HD
HETATM    6  N   UNK N   1      28.363  18.282   9.322  0.00  0.00    -0.337 N 
ATOM      7  HN  UNK N   1      27.493  18.548   9.784  1.00  0.00     0.168 HD
HETATM    8  C   UNK N   1      29.478  17.209   7.531  0.00  0.00     0.100 A 
HETATM    9  C   UNK N   1      30.717  17.551   8.053  0.00  0.00     0.037 A 
HETATM   10  C   UNK N   1      28.350  17.577   8.167  0.00  0.00     0.136 A 
HETATM   11  C   UNK N   1      31.987  17.164   7.381  0.00  0.00     0.070 C 
HETATM   12  C   UNK N   1      27.803  16.500   6.419  0.00  0.00     0.182 A 
HETATM   13  C   UNK N   1      29.577  18.627   9.851  0.00  0.00     0.182 A 
HETATM   14  H   UNK N   1      29.778  16.133   5.758  0.00  0.00     0.167 HD
ENDROOT
TORSDOF 0
ENDMDL
