REMARK  0 active torsions:
REMARK  status: ('A' for Active; 'I' for Inactive)
ROOT
HETATM    1  N   UNK N   1       4.522   0.539   0.000  0.00  0.00    -0.348 N 
HETATM    2  N   UNK N   1       4.427  -1.718  -0.000  0.00  0.00    -0.337 N 
ATOM      3  HN  UNK N   1       4.701  -2.701  -0.000  1.00  0.00     0.168 HD
HETATM    4  N   UNK N   1       0.886   0.200  -0.000  0.00  0.00    -0.354 N 
ATOM      5  HN  UNK N   1       0.008   0.720  -0.000  1.00  0.00     0.166 HD
HETATM    6  N   UNK N   1       2.024  -1.891  -0.000  0.00  0.00    -0.337 N 
ATOM      7  HN  UNK N   1       2.013  -2.911  -0.000  1.00  0.00     0.168 HD
HETATM    8  C   UNK N   1       3.242   0.138   0.000  0.00  0.00     0.100 A 
HETATM    9  C   UNK N   1       2.070   0.881   0.000  0.00  0.00     0.037 A 
HETATM   10  C   UNK N   1       3.191  -1.207  -0.000  0.00  0.00     0.136 A 
HETATM   11  C   UNK N   1       2.083   2.369   0.000  0.00  0.00     0.070 C 
HETATM   12  C   UNK N   1       5.234  -0.622   0.000  0.00  0.00     0.182 A 
HETATM   13  C   UNK N   1       0.858  -1.174  -0.000  0.00  0.00     0.182 A 
HETATM   14  H   UNK N   1       4.867   1.461   0.000  0.00  0.00     0.167 HD
ENDROOT
TORSDOF 0
