MODEL 1
REMARK VINA RESULT:      -6.9      0.000      0.000
REMARK  4 active torsions:
REMARK  status: ('A' for Active; 'I' for Inactive)
REMARK    1  A    between atoms: O_1  and  C_13 
REMARK    2  A    between atoms: O_2  and  C_14 
REMARK    3  A    between atoms: O_4  and  C_20 
REMARK    4  A    between atoms: C_9  and  C_10 
ROOT
HETATM    1  C   UNK N   1      30.236  17.016   6.851  0.00  0.00     0.032 A 
HETATM    2  C   UNK N   1      30.834  17.378   8.090  0.00  0.00     0.083 A 
HETATM    3  C   UNK N   1      31.064  17.017   5.675  0.00  0.00     0.083 A 
HETATM    4  C   UNK N   1      32.202  17.689   8.146  0.00  0.00     0.074 A 
HETATM    5  C   UNK N   1      32.419  17.339   5.787  0.00  0.00     0.074 A 
HETATM    6  C   UNK N   1      32.994  17.671   7.012  0.00  0.00     0.073 A 
ENDROOT
BRANCH   1   7
HETATM    7  C   UNK N   1      28.781  16.687   6.695  0.00  0.00     0.035 C 
HETATM    8  C   UNK N   1      27.641  17.071   6.073  0.00  0.00     0.045 A 
HETATM    9  C   UNK N   1      27.242  18.170   5.167  0.00  0.00     0.006 A 
HETATM   10  C   UNK N   1      26.397  16.287   6.214  0.00  0.00     0.257 A 
HETATM   11  C   UNK N   1      25.918  17.945   4.825  0.00  0.00     0.046 A 
HETATM   12  C   UNK N   1      27.905  19.288   4.673  0.00  0.00     0.015 A 
HETATM   13  N   UNK N   1      25.404  16.805   5.464  0.00  0.00    -0.322 N 
HETATM   14  C   UNK N   1      25.222  18.783   3.958  0.00  0.00     0.030 A 
HETATM   15  H   UNK N   1      24.489  16.450   5.380  0.00  0.00     0.169 HD
HETATM   16  C   UNK N   1      25.897  19.894   3.430  0.00  0.00     0.002 A 
HETATM   17  C   UNK N   1      27.232  20.151   3.794  0.00  0.00     0.001 A 
HETATM   18  O   UNK N   1      26.259  15.290   6.901  0.00  0.00    -0.267 OA
ENDBRANCH   1   7
BRANCH   2  19
HETATM   19  O   UNK N   1      30.098  17.468   9.213  0.00  0.00    -0.355 OA
HETATM   20  C   UNK N   1      29.682  18.666   9.759  0.00  0.00     0.210 C 
ENDBRANCH   2  19
BRANCH   3  21
HETATM   21  O   UNK N   1      30.626  16.733   4.415  0.00  0.00    -0.355 OA
HETATM   22  C   UNK N   1      31.373  16.639   3.264  0.00  0.00     0.210 C 
ENDBRANCH   3  21
BRANCH   6  23
HETATM   23  O   UNK N   1      34.303  18.004   7.122  0.00  0.00    -0.356 OA
HETATM   24  C   UNK N   1      34.852  18.538   8.266  0.00  0.00     0.210 C 
ENDBRANCH   6  23
TORSDOF 4
ENDMDL
MODEL 2
REMARK VINA RESULT:      -6.8     11.096     14.443
REMARK  4 active torsions:
REMARK  status: ('A' for Active; 'I' for Inactive)
REMARK    1  A    between atoms: O_1  and  C_13 
REMARK    2  A    between atoms: O_2  and  C_14 
REMARK    3  A    between atoms: O_4  and  C_20 
REMARK    4  A    between atoms: C_9  and  C_10 
ROOT
HETATM    1  C   UNK N   1      35.490  13.326  15.586  0.00  0.00     0.032 A 
HETATM    2  C   UNK N   1      34.684  12.682  14.607  0.00  0.00     0.083 A 
HETATM    3  C   UNK N   1      36.550  14.185  15.132  0.00  0.00     0.083 A 
HETATM    4  C   UNK N   1      34.913  12.920  13.242  0.00  0.00     0.074 A 
HETATM    5  C   UNK N   1      36.736  14.383  13.761  0.00  0.00     0.074 A 
HETATM    6  C   UNK N   1      35.925  13.760  12.814  0.00  0.00     0.073 A 
ENDROOT
BRANCH   1   7
HETATM    7  C   UNK N   1      35.330  13.116  17.063  0.00  0.00     0.035 C 
HETATM    8  C   UNK N   1      35.539  12.227  18.063  0.00  0.00     0.045 A 
HETATM    9  C   UNK N   1      36.054  10.845  18.167  0.00  0.00     0.006 A 
HETATM   10  C   UNK N   1      35.250  12.581  19.468  0.00  0.00     0.257 A 
HETATM   11  C   UNK N   1      36.081  10.528  19.516  0.00  0.00     0.046 A 
HETATM   12  C   UNK N   1      36.454   9.902  17.226  0.00  0.00     0.015 A 
HETATM   13  N   UNK N   1      35.589  11.581  20.305  0.00  0.00    -0.322 N 
HETATM   14  C   UNK N   1      36.539   9.299  19.982  0.00  0.00     0.030 A 
HETATM   15  H   UNK N   1      35.506  11.587  21.287  0.00  0.00     0.169 HD
HETATM   16  C   UNK N   1      36.975   8.357  19.039  0.00  0.00     0.002 A 
HETATM   17  C   UNK N   1      36.924   8.654  17.664  0.00  0.00     0.001 A 
HETATM   18  O   UNK N   1      34.779  13.637  19.852  0.00  0.00    -0.267 OA
ENDBRANCH   1   7
BRANCH   2  19
HETATM   19  O   UNK N   1      33.724  11.808  14.965  0.00  0.00    -0.355 OA
HETATM   20  C   UNK N   1      33.640  10.523  14.472  0.00  0.00     0.210 C 
ENDBRANCH   2  19
BRANCH   3  21
HETATM   21  O   UNK N   1      37.428  14.836  15.947  0.00  0.00    -0.355 OA
HETATM   22  C   UNK N   1      37.553  16.192  16.141  0.00  0.00     0.210 C 
ENDBRANCH   3  21
BRANCH   6  23
HETATM   23  O   UNK N   1      36.113  13.934  11.484  0.00  0.00    -0.356 OA
HETATM   24  C   UNK N   1      36.193  15.172  10.889  0.00  0.00     0.210 C 
ENDBRANCH   6  23
TORSDOF 4
ENDMDL
MODEL 3
REMARK VINA RESULT:      -6.8      0.187      2.730
REMARK  4 active torsions:
REMARK  status: ('A' for Active; 'I' for Inactive)
REMARK    1  A    between atoms: O_1  and  C_13 
REMARK    2  A    between atoms: O_2  and  C_14 
REMARK    3  A    between atoms: O_4  and  C_20 
REMARK    4  A    between atoms: C_9  and  C_10 
ROOT
HETATM    1  C   UNK N   1      30.230  17.099   6.675  0.00  0.00     0.032 A 
HETATM    2  C   UNK N   1      31.128  17.053   5.573  0.00  0.00     0.083 A 
HETATM    3  C   UNK N   1      30.761  17.440   7.966  0.00  0.00     0.083 A 
HETATM    4  C   UNK N   1      32.483  17.369   5.757  0.00  0.00     0.074 A 
HETATM    5  C   UNK N   1      32.119  17.742   8.095  0.00  0.00     0.074 A 
HETATM    6  C   UNK N   1      32.983  17.712   7.001  0.00  0.00     0.073 A 
ENDROOT
BRANCH   1   7
HETATM    7  C   UNK N   1      28.772  16.760   6.573  0.00  0.00     0.035 C 
HETATM    8  C   UNK N   1      27.609  17.128   5.986  0.00  0.00     0.045 A 
HETATM    9  C   UNK N   1      27.172  18.213   5.080  0.00  0.00     0.006 A 
HETATM   10  C   UNK N   1      26.375  16.340   6.180  0.00  0.00     0.257 A 
HETATM   11  C   UNK N   1      25.839  17.977   4.786  0.00  0.00     0.046 A 
HETATM   12  C   UNK N   1      27.811  19.328   4.548  0.00  0.00     0.015 A 
HETATM   13  N   UNK N   1      25.354  16.842   5.458  0.00  0.00    -0.322 N 
HETATM   14  C   UNK N   1      25.108  18.799   3.933  0.00  0.00     0.030 A 
HETATM   15  H   UNK N   1      24.438  16.481   5.410  0.00  0.00     0.169 HD
HETATM   16  C   UNK N   1      25.757  19.906   3.368  0.00  0.00     0.002 A 
HETATM   17  C   UNK N   1      27.102  20.176   3.682  0.00  0.00     0.001 A 
HETATM   18  O   UNK N   1      26.267  15.351   6.885  0.00  0.00    -0.267 OA
ENDBRANCH   1   7
BRANCH   2  19
HETATM   19  O   UNK N   1      30.707  16.669   4.353  0.00  0.00    -0.355 OA
HETATM   20  C   UNK N   1      31.494  15.970   3.460  0.00  0.00     0.210 C 
ENDBRANCH   2  19
BRANCH   3  21
HETATM   21  O   UNK N   1      30.035  17.485   9.120  0.00  0.00    -0.355 OA
HETATM   22  C   UNK N   1      29.625  18.598   9.816  0.00  0.00     0.210 C 
ENDBRANCH   3  21
BRANCH   6  23
HETATM   23  O   UNK N   1      34.304  17.984   7.124  0.00  0.00    -0.356 OA
HETATM   24  C   UNK N   1      34.864  18.504   8.269  0.00  0.00     0.210 C 
ENDBRANCH   6  23
TORSDOF 4
ENDMDL
MODEL 4
REMARK VINA RESULT:      -6.8      7.766     10.281
REMARK  4 active torsions:
REMARK  status: ('A' for Active; 'I' for Inactive)
REMARK    1  A    between atoms: O_1  and  C_13 
REMARK    2  A    between atoms: O_2  and  C_14 
REMARK    3  A    between atoms: O_4  and  C_20 
REMARK    4  A    between atoms: C_9  and  C_10 
ROOT
HETATM    1  C   UNK N   1      21.101  15.618   7.649  0.00  0.00     0.032 A 
HETATM    2  C   UNK N   1      21.827  15.282   6.473  0.00  0.00     0.083 A 
HETATM    3  C   UNK N   1      20.734  16.994   7.848  0.00  0.00     0.083 A 
HETATM    4  C   UNK N   1      22.136  16.276   5.530  0.00  0.00     0.074 A 
HETATM    5  C   UNK N   1      21.071  17.943   6.879  0.00  0.00     0.074 A 
HETATM    6  C   UNK N   1      21.765  17.595   5.722  0.00  0.00     0.073 A 
ENDROOT
BRANCH   1   7
HETATM    7  C   UNK N   1      20.745  14.627   8.716  0.00  0.00     0.035 C 
HETATM    8  C   UNK N   1      21.271  13.745   9.600  0.00  0.00     0.045 A 
HETATM    9  C   UNK N   1      22.625  13.255   9.935  0.00  0.00     0.006 A 
HETATM   10  C   UNK N   1      20.409  13.022  10.557  0.00  0.00     0.257 A 
HETATM   11  C   UNK N   1      22.484  12.392  11.010  0.00  0.00     0.046 A 
HETATM   12  C   UNK N   1      23.884  13.481   9.388  0.00  0.00     0.015 A 
HETATM   13  N   UNK N   1      21.138  12.247  11.385  0.00  0.00    -0.322 N 
HETATM   14  C   UNK N   1      23.573  11.761  11.605  0.00  0.00     0.030 A 
HETATM   15  H   UNK N   1      20.792  11.684  12.115  0.00  0.00     0.169 HD
HETATM   16  C   UNK N   1      24.849  12.011  11.078  0.00  0.00     0.002 A 
HETATM   17  C   UNK N   1      25.003  12.861   9.967  0.00  0.00     0.001 A 
HETATM   18  O   UNK N   1      19.195  13.104  10.623  0.00  0.00    -0.267 OA
ENDBRANCH   1   7
BRANCH   2  19
HETATM   19  O   UNK N   1      22.264  14.026   6.264  0.00  0.00    -0.355 OA
HETATM   20  C   UNK N   1      21.646  13.136   5.410  0.00  0.00     0.210 C 
ENDBRANCH   2  19
BRANCH   3  21
HETATM   21  O   UNK N   1      20.075  17.474   8.941  0.00  0.00    -0.355 OA
HETATM   22  C   UNK N   1      18.717  17.584   9.127  0.00  0.00     0.210 C 
ENDBRANCH   3  21
BRANCH   6  23
HETATM   23  O   UNK N   1      22.111  18.515   4.790  0.00  0.00    -0.356 OA
HETATM   24  C   UNK N   1      21.295  18.866   3.738  0.00  0.00     0.210 C 
ENDBRANCH   6  23
TORSDOF 4
ENDMDL
MODEL 5
REMARK VINA RESULT:      -6.7      7.559      9.999
REMARK  4 active torsions:
REMARK  status: ('A' for Active; 'I' for Inactive)
REMARK    1  A    between atoms: O_1  and  C_13 
REMARK    2  A    between atoms: O_2  and  C_14 
REMARK    3  A    between atoms: O_4  and  C_20 
REMARK    4  A    between atoms: C_9  and  C_10 
ROOT
HETATM    1  C   UNK N   1      20.924  15.616   7.862  0.00  0.00     0.032 A 
HETATM    2  C   UNK N   1      20.504  16.969   7.984  0.00  0.00     0.083 A 
HETATM    3  C   UNK N   1      21.611  15.227   6.660  0.00  0.00     0.083 A 
HETATM    4  C   UNK N   1      20.793  17.889   6.964  0.00  0.00     0.074 A 
HETATM    5  C   UNK N   1      21.869  16.184   5.674  0.00  0.00     0.074 A 
HETATM    6  C   UNK N   1      21.468  17.511   5.818  0.00  0.00     0.073 A 
ENDROOT
BRANCH   1   7
HETATM    7  C   UNK N   1      20.644  14.562   8.891  0.00  0.00     0.035 C 
HETATM    8  C   UNK N   1      21.234  13.667   9.719  0.00  0.00     0.045 A 
HETATM    9  C   UNK N   1      22.619  13.227   9.996  0.00  0.00     0.006 A 
HETATM   10  C   UNK N   1      20.434  12.861  10.664  0.00  0.00     0.257 A 
HETATM   11  C   UNK N   1      22.548  12.311  11.034  0.00  0.00     0.046 A 
HETATM   12  C   UNK N   1      23.850  13.536   9.428  0.00  0.00     0.015 A 
HETATM   13  N   UNK N   1      21.221  12.086  11.436  0.00  0.00    -0.322 N 
HETATM   14  C   UNK N   1      23.681  11.706  11.570  0.00  0.00     0.030 A 
HETATM   15  H   UNK N   1      20.921  11.475  12.148  0.00  0.00     0.169 HD
HETATM   16  C   UNK N   1      24.929  12.040  11.023  0.00  0.00     0.002 A 
HETATM   17  C   UNK N   1      25.012  12.945   9.949  0.00  0.00     0.001 A 
HETATM   18  O   UNK N   1      19.219  12.883  10.765  0.00  0.00    -0.267 OA
ENDBRANCH   1   7
BRANCH   2  19
HETATM   19  O   UNK N   1      19.792  17.378   9.051  0.00  0.00    -0.355 OA
HETATM   20  C   UNK N   1      18.417  17.502   9.048  0.00  0.00     0.210 C 
ENDBRANCH   2  19
BRANCH   3  21
HETATM   21  O   UNK N   1      22.038  13.962   6.380  0.00  0.00    -0.355 OA
HETATM   22  C   UNK N   1      22.935  13.568   5.415  0.00  0.00     0.210 C 
ENDBRANCH   3  21
BRANCH   6  23
HETATM   23  O   UNK N   1      21.698  18.437   4.857  0.00  0.00    -0.356 OA
HETATM   24  C   UNK N   1      22.916  18.593   4.236  0.00  0.00     0.210 C 
ENDBRANCH   6  23
TORSDOF 4
ENDMDL
MODEL 6
REMARK VINA RESULT:      -6.6      1.702      1.900
REMARK  4 active torsions:
REMARK  status: ('A' for Active; 'I' for Inactive)
REMARK    1  A    between atoms: O_1  and  C_13 
REMARK    2  A    between atoms: O_2  and  C_14 
REMARK    3  A    between atoms: O_4  and  C_20 
REMARK    4  A    between atoms: C_9  and  C_10 
ROOT
HETATM    1  C   UNK N   1      31.116  17.232   6.352  0.00  0.00     0.032 A 
HETATM    2  C   UNK N   1      30.953  17.389   7.756  0.00  0.00     0.083 A 
HETATM    3  C   UNK N   1      32.444  17.330   5.809  0.00  0.00     0.083 A 
HETATM    4  C   UNK N   1      32.075  17.598   8.574  0.00  0.00     0.074 A 
HETATM    5  C   UNK N   1      33.525  17.544   6.668  0.00  0.00     0.074 A 
HETATM    6  C   UNK N   1      33.351  17.675   8.045  0.00  0.00     0.073 A 
ENDROOT
BRANCH   1   7
HETATM    7  C   UNK N   1      29.974  17.024   5.401  0.00  0.00     0.035 C 
HETATM    8  C   UNK N   1      28.813  17.566   4.963  0.00  0.00     0.045 A 
HETATM    9  C   UNK N   1      28.001  18.757   5.298  0.00  0.00     0.006 A 
HETATM   10  C   UNK N   1      28.050  16.943   3.862  0.00  0.00     0.257 A 
HETATM   11  C   UNK N   1      26.938  18.779   4.409  0.00  0.00     0.046 A 
HETATM   12  C   UNK N   1      28.111  19.743   6.272  0.00  0.00     0.015 A 
HETATM   13  N   UNK N   1      26.966  17.675   3.541  0.00  0.00    -0.322 N 
HETATM   14  C   UNK N   1      25.979  19.787   4.423  0.00  0.00     0.030 A 
HETATM   15  H   UNK N   1      26.313  17.474   2.830  0.00  0.00     0.169 HD
HETATM   16  C   UNK N   1      26.103  20.803   5.382  0.00  0.00     0.002 A 
HETATM   17  C   UNK N   1      27.161  20.776   6.311  0.00  0.00     0.001 A 
HETATM   18  O   UNK N   1      28.346  15.908   3.289  0.00  0.00    -0.267 OA
ENDBRANCH   1   7
BRANCH   2  19
HETATM   19  O   UNK N   1      29.729  17.382   8.316  0.00  0.00    -0.355 OA
HETATM   20  C   UNK N   1      29.387  18.151   9.410  0.00  0.00     0.210 C 
ENDBRANCH   2  19
BRANCH   3  21
HETATM   21  O   UNK N   1      32.752  17.242   4.483  0.00  0.00    -0.355 OA
HETATM   22  C   UNK N   1      33.259  16.159   3.805  0.00  0.00     0.210 C 
ENDBRANCH   3  21
BRANCH   6  23
HETATM   23  O   UNK N   1      34.394  17.902   8.880  0.00  0.00    -0.356 OA
HETATM   24  C   UNK N   1      34.923  16.936   9.705  0.00  0.00     0.210 C 
ENDBRANCH   6  23
TORSDOF 4
ENDMDL
MODEL 7
REMARK VINA RESULT:      -6.4      6.223      8.582
REMARK  4 active torsions:
REMARK  status: ('A' for Active; 'I' for Inactive)
REMARK    1  A    between atoms: O_1  and  C_13 
REMARK    2  A    between atoms: O_2  and  C_14 
REMARK    3  A    between atoms: O_4  and  C_20 
REMARK    4  A    between atoms: C_9  and  C_10 
ROOT
HETATM    1  C   UNK N   1      21.257  16.797   6.027  0.00  0.00     0.032 A 
HETATM    2  C   UNK N   1      20.871  16.895   7.392  0.00  0.00     0.083 A 
HETATM    3  C   UNK N   1      21.821  15.556   5.570  0.00  0.00     0.083 A 
HETATM    4  C   UNK N   1      21.014  15.787   8.243  0.00  0.00     0.074 A 
HETATM    5  C   UNK N   1      21.945  14.487   6.460  0.00  0.00     0.074 A 
HETATM    6  C   UNK N   1      21.544  14.591   7.791  0.00  0.00     0.073 A 
ENDROOT
BRANCH   1   7
HETATM    7  C   UNK N   1      21.157  17.933   5.052  0.00  0.00     0.035 C 
HETATM    8  C   UNK N   1      21.892  18.795   4.309  0.00  0.00     0.045 A 
HETATM    9  C   UNK N   1      23.331  19.079   4.122  0.00  0.00     0.006 A 
HETATM   10  C   UNK N   1      21.243  19.742   3.380  0.00  0.00     0.257 A 
HETATM   11  C   UNK N   1      23.423  20.053   3.141  0.00  0.00     0.046 A 
HETATM   12  C   UNK N   1      24.486  18.591   4.725  0.00  0.00     0.015 A 
HETATM   13  N   UNK N   1      22.155  20.459   2.694  0.00  0.00    -0.322 N 
HETATM   14  C   UNK N   1      24.646  20.545   2.695  0.00  0.00     0.030 A 
HETATM   15  H   UNK N   1      21.968  21.140   2.008  0.00  0.00     0.169 HD
HETATM   16  C   UNK N   1      25.816  20.033   3.276  0.00  0.00     0.002 A 
HETATM   17  C   UNK N   1      25.735  19.066   4.296  0.00  0.00     0.001 A 
HETATM   18  O   UNK N   1      20.041  19.873   3.223  0.00  0.00    -0.267 OA
ENDBRANCH   1   7
BRANCH   2  19
HETATM   19  O   UNK N   1      20.406  18.052   7.899  0.00  0.00    -0.355 OA
HETATM   20  C   UNK N   1      19.549  18.121   8.979  0.00  0.00     0.210 C 
ENDBRANCH   2  19
BRANCH   3  21
HETATM   21  O   UNK N   1      22.274  15.326   4.304  0.00  0.00    -0.355 OA
HETATM   22  C   UNK N   1      23.566  15.081   3.901  0.00  0.00     0.210 C 
ENDBRANCH   3  21
BRANCH   6  23
HETATM   23  O   UNK N   1      21.680  13.564   8.664  0.00  0.00    -0.356 OA
HETATM   24  C   UNK N   1      21.136  13.572   9.928  0.00  0.00     0.210 C 
ENDBRANCH   6  23
TORSDOF 4
ENDMDL
MODEL 8
REMARK VINA RESULT:      -6.4      2.696      6.240
REMARK  4 active torsions:
REMARK  status: ('A' for Active; 'I' for Inactive)
REMARK    1  A    between atoms: O_1  and  C_13 
REMARK    2  A    between atoms: O_2  and  C_14 
REMARK    3  A    between atoms: O_4  and  C_20 
REMARK    4  A    between atoms: C_9  and  C_10 
ROOT
HETATM    1  C   UNK N   1      27.602  18.675   5.963  0.00  0.00     0.032 A 
HETATM    2  C   UNK N   1      27.073  19.993   5.896  0.00  0.00     0.083 A 
HETATM    3  C   UNK N   1      27.336  17.783   4.867  0.00  0.00     0.083 A 
HETATM    4  C   UNK N   1      26.343  20.401   4.768  0.00  0.00     0.074 A 
HETATM    5  C   UNK N   1      26.600  18.239   3.770  0.00  0.00     0.074 A 
HETATM    6  C   UNK N   1      26.104  19.540   3.711  0.00  0.00     0.073 A 
ENDROOT
BRANCH   1   7
HETATM    7  C   UNK N   1      28.377  18.149   7.134  0.00  0.00     0.035 C 
HETATM    8  C   UNK N   1      29.586  17.670   7.511  0.00  0.00     0.045 A 
HETATM    9  C   UNK N   1      30.865  17.361   6.835  0.00  0.00     0.006 A 
HETATM   10  C   UNK N   1      29.869  17.343   8.923  0.00  0.00     0.257 A 
HETATM   11  C   UNK N   1      31.752  16.961   7.821  0.00  0.00     0.046 A 
HETATM   12  C   UNK N   1      31.272  17.386   5.505  0.00  0.00     0.015 A 
HETATM   13  N   UNK N   1      31.146  16.945   9.088  0.00  0.00    -0.322 N 
HETATM   14  C   UNK N   1      33.071  16.614   7.539  0.00  0.00     0.030 A 
HETATM   15  H   UNK N   1      31.574  16.691   9.938  0.00  0.00     0.169 HD
HETATM   16  C   UNK N   1      33.496  16.670   6.204  0.00  0.00     0.002 A 
HETATM   17  C   UNK N   1      32.596  17.045   5.188  0.00  0.00     0.001 A 
HETATM   18  O   UNK N   1      29.075  17.425   9.844  0.00  0.00    -0.267 OA
ENDBRANCH   1   7
BRANCH   2  19
HETATM   19  O   UNK N   1      27.224  20.853   6.921  0.00  0.00    -0.355 OA
HETATM   20  C   UNK N   1      26.172  21.507   7.529  0.00  0.00     0.210 C 
ENDBRANCH   2  19
BRANCH   3  21
HETATM   21  O   UNK N   1      27.740  16.482   4.806  0.00  0.00    -0.355 OA
HETATM   22  C   UNK N   1      28.178  15.785   3.704  0.00  0.00     0.210 C 
ENDBRANCH   3  21
BRANCH   6  23
HETATM   23  O   UNK N   1      25.373  19.982   2.659  0.00  0.00    -0.356 OA
HETATM   24  C   UNK N   1      24.143  20.583   2.795  0.00  0.00     0.210 C 
ENDBRANCH   6  23
TORSDOF 4
ENDMDL
MODEL 9
REMARK VINA RESULT:      -6.4      2.717      6.746
REMARK  4 active torsions:
REMARK  status: ('A' for Active; 'I' for Inactive)
REMARK    1  A    between atoms: O_1  and  C_13 
REMARK    2  A    between atoms: O_2  and  C_14 
REMARK    3  A    between atoms: O_4  and  C_20 
REMARK    4  A    between atoms: C_9  and  C_10 
ROOT
HETATM    1  C   UNK N   1      27.020  18.619   4.209  0.00  0.00     0.032 A 
HETATM    2  C   UNK N   1      26.595  19.960   4.419  0.00  0.00     0.083 A 
HETATM    3  C   UNK N   1      26.055  17.672   3.720  0.00  0.00     0.083 A 
HETATM    4  C   UNK N   1      25.275  20.333   4.118  0.00  0.00     0.074 A 
HETATM    5  C   UNK N   1      24.753  18.097   3.441  0.00  0.00     0.074 A 
HETATM    6  C   UNK N   1      24.357  19.419   3.633  0.00  0.00     0.073 A 
ENDROOT
BRANCH   1   7
HETATM    7  C   UNK N   1      28.402  18.127   4.520  0.00  0.00     0.035 C 
HETATM    8  C   UNK N   1      29.233  17.792   5.536  0.00  0.00     0.045 A 
HETATM    9  C   UNK N   1      29.164  17.797   7.014  0.00  0.00     0.006 A 
HETATM   10  C   UNK N   1      30.579  17.246   5.268  0.00  0.00     0.257 A 
HETATM   11  C   UNK N   1      30.351  17.249   7.472  0.00  0.00     0.046 A 
HETATM   12  C   UNK N   1      28.207  18.236   7.922  0.00  0.00     0.015 A 
HETATM   13  N   UNK N   1      31.212  16.919   6.413  0.00  0.00    -0.322 N 
HETATM   14  C   UNK N   1      30.617  17.079   8.828  0.00  0.00     0.030 A 
HETATM   15  H   UNK N   1      32.111  16.523   6.491  0.00  0.00     0.169 HD
HETATM   16  C   UNK N   1      29.641  17.490   9.748  0.00  0.00     0.002 A 
HETATM   17  C   UNK N   1      28.443  18.076   9.296  0.00  0.00     0.001 A 
HETATM   18  O   UNK N   1      31.076  17.087   4.167  0.00  0.00    -0.267 OA
ENDBRANCH   1   7
BRANCH   2  19
HETATM   19  O   UNK N   1      27.429  20.876   4.945  0.00  0.00    -0.355 OA
HETATM   20  C   UNK N   1      27.268  21.421   6.203  0.00  0.00     0.210 C 
ENDBRANCH   2  19
BRANCH   3  21
HETATM   21  O   UNK N   1      26.301  16.347   3.509  0.00  0.00    -0.355 OA
HETATM   22  C   UNK N   1      26.441  15.696   2.306  0.00  0.00     0.210 C 
ENDBRANCH   3  21
BRANCH   6  23
HETATM   23  O   UNK N   1      23.092  19.832   3.382  0.00  0.00    -0.356 OA
HETATM   24  C   UNK N   1      21.977  19.109   3.743  0.00  0.00     0.210 C 
ENDBRANCH   6  23
TORSDOF 4
ENDMDL
