REMARK  4 active torsions:
REMARK  status: ('A' for Active; 'I' for Inactive)
REMARK    1  A    between atoms: O_1  and  C_13 
REMARK    2  A    between atoms: O_2  and  C_14 
REMARK    3  A    between atoms: O_4  and  C_20 
REMARK    4  A    between atoms: C_9  and  C_10 
ROOT
HETATM    1  C   UNK N   1       4.328   0.511  -0.026  0.00  0.00     0.032 A 
HETATM    2  C   UNK N   1       2.984   0.937  -0.212  0.00  0.00     0.083 A 
HETATM    3  C   UNK N   1       5.333   1.517   0.188  0.00  0.00     0.083 A 
HETATM    4  C   UNK N   1       2.665   2.303  -0.150  0.00  0.00     0.074 A 
HETATM    5  C   UNK N   1       4.961   2.863   0.236  0.00  0.00     0.074 A 
HETATM    6  C   UNK N   1       3.636   3.263   0.072  0.00  0.00     0.073 A 
ENDROOT
BRANCH   1   7
HETATM    7  C   UNK N   1       4.762  -0.923  -0.094  0.00  0.00     0.035 C 
HETATM    8  C   UNK N   1       4.305  -2.198  -0.088  0.00  0.00     0.045 A 
HETATM    9  C   UNK N   1       2.987  -2.855   0.051  0.00  0.00     0.006 A 
HETATM   10  C   UNK N   1       5.226  -3.337  -0.278  0.00  0.00     0.257 A 
HETATM   11  C   UNK N   1       3.199  -4.215  -0.108  0.00  0.00     0.046 A 
HETATM   12  C   UNK N   1       1.706  -2.379   0.309  0.00  0.00     0.015 A 
HETATM   13  N   UNK N   1       4.559  -4.508  -0.303  0.00  0.00    -0.322 N 
HETATM   14  C   UNK N   1       2.160  -5.140  -0.060  0.00  0.00     0.030 A 
HETATM   15  H   UNK N   1       4.952  -5.402  -0.433  0.00  0.00     0.169 HD
HETATM   16  C   UNK N   1       0.861  -4.662   0.167  0.00  0.00     0.002 A 
HETATM   17  C   UNK N   1       0.636  -3.286   0.361  0.00  0.00     0.001 A 
HETATM   18  O   UNK N   1       6.435  -3.259  -0.411  0.00  0.00    -0.267 OA
ENDBRANCH   1   7
BRANCH   2  19
HETATM   19  O   UNK N   1       2.009   0.051  -0.490  0.00  0.00    -0.355 OA
HETATM   20  C   UNK N   1       0.688   0.404  -0.676  0.00  0.00     0.210 C 
ENDBRANCH   2  19
BRANCH   3  21
HETATM   21  O   UNK N   1       6.665   1.267   0.341  0.00  0.00    -0.355 OA
HETATM   22  C   UNK N   1       7.316   0.061   0.225  0.00  0.00     0.210 C 
ENDBRANCH   3  21
BRANCH   6  23
HETATM   23  O   UNK N   1       3.273   4.568   0.098  0.00  0.00    -0.356 OA
HETATM   24  C   UNK N   1       4.175   5.599   0.232  0.00  0.00     0.210 C 
ENDBRANCH   6  23
TORSDOF 4
