MODEL 1
REMARK VINA RESULT:      -6.9      0.000      0.000
REMARK  0 active torsions:
REMARK  status: ('A' for Active; 'I' for Inactive)
ROOT
HETATM    1  C   UNK N   1      24.896  14.767   6.227  0.00  0.00     0.001 A 
HETATM    2  C   UNK N   1      25.107  14.182   7.479  0.00  0.00     0.015 A 
HETATM    3  C   UNK N   1      24.013  13.795   8.255  0.00  0.00     0.007 A 
HETATM    4  C   UNK N   1      22.674  13.998   7.769  0.00  0.00     0.027 A 
HETATM    5  C   UNK N   1      22.491  14.586   6.512  0.00  0.00     0.016 A 
HETATM    6  C   UNK N   1      23.596  14.968   5.747  0.00  0.00     0.001 A 
HETATM    7  C   UNK N   1      23.079  12.855  10.212  0.00  0.00     0.035 A 
HETATM    8  C   UNK N   1      23.500  12.321  11.363  0.00  0.00     0.061 A 
HETATM    9  C   UNK N   1      22.577  11.861  12.303  0.00  0.00     0.032 A 
HETATM   10  C   UNK N   1      21.197  11.989  11.973  0.00  0.00     0.003 A 
HETATM   11  C   UNK N   1      20.791  12.566  10.732  0.00  0.00     0.016 A 
HETATM   12  C   UNK N   1      21.776  13.011   9.826  0.00  0.00     0.030 A 
HETATM   13  C   UNK N   1      21.549  13.601   8.565  0.00  0.00     0.194 A 
HETATM   14  C   UNK N   1      24.163  13.206   9.512  0.00  0.00     0.072 A 
HETATM   15  O   UNK N   1      20.409  13.769   8.161  0.00  0.00    -0.287 OA
HETATM   16  N   UNK N   1      25.266  12.889  10.230  0.00  0.00    -0.299 N 
ATOM     17  HN  UNK N   1      26.235  13.041   9.948  1.00  0.00     0.187 HD
HETATM   18  N   UNK N   1      24.854  12.338  11.383  0.00  0.00    -0.299 N 
HETATM   19  H   UNK N   1      25.430  12.007  12.109  0.00  0.00     0.187 HD
ENDROOT
TORSDOF 0
ENDMDL
MODEL 2
REMARK VINA RESULT:      -6.8      8.250      9.238
REMARK  0 active torsions:
REMARK  status: ('A' for Active; 'I' for Inactive)
ROOT
HETATM    1  C   UNK N   1      30.221  17.463   9.407  0.00  0.00     0.001 A 
HETATM    2  C   UNK N   1      29.180  18.337   9.079  0.00  0.00     0.015 A 
HETATM    3  C   UNK N   1      28.805  18.495   7.743  0.00  0.00     0.007 A 
HETATM    4  C   UNK N   1      29.486  17.762   6.709  0.00  0.00     0.027 A 
HETATM    5  C   UNK N   1      30.525  16.894   7.066  0.00  0.00     0.016 A 
HETATM    6  C   UNK N   1      30.889  16.747   8.406  0.00  0.00     0.001 A 
HETATM    7  C   UNK N   1      27.456  19.464   6.062  0.00  0.00     0.035 A 
HETATM    8  C   UNK N   1      26.448  20.339   5.969  0.00  0.00     0.061 A 
HETATM    9  C   UNK N   1      25.906  20.656   4.724  0.00  0.00     0.032 A 
HETATM   10  C   UNK N   1      26.472  20.011   3.586  0.00  0.00     0.003 A 
HETATM   11  C   UNK N   1      27.548  19.083   3.730  0.00  0.00     0.016 A 
HETATM   12  C   UNK N   1      28.050  18.808   5.019  0.00  0.00     0.030 A 
HETATM   13  C   UNK N   1      29.102  17.923   5.337  0.00  0.00     0.194 A 
HETATM   14  C   UNK N   1      27.773  19.352   7.356  0.00  0.00     0.072 A 
HETATM   15  O   UNK N   1      29.674  17.306   4.453  0.00  0.00    -0.287 OA
HETATM   16  N   UNK N   1      26.959  20.161   8.075  0.00  0.00    -0.299 N 
ATOM     17  HN  UNK N   1      26.969  20.282   9.087  1.00  0.00     0.187 HD
HETATM   18  N   UNK N   1      26.134  20.775   7.211  0.00  0.00    -0.299 N 
HETATM   19  H   UNK N   1      25.430  21.424   7.440  0.00  0.00     0.187 HD
ENDROOT
TORSDOF 0
ENDMDL
MODEL 3
REMARK VINA RESULT:      -6.6      8.059      8.572
REMARK  0 active torsions:
REMARK  status: ('A' for Active; 'I' for Inactive)
ROOT
HETATM    1  C   UNK N   1      25.999  20.581   4.833  0.00  0.00     0.001 A 
HETATM    2  C   UNK N   1      26.483  20.192   6.085  0.00  0.00     0.015 A 
HETATM    3  C   UNK N   1      27.555  19.300   6.165  0.00  0.00     0.007 A 
HETATM    4  C   UNK N   1      28.158  18.785   4.965  0.00  0.00     0.027 A 
HETATM    5  C   UNK N   1      27.653  19.191   3.724  0.00  0.00     0.016 A 
HETATM    6  C   UNK N   1      26.580  20.083   3.659  0.00  0.00     0.001 A 
HETATM    7  C   UNK N   1      29.109  18.022   7.404  0.00  0.00     0.035 A 
HETATM    8  C   UNK N   1      29.412  17.784   8.685  0.00  0.00     0.061 A 
HETATM    9  C   UNK N   1      30.457  16.919   9.010  0.00  0.00     0.032 A 
HETATM   10  C   UNK N   1      31.163  16.319   7.928  0.00  0.00     0.003 A 
HETATM   11  C   UNK N   1      30.806  16.600   6.574  0.00  0.00     0.016 A 
HETATM   12  C   UNK N   1      29.739  17.485   6.315  0.00  0.00     0.030 A 
HETATM   13  C   UNK N   1      29.260  17.870   5.045  0.00  0.00     0.194 A 
HETATM   14  C   UNK N   1      28.081  18.877   7.387  0.00  0.00     0.072 A 
HETATM   15  O   UNK N   1      29.778  17.427   4.032  0.00  0.00    -0.287 OA
HETATM   16  N   UNK N   1      27.741  19.174   8.664  0.00  0.00    -0.299 N 
ATOM     17  HN  UNK N   1      26.992  19.801   8.958  1.00  0.00     0.187 HD
HETATM   18  N   UNK N   1      28.570  18.494   9.472  0.00  0.00    -0.299 N 
HETATM   19  H   UNK N   1      28.565  18.509  10.456  0.00  0.00     0.187 HD
ENDROOT
TORSDOF 0
ENDMDL
MODEL 4
REMARK VINA RESULT:      -6.6      7.899     10.459
REMARK  0 active torsions:
REMARK  status: ('A' for Active; 'I' for Inactive)
ROOT
HETATM    1  C   UNK N   1      28.158  17.968   8.951  0.00  0.00     0.001 A 
HETATM    2  C   UNK N   1      28.242  17.744   7.573  0.00  0.00     0.015 A 
HETATM    3  C   UNK N   1      29.493  17.574   6.976  0.00  0.00     0.007 A 
HETATM    4  C   UNK N   1      30.688  17.628   7.774  0.00  0.00     0.027 A 
HETATM    5  C   UNK N   1      30.575  17.853   9.151  0.00  0.00     0.016 A 
HETATM    6  C   UNK N   1      29.317  18.022   9.734  0.00  0.00     0.001 A 
HETATM    7  C   UNK N   1      30.861  17.191   5.087  0.00  0.00     0.035 A 
HETATM    8  C   UNK N   1      30.717  16.992   3.773  0.00  0.00     0.061 A 
HETATM    9  C   UNK N   1      31.838  16.796   2.966  0.00  0.00     0.032 A 
HETATM   10  C   UNK N   1      33.111  16.820   3.606  0.00  0.00     0.003 A 
HETATM   11  C   UNK N   1      33.219  17.036   5.014  0.00  0.00     0.016 A 
HETATM   12  C   UNK N   1      32.045  17.228   5.771  0.00  0.00     0.030 A 
HETATM   13  C   UNK N   1      31.974  17.453   7.162  0.00  0.00     0.194 A 
HETATM   14  C   UNK N   1      29.639  17.348   5.606  0.00  0.00     0.072 A 
HETATM   15  O   UNK N   1      32.994  17.497   7.831  0.00  0.00    -0.287 OA
HETATM   16  N   UNK N   1      28.727  17.245   4.609  0.00  0.00    -0.299 N 
ATOM     17  HN  UNK N   1      27.715  17.322   4.707  1.00  0.00     0.187 HD
HETATM   18  N   UNK N   1      29.399  17.024   3.469  0.00  0.00    -0.299 N 
HETATM   19  H   UNK N   1      29.004  16.906   2.574  0.00  0.00     0.187 HD
ENDROOT
TORSDOF 0
ENDMDL
MODEL 5
REMARK VINA RESULT:      -6.5     14.694     15.522
REMARK  0 active torsions:
REMARK  status: ('A' for Active; 'I' for Inactive)
ROOT
HETATM    1  C   UNK N   1      35.131  13.380  18.399  0.00  0.00     0.001 A 
HETATM    2  C   UNK N   1      35.504  13.723  17.096  0.00  0.00     0.015 A 
HETATM    3  C   UNK N   1      35.961  12.732  16.224  0.00  0.00     0.007 A 
HETATM    4  C   UNK N   1      36.049  11.366  16.665  0.00  0.00     0.027 A 
HETATM    5  C   UNK N   1      35.670  11.051  17.975  0.00  0.00     0.016 A 
HETATM    6  C   UNK N   1      35.214  12.052  18.836  0.00  0.00     0.001 A 
HETATM    7  C   UNK N   1      36.777  12.028  14.121  0.00  0.00     0.035 A 
HETATM    8  C   UNK N   1      37.077  12.565  12.934  0.00  0.00     0.061 A 
HETATM    9  C   UNK N   1      37.557  11.761  11.900  0.00  0.00     0.032 A 
HETATM   10  C   UNK N   1      37.704  10.371  12.175  0.00  0.00     0.003 A 
HETATM   11  C   UNK N   1      37.371   9.837  13.457  0.00  0.00     0.016 A 
HETATM   12  C   UNK N   1      36.892  10.706  14.459  0.00  0.00     0.030 A 
HETATM   13  C   UNK N   1      36.519  10.347  15.771  0.00  0.00     0.194 A 
HETATM   14  C   UNK N   1      36.346  13.016  14.913  0.00  0.00     0.072 A 
HETATM   15  O   UNK N   1      36.597   9.185  16.136  0.00  0.00    -0.287 OA
HETATM   16  N   UNK N   1      36.378  14.176  14.215  0.00  0.00    -0.299 N 
ATOM     17  HN  UNK N   1      36.106  15.096  14.562  1.00  0.00     0.187 HD
HETATM   18  N   UNK N   1      36.833  13.896  12.984  0.00  0.00    -0.299 N 
HETATM   19  H   UNK N   1      36.965  14.540  12.251  0.00  0.00     0.187 HD
ENDROOT
TORSDOF 0
ENDMDL
MODEL 6
REMARK VINA RESULT:      -6.5      7.569      9.158
REMARK  0 active torsions:
REMARK  status: ('A' for Active; 'I' for Inactive)
ROOT
HETATM    1  C   UNK N   1      33.062  16.807   3.516  0.00  0.00     0.001 A 
HETATM    2  C   UNK N   1      33.020  16.987   4.902  0.00  0.00     0.015 A 
HETATM    3  C   UNK N   1      31.790  17.166   5.539  0.00  0.00     0.007 A 
HETATM    4  C   UNK N   1      30.573  17.165   4.773  0.00  0.00     0.027 A 
HETATM    5  C   UNK N   1      30.643  16.982   3.387  0.00  0.00     0.016 A 
HETATM    6  C   UNK N   1      31.881  16.804   2.764  0.00  0.00     0.001 A 
HETATM    7  C   UNK N   1      30.484  17.517   7.476  0.00  0.00     0.035 A 
HETATM    8  C   UNK N   1      30.668  17.671   8.792  0.00  0.00     0.061 A 
HETATM    9  C   UNK N   1      29.574  17.866   9.636  0.00  0.00     0.032 A 
HETATM   10  C   UNK N   1      28.284  17.891   9.031  0.00  0.00     0.003 A 
HETATM   11  C   UNK N   1      28.132  17.722   7.621  0.00  0.00     0.016 A 
HETATM   12  C   UNK N   1      29.280  17.530   6.825  0.00  0.00     0.030 A 
HETATM   13  C   UNK N   1      29.309  17.349   5.426  0.00  0.00     0.194 A 
HETATM   14  C   UNK N   1      31.687  17.351   6.919  0.00  0.00     0.072 A 
HETATM   15  O   UNK N   1      28.270  17.349   4.785  0.00  0.00    -0.287 OA
HETATM   16  N   UNK N   1      32.628  17.401   7.892  0.00  0.00    -0.299 N 
ATOM     17  HN  UNK N   1      33.635  17.304   7.764  1.00  0.00     0.187 HD
HETATM   18  N   UNK N   1      31.993  17.600   9.058  0.00  0.00    -0.299 N 
HETATM   19  H   UNK N   1      32.414  17.680   9.944  0.00  0.00     0.187 HD
ENDROOT
TORSDOF 0
ENDMDL
MODEL 7
REMARK VINA RESULT:      -6.4      7.717      9.470
REMARK  0 active torsions:
REMARK  status: ('A' for Active; 'I' for Inactive)
ROOT
HETATM    1  C   UNK N   1      31.826  16.652   3.040  0.00  0.00     0.001 A 
HETATM    2  C   UNK N   1      30.632  16.809   3.748  0.00  0.00     0.015 A 
HETATM    3  C   UNK N   1      30.671  17.109   5.112  0.00  0.00     0.007 A 
HETATM    4  C   UNK N   1      31.934  17.255   5.784  0.00  0.00     0.027 A 
HETATM    5  C   UNK N   1      33.115  17.092   5.050  0.00  0.00     0.016 A 
HETATM    6  C   UNK N   1      33.061  16.793   3.687  0.00  0.00     0.001 A 
HETATM    7  C   UNK N   1      29.607  17.563   7.172  0.00  0.00     0.035 A 
HETATM    8  C   UNK N   1      28.364  17.670   7.653  0.00  0.00     0.061 A 
HETATM    9  C   UNK N   1      28.155  17.966   9.001  0.00  0.00     0.032 A 
HETATM   10  C   UNK N   1      29.313  18.143   9.813  0.00  0.00     0.003 A 
HETATM   11  C   UNK N   1      30.623  18.020   9.258  0.00  0.00     0.016 A 
HETATM   12  C   UNK N   1      30.763  17.718   7.888  0.00  0.00     0.030 A 
HETATM   13  C   UNK N   1      31.976  17.563   7.184  0.00  0.00     0.194 A 
HETATM   14  C   UNK N   1      29.511  17.276   5.870  0.00  0.00     0.072 A 
HETATM   15  O   UNK N   1      33.043  17.689   7.763  0.00  0.00    -0.287 OA
HETATM   16  N   UNK N   1      28.200  17.205   5.537  0.00  0.00    -0.299 N 
ATOM     17  HN  UNK N   1      27.823  17.002   4.611  1.00  0.00     0.187 HD
HETATM   18  N   UNK N   1      27.486  17.449   6.647  0.00  0.00    -0.299 N 
HETATM   19  H   UNK N   1      26.505  17.466   6.716  0.00  0.00     0.187 HD
ENDROOT
TORSDOF 0
ENDMDL
MODEL 8
REMARK VINA RESULT:      -6.4      7.054      8.378
REMARK  0 active torsions:
REMARK  status: ('A' for Active; 'I' for Inactive)
ROOT
HETATM    1  C   UNK N   1      27.869  18.616   5.140  0.00  0.00     0.001 A 
HETATM    2  C   UNK N   1      26.599  18.082   5.375  0.00  0.00     0.015 A 
HETATM    3  C   UNK N   1      25.491  18.617   4.713  0.00  0.00     0.007 A 
HETATM    4  C   UNK N   1      25.657  19.710   3.794  0.00  0.00     0.027 A 
HETATM    5  C   UNK N   1      26.940  20.226   3.578  0.00  0.00     0.016 A 
HETATM    6  C   UNK N   1      28.039  19.681   4.247  0.00  0.00     0.001 A 
HETATM    7  C   UNK N   1      23.175  18.674   4.248  0.00  0.00     0.035 A 
HETATM    8  C   UNK N   1      22.065  18.024   4.613  0.00  0.00     0.061 A 
HETATM    9  C   UNK N   1      20.830  18.386   4.077  0.00  0.00     0.032 A 
HETATM   10  C   UNK N   1      20.819  19.462   3.142  0.00  0.00     0.003 A 
HETATM   11  C   UNK N   1      22.028  20.130   2.780  0.00  0.00     0.016 A 
HETATM   12  C   UNK N   1      23.243  19.713   3.360  0.00  0.00     0.030 A 
HETATM   13  C   UNK N   1      24.520  20.260   3.114  0.00  0.00     0.194 A 
HETATM   14  C   UNK N   1      24.199  18.125   4.908  0.00  0.00     0.072 A 
HETATM   15  O   UNK N   1      24.650  21.189   2.332  0.00  0.00    -0.287 OA
HETATM   16  N   UNK N   1      23.726  17.125   5.690  0.00  0.00    -0.299 N 
ATOM     17  HN  UNK N   1      24.278  16.528   6.307  1.00  0.00     0.187 HD
HETATM   18  N   UNK N   1      22.398  17.062   5.507  0.00  0.00    -0.299 N 
HETATM   19  H   UNK N   1      21.779  16.433   5.942  0.00  0.00     0.187 HD
ENDROOT
TORSDOF 0
ENDMDL
MODEL 9
REMARK VINA RESULT:      -6.4      2.121      4.730
REMARK  0 active torsions:
REMARK  status: ('A' for Active; 'I' for Inactive)
ROOT
HETATM    1  C   UNK N   1      23.493  11.911  10.815  0.00  0.00     0.001 A 
HETATM    2  C   UNK N   1      23.770  12.663   9.669  0.00  0.00     0.015 A 
HETATM    3  C   UNK N   1      22.772  13.467   9.112  0.00  0.00     0.007 A 
HETATM    4  C   UNK N   1      21.467  13.520   9.714  0.00  0.00     0.027 A 
HETATM    5  C   UNK N   1      21.218  12.757  10.860  0.00  0.00     0.016 A 
HETATM    6  C   UNK N   1      22.225  11.958  11.407  0.00  0.00     0.001 A 
HETATM    7  C   UNK N   1      22.000  14.990   7.479  0.00  0.00     0.035 A 
HETATM    8  C   UNK N   1      22.470  15.619   6.397  0.00  0.00     0.061 A 
HETATM    9  C   UNK N   1      21.646  16.481   5.673  0.00  0.00     0.032 A 
HETATM   10  C   UNK N   1      20.310  16.647   6.140  0.00  0.00     0.003 A 
HETATM   11  C   UNK N   1      19.848  15.955   7.301  0.00  0.00     0.016 A 
HETATM   12  C   UNK N   1      20.733  15.098   7.987  0.00  0.00     0.030 A 
HETATM   13  C   UNK N   1      20.442  14.344   9.143  0.00  0.00     0.194 A 
HETATM   14  C   UNK N   1      22.991  14.239   7.970  0.00  0.00     0.072 A 
HETATM   15  O   UNK N   1      19.331  14.396   9.646  0.00  0.00    -0.287 OA
HETATM   16  N   UNK N   1      24.086  14.401   7.189  0.00  0.00    -0.299 N 
ATOM     17  HN  UNK N   1      24.992  13.952   7.321  1.00  0.00     0.187 HD
HETATM   18  N   UNK N   1      23.761  15.260   6.211  0.00  0.00    -0.299 N 
HETATM   19  H   UNK N   1      24.354  15.572   5.489  0.00  0.00     0.187 HD
ENDROOT
TORSDOF 0
ENDMDL
