MODEL 1
REMARK VINA RESULT:      -7.6      0.000      0.000
REMARK  1 active torsions:
REMARK  status: ('A' for Active; 'I' for Inactive)
REMARK    1  A    between atoms: C_1  and  O_20 
ROOT
HETATM    1  C   UNK N   1      20.536  16.496   4.795  0.00  0.00     0.118 C 
HETATM    2  C   UNK N   1      21.888  15.973   4.306  0.00  0.00     0.032 C 
HETATM    3  C   UNK N   1      22.335  14.698   5.053  0.00  0.00     0.012 C 
HETATM    4  C   UNK N   1      20.524  16.795   6.305  0.00  0.00     0.037 C 
HETATM    5  C   UNK N   1      21.478  15.887   7.102  0.00  0.00    -0.004 C 
HETATM    6  C   UNK N   1      21.094  15.828   8.592  0.00  0.00     0.006 C 
HETATM    7  C   UNK N   1      20.698  14.430   9.068  0.00  0.00     0.006 C 
HETATM    8  C   UNK N   1      21.736  13.340   8.720  0.00  0.00    -0.005 C 
HETATM    9  C   UNK N   1      22.745  13.133   9.871  0.00  0.00     0.001 C 
HETATM   10  C   UNK N   1      22.223  12.426  11.109  0.00  0.00     0.008 C 
HETATM   11  C   UNK N   1      23.472  11.786  11.737  0.00  0.00     0.033 C 
HETATM   12  C   UNK N   1      24.635  11.996  10.753  0.00  0.00     0.126 C 
HETATM   13  C   UNK N   1      23.931  12.287   9.432  0.00  0.00    -0.014 C 
HETATM   14  C   UNK N   1      23.498  10.947   8.827  0.00  0.00     0.018 C 
HETATM   15  C   UNK N   1      24.768  13.069   8.395  0.00  0.00     0.012 C 
HETATM   16  C   UNK N   1      23.923  14.069   7.558  0.00  0.00     0.007 C 
HETATM   17  C   UNK N   1      22.474  13.572   7.344  0.00  0.00    -0.002 C 
HETATM   18  C   UNK N   1      21.647  14.496   6.421  0.00  0.00    -0.036 C 
HETATM   19  C   UNK N   1      20.291  13.824   6.157  0.00  0.00     0.016 C 
HETATM   20  O   UNK N   1      25.379  13.101  11.179  0.00  0.00    -0.395 OA
HETATM   21  H   UNK N   1      25.900  13.907  11.318  0.00  0.00     0.210 HD
ENDROOT
BRANCH   1  22
HETATM   22  O   UNK N   1      20.158  17.628   4.075  0.00  0.00    -0.396 OA
HETATM   23  H   UNK N   1      20.790  18.190   3.599  0.00  0.00     0.210 HD
ENDBRANCH   1  22
TORSDOF 1
ENDMDL
MODEL 2
REMARK VINA RESULT:      -7.5     13.998     16.155
REMARK  1 active torsions:
REMARK  status: ('A' for Active; 'I' for Inactive)
REMARK    1  A    between atoms: C_1  and  O_20 
ROOT
HETATM    1  C   UNK N   1      36.021  13.604  13.012  0.00  0.00     0.118 C 
HETATM    2  C   UNK N   1      36.438  14.483  14.193  0.00  0.00     0.032 C 
HETATM    3  C   UNK N   1      36.794  13.659  15.449  0.00  0.00     0.012 C 
HETATM    4  C   UNK N   1      34.827  12.690  13.343  0.00  0.00     0.037 C 
HETATM    5  C   UNK N   1      34.776  12.286  14.828  0.00  0.00    -0.004 C 
HETATM    6  C   UNK N   1      33.935  11.014  15.041  0.00  0.00     0.006 C 
HETATM    7  C   UNK N   1      34.733   9.837  15.604  0.00  0.00     0.006 C 
HETATM    8  C   UNK N   1      35.540  10.189  16.874  0.00  0.00    -0.005 C 
HETATM    9  C   UNK N   1      34.734   9.883  18.157  0.00  0.00     0.001 C 
HETATM   10  C   UNK N   1      34.560   8.417  18.513  0.00  0.00     0.008 C 
HETATM   11  C   UNK N   1      34.360   8.418  20.038  0.00  0.00     0.033 C 
HETATM   12  C   UNK N   1      34.600   9.855  20.528  0.00  0.00     0.126 C 
HETATM   13  C   UNK N   1      35.389  10.490  19.389  0.00  0.00    -0.014 C 
HETATM   14  C   UNK N   1      36.854  10.063  19.539  0.00  0.00     0.018 C 
HETATM   15  C   UNK N   1      35.312  12.031  19.309  0.00  0.00     0.012 C 
HETATM   16  C   UNK N   1      35.300  12.566  17.850  0.00  0.00     0.007 C 
HETATM   17  C   UNK N   1      36.106  11.662  16.889  0.00  0.00    -0.002 C 
HETATM   18  C   UNK N   1      36.200  12.233  15.456  0.00  0.00    -0.036 C 
HETATM   19  C   UNK N   1      37.148  11.338  14.642  0.00  0.00     0.016 C 
HETATM   20  O   UNK N   1      33.359  10.479  20.687  0.00  0.00    -0.395 OA
HETATM   21  H   UNK N   1      32.569  11.040  20.729  0.00  0.00     0.210 HD
ENDROOT
BRANCH   1  22
HETATM   22  O   UNK N   1      35.737  14.385  11.894  0.00  0.00    -0.396 OA
HETATM   23  H   UNK N   1      34.883  14.363  11.434  0.00  0.00     0.210 HD
ENDBRANCH   1  22
TORSDOF 1
ENDMDL
MODEL 3
REMARK VINA RESULT:      -7.4     13.162     15.898
REMARK  1 active torsions:
REMARK  status: ('A' for Active; 'I' for Inactive)
REMARK    1  A    between atoms: C_1  and  O_20 
ROOT
HETATM    1  C   UNK N   1      35.323  11.156  17.564  0.00  0.00     0.118 C 
HETATM    2  C   UNK N   1      35.079  12.666  17.562  0.00  0.00     0.032 C 
HETATM    3  C   UNK N   1      34.696  13.202  16.167  0.00  0.00     0.012 C 
HETATM    4  C   UNK N   1      36.415  10.728  16.567  0.00  0.00     0.037 C 
HETATM    5  C   UNK N   1      36.498  11.650  15.338  0.00  0.00    -0.004 C 
HETATM    6  C   UNK N   1      37.191  10.955  14.151  0.00  0.00     0.006 C 
HETATM    7  C   UNK N   1      36.289  10.783  12.929  0.00  0.00     0.006 C 
HETATM    8  C   UNK N   1      35.601  12.091  12.480  0.00  0.00    -0.005 C 
HETATM    9  C   UNK N   1      36.432  12.826  11.404  0.00  0.00     0.001 C 
HETATM   10  C   UNK N   1      36.448  12.204  10.020  0.00  0.00     0.008 C 
HETATM   11  C   UNK N   1      36.729  13.385   9.076  0.00  0.00     0.033 C 
HETATM   12  C   UNK N   1      36.690  14.666   9.925  0.00  0.00     0.126 C 
HETATM   13  C   UNK N   1      35.922  14.241  11.171  0.00  0.00    -0.014 C 
HETATM   14  C   UNK N   1      34.427  14.272  10.832  0.00  0.00     0.018 C 
HETATM   15  C   UNK N   1      36.179  15.097  12.431  0.00  0.00     0.012 C 
HETATM   16  C   UNK N   1      36.176  14.266  13.744  0.00  0.00     0.007 C 
HETATM   17  C   UNK N   1      35.216  13.056  13.668  0.00  0.00    -0.002 C 
HETATM   18  C   UNK N   1      35.113  12.280  15.000  0.00  0.00    -0.036 C 
HETATM   19  C   UNK N   1      34.023  11.208  14.851  0.00  0.00     0.016 C 
HETATM   20  O   UNK N   1      38.004  15.024  10.243  0.00  0.00    -0.395 OA
HETATM   21  H   UNK N   1      38.857  15.303  10.611  0.00  0.00     0.210 HD
ENDROOT
BRANCH   1  22
HETATM   22  O   UNK N   1      35.637  10.711  18.846  0.00  0.00    -0.396 OA
HETATM   23  H   UNK N   1      35.696  11.301  19.614  0.00  0.00     0.210 HD
ENDBRANCH   1  22
TORSDOF 1
ENDMDL
MODEL 4
REMARK VINA RESULT:      -7.0     10.476     12.146
REMARK  1 active torsions:
REMARK  status: ('A' for Active; 'I' for Inactive)
REMARK    1  A    between atoms: C_1  and  O_20 
ROOT
HETATM    1  C   UNK N   1      32.217  16.684   3.726  0.00  0.00     0.118 C 
HETATM    2  C   UNK N   1      33.077  15.444   3.475  0.00  0.00     0.032 C 
HETATM    3  C   UNK N   1      33.386  14.665   4.772  0.00  0.00     0.012 C 
HETATM    4  C   UNK N   1      32.856  17.658   4.733  0.00  0.00     0.037 C 
HETATM    5  C   UNK N   1      33.735  16.947   5.777  0.00  0.00    -0.004 C 
HETATM    6  C   UNK N   1      33.936  17.813   7.034  0.00  0.00     0.006 C 
HETATM    7  C   UNK N   1      33.364  17.189   8.307  0.00  0.00     0.006 C 
HETATM    8  C   UNK N   1      33.837  15.739   8.552  0.00  0.00    -0.005 C 
HETATM    9  C   UNK N   1      35.098  15.700   9.444  0.00  0.00     0.001 C 
HETATM   10  C   UNK N   1      34.897  16.022  10.914  0.00  0.00     0.008 C 
HETATM   11  C   UNK N   1      36.051  15.293  11.624  0.00  0.00     0.033 C 
HETATM   12  C   UNK N   1      36.769  14.439  10.566  0.00  0.00     0.126 C 
HETATM   13  C   UNK N   1      35.739  14.319   9.450  0.00  0.00    -0.014 C 
HETATM   14  C   UNK N   1      34.747  13.219   9.844  0.00  0.00     0.018 C 
HETATM   15  C   UNK N   1      36.314  14.010   8.049  0.00  0.00     0.012 C 
HETATM   16  C   UNK N   1      35.542  14.720   6.903  0.00  0.00     0.007 C 
HETATM   17  C   UNK N   1      34.041  14.898   7.232  0.00  0.00    -0.002 C 
HETATM   18  C   UNK N   1      33.231  15.501   6.061  0.00  0.00    -0.036 C 
HETATM   19  C   UNK N   1      31.744  15.482   6.444  0.00  0.00     0.016 C 
HETATM   20  O   UNK N   1      37.901  15.135  10.132  0.00  0.00    -0.395 OA
HETATM   21  H   UNK N   1      38.644  15.568   9.683  0.00  0.00     0.210 HD
ENDROOT
BRANCH   1  22
HETATM   22  O   UNK N   1      31.939  17.339   2.528  0.00  0.00    -0.396 OA
HETATM   23  H   UNK N   1      32.574  17.922   2.083  0.00  0.00     0.210 HD
ENDBRANCH   1  22
TORSDOF 1
ENDMDL
MODEL 5
REMARK VINA RESULT:      -7.0     17.156     19.017
REMARK  1 active torsions:
REMARK  status: ('A' for Active; 'I' for Inactive)
REMARK    1  A    between atoms: C_1  and  O_20 
ROOT
HETATM    1  C   UNK N   1      26.621  28.787  -3.715  0.00  0.00     0.118 C 
HETATM    2  C   UNK N   1      27.459  29.045  -4.968  0.00  0.00     0.032 C 
HETATM    3  C   UNK N   1      27.053  28.139  -6.150  0.00  0.00     0.012 C 
HETATM    4  C   UNK N   1      26.689  27.322  -3.245  0.00  0.00     0.037 C 
HETATM    5  C   UNK N   1      26.903  26.331  -4.403  0.00  0.00    -0.004 C 
HETATM    6  C   UNK N   1      26.464  24.906  -4.020  0.00  0.00     0.006 C 
HETATM    7  C   UNK N   1      25.313  24.370  -4.871  0.00  0.00     0.006 C 
HETATM    8  C   UNK N   1      25.563  24.483  -6.391  0.00  0.00    -0.005 C 
HETATM    9  C   UNK N   1      26.200  23.194  -6.957  0.00  0.00     0.001 C 
HETATM   10  C   UNK N   1      25.293  21.981  -7.062  0.00  0.00     0.008 C 
HETATM   11  C   UNK N   1      25.913  21.140  -8.191  0.00  0.00     0.033 C 
HETATM   12  C   UNK N   1      27.046  21.976  -8.812  0.00  0.00     0.126 C 
HETATM   13  C   UNK N   1      26.716  23.398  -8.373  0.00  0.00    -0.014 C 
HETATM   14  C   UNK N   1      25.634  23.939  -9.315  0.00  0.00     0.018 C 
HETATM   15  C   UNK N   1      27.911  24.376  -8.353  0.00  0.00     0.012 C 
HETATM   16  C   UNK N   1      27.840  25.401  -7.186  0.00  0.00     0.007 C 
HETATM   17  C   UNK N   1      26.383  25.763  -6.814  0.00  0.00    -0.002 C 
HETATM   18  C   UNK N   1      26.290  26.863  -5.732  0.00  0.00    -0.036 C 
HETATM   19  C   UNK N   1      24.812  27.247  -5.563  0.00  0.00     0.016 C 
HETATM   20  O   UNK N   1      28.259  21.549  -8.263  0.00  0.00    -0.395 OA
HETATM   21  H   UNK N   1      29.137  21.411  -7.875  0.00  0.00     0.210 HD
ENDROOT
BRANCH   1  22
HETATM   22  O   UNK N   1      27.001  29.644  -2.685  0.00  0.00    -0.396 OA
HETATM   23  H   UNK N   1      27.808  30.182  -2.712  0.00  0.00     0.210 HD
ENDBRANCH   1  22
TORSDOF 1
ENDMDL
MODEL 6
REMARK VINA RESULT:      -6.9     17.018     18.976
REMARK  1 active torsions:
REMARK  status: ('A' for Active; 'I' for Inactive)
REMARK    1  A    between atoms: C_1  and  O_20 
ROOT
HETATM    1  C   UNK N   1      31.773  22.120  -4.911  0.00  0.00     0.118 C 
HETATM    2  C   UNK N   1      30.372  21.510  -4.985  0.00  0.00     0.032 C 
HETATM    3  C   UNK N   1      29.312  22.518  -5.481  0.00  0.00     0.012 C 
HETATM    4  C   UNK N   1      31.833  23.366  -4.008  0.00  0.00     0.037 C 
HETATM    5  C   UNK N   1      30.508  24.150  -3.981  0.00  0.00    -0.004 C 
HETATM    6  C   UNK N   1      30.719  25.606  -3.525  0.00  0.00     0.006 C 
HETATM    7  C   UNK N   1      30.352  26.641  -4.589  0.00  0.00     0.006 C 
HETATM    8  C   UNK N   1      28.938  26.444  -5.180  0.00  0.00    -0.005 C 
HETATM    9  C   UNK N   1      27.885  27.279  -4.417  0.00  0.00     0.001 C 
HETATM   10  C   UNK N   1      27.916  28.779  -4.645  0.00  0.00     0.008 C 
HETATM   11  C   UNK N   1      26.476  29.237  -4.358  0.00  0.00     0.033 C 
HETATM   12  C   UNK N   1      25.629  27.970  -4.147  0.00  0.00     0.126 C 
HETATM   13  C   UNK N   1      26.467  26.874  -4.793  0.00  0.00    -0.014 C 
HETATM   14  C   UNK N   1      26.228  26.931  -6.306  0.00  0.00     0.018 C 
HETATM   15  C   UNK N   1      26.187  25.442  -4.285  0.00  0.00     0.012 C 
HETATM   16  C   UNK N   1      27.464  24.559  -4.212  0.00  0.00     0.007 C 
HETATM   17  C   UNK N   1      28.496  24.934  -5.302  0.00  0.00    -0.002 C 
HETATM   18  C   UNK N   1      29.726  23.997  -5.319  0.00  0.00    -0.036 C 
HETATM   19  C   UNK N   1      30.594  24.366  -6.531  0.00  0.00     0.016 C 
HETATM   20  O   UNK N   1      25.494  27.755  -2.772  0.00  0.00    -0.395 OA
HETATM   21  H   UNK N   1      25.426  27.450  -1.854  0.00  0.00     0.210 HD
ENDROOT
BRANCH   1  22
HETATM   22  O   UNK N   1      32.700  21.171  -4.487  0.00  0.00    -0.396 OA
HETATM   23  H   UNK N   1      32.454  20.373  -3.992  0.00  0.00     0.210 HD
ENDBRANCH   1  22
TORSDOF 1
ENDMDL
MODEL 7
REMARK VINA RESULT:      -6.7     16.827     18.937
REMARK  1 active torsions:
REMARK  status: ('A' for Active; 'I' for Inactive)
REMARK    1  A    between atoms: C_1  and  O_20 
ROOT
HETATM    1  C   UNK N   1      26.750  27.722  -3.349  0.00  0.00     0.118 C 
HETATM    2  C   UNK N   1      25.531  27.893  -4.257  0.00  0.00     0.032 C 
HETATM    3  C   UNK N   1      25.126  26.578  -4.959  0.00  0.00     0.012 C 
HETATM    4  C   UNK N   1      27.979  27.178  -4.099  0.00  0.00     0.037 C 
HETATM    5  C   UNK N   1      27.604  26.267  -5.281  0.00  0.00    -0.004 C 
HETATM    6  C   UNK N   1      28.773  25.348  -5.683  0.00  0.00     0.006 C 
HETATM    7  C   UNK N   1      28.469  23.859  -5.512  0.00  0.00     0.006 C 
HETATM    8  C   UNK N   1      27.155  23.415  -6.193  0.00  0.00    -0.005 C 
HETATM    9  C   UNK N   1      27.407  22.904  -7.629  0.00  0.00     0.001 C 
HETATM   10  C   UNK N   1      28.085  21.552  -7.757  0.00  0.00     0.008 C 
HETATM   11  C   UNK N   1      27.621  21.022  -9.124  0.00  0.00     0.033 C 
HETATM   12  C   UNK N   1      26.560  22.001  -9.656  0.00  0.00     0.126 C 
HETATM   13  C   UNK N   1      26.108  22.744  -8.405  0.00  0.00    -0.014 C 
HETATM   14  C   UNK N   1      25.098  21.854  -7.671  0.00  0.00     0.018 C 
HETATM   15  C   UNK N   1      25.479  24.133  -8.652  0.00  0.00     0.012 C 
HETATM   16  C   UNK N   1      25.832  25.168  -7.548  0.00  0.00     0.007 C 
HETATM   17  C   UNK N   1      26.015  24.505  -6.163  0.00  0.00    -0.002 C 
HETATM   18  C   UNK N   1      26.256  25.528  -5.029  0.00  0.00    -0.036 C 
HETATM   19  C   UNK N   1      26.264  24.772  -3.692  0.00  0.00     0.016 C 
HETATM   20  O   UNK N   1      27.177  22.870 -10.561  0.00  0.00    -0.395 OA
HETATM   21  H   UNK N   1      27.516  23.588 -11.118  0.00  0.00     0.210 HD
ENDROOT
BRANCH   1  22
HETATM   22  O   UNK N   1      27.061  28.923  -2.715  0.00  0.00    -0.396 OA
HETATM   23  H   UNK N   1      27.839  29.456  -2.941  0.00  0.00     0.210 HD
ENDBRANCH   1  22
TORSDOF 1
ENDMDL
MODEL 8
REMARK VINA RESULT:      -6.7      7.676      9.100
REMARK  1 active torsions:
REMARK  status: ('A' for Active; 'I' for Inactive)
REMARK    1  A    between atoms: C_1  and  O_20 
ROOT
HETATM    1  C   UNK N   1      26.983  15.484   2.638  0.00  0.00     0.118 C 
HETATM    2  C   UNK N   1      28.215  14.745   2.112  0.00  0.00     0.032 C 
HETATM    3  C   UNK N   1      29.262  14.480   3.215  0.00  0.00     0.012 C 
HETATM    4  C   UNK N   1      27.333  16.828   3.303  0.00  0.00     0.037 C 
HETATM    5  C   UNK N   1      28.727  16.827   3.955  0.00  0.00    -0.004 C 
HETATM    6  C   UNK N   1      28.855  17.931   5.021  0.00  0.00     0.006 C 
HETATM    7  C   UNK N   1      29.106  17.397   6.431  0.00  0.00     0.006 C 
HETATM    8  C   UNK N   1      30.287  16.405   6.515  0.00  0.00    -0.005 C 
HETATM    9  C   UNK N   1      31.608  17.127   6.865  0.00  0.00     0.001 C 
HETATM   10  C   UNK N   1      31.750  17.622   8.293  0.00  0.00     0.008 C 
HETATM   11  C   UNK N   1      33.269  17.661   8.533  0.00  0.00     0.033 C 
HETATM   12  C   UNK N   1      33.939  17.024   7.304  0.00  0.00     0.126 C 
HETATM   13  C   UNK N   1      32.814  16.221   6.664  0.00  0.00    -0.014 C 
HETATM   14  C   UNK N   1      32.685  14.901   7.432  0.00  0.00     0.018 C 
HETATM   15  C   UNK N   1      32.989  15.921   5.158  0.00  0.00     0.012 C 
HETATM   16  C   UNK N   1      31.650  15.948   4.371  0.00  0.00     0.007 C 
HETATM   17  C   UNK N   1      30.453  15.492   5.238  0.00  0.00    -0.002 C 
HETATM   18  C   UNK N   1      29.129  15.404   4.446  0.00  0.00    -0.036 C 
HETATM   19  C   UNK N   1      28.058  14.795   5.363  0.00  0.00     0.016 C 
HETATM   20  O   UNK N   1      34.370  18.049   6.457  0.00  0.00    -0.395 OA
HETATM   21  H   UNK N   1      34.613  18.667   5.750  0.00  0.00     0.210 HD
ENDROOT
BRANCH   1  22
HETATM   22  O   UNK N   1      26.053  15.676   1.618  0.00  0.00    -0.396 OA
HETATM   23  H   UNK N   1      25.475  14.971   1.287  0.00  0.00     0.210 HD
ENDBRANCH   1  22
TORSDOF 1
ENDMDL
MODEL 9
REMARK VINA RESULT:      -6.6     15.961     18.288
REMARK  1 active torsions:
REMARK  status: ('A' for Active; 'I' for Inactive)
REMARK    1  A    between atoms: C_1  and  O_20 
ROOT
HETATM    1  C   UNK N   1      33.406  21.293  -3.885  0.00  0.00     0.118 C 
HETATM    2  C   UNK N   1      33.082  20.883  -5.323  0.00  0.00     0.032 C 
HETATM    3  C   UNK N   1      32.102  21.858  -6.010  0.00  0.00     0.012 C 
HETATM    4  C   UNK N   1      32.150  21.414  -3.003  0.00  0.00     0.037 C 
HETATM    5  C   UNK N   1      30.900  21.832  -3.797  0.00  0.00    -0.004 C 
HETATM    6  C   UNK N   1      29.821  22.436  -2.879  0.00  0.00     0.006 C 
HETATM    7  C   UNK N   1      29.494  23.896  -3.196  0.00  0.00     0.006 C 
HETATM    8  C   UNK N   1      29.161  24.147  -4.683  0.00  0.00    -0.005 C 
HETATM    9  C   UNK N   1      27.642  24.051  -4.946  0.00  0.00     0.001 C 
HETATM   10  C   UNK N   1      26.791  25.196  -4.426  0.00  0.00     0.008 C 
HETATM   11  C   UNK N   1      25.557  25.199  -5.343  0.00  0.00     0.033 C 
HETATM   12  C   UNK N   1      25.817  24.177  -6.461  0.00  0.00     0.126 C 
HETATM   13  C   UNK N   1      27.331  24.003  -6.435  0.00  0.00    -0.014 C 
HETATM   14  C   UNK N   1      27.951  25.180  -7.197  0.00  0.00     0.018 C 
HETATM   15  C   UNK N   1      27.855  22.677  -7.030  0.00  0.00     0.012 C 
HETATM   16  C   UNK N   1      29.092  22.116  -6.275  0.00  0.00     0.007 C 
HETATM   17  C   UNK N   1      29.976  23.241  -5.686  0.00  0.00    -0.002 C 
HETATM   18  C   UNK N   1      31.270  22.712  -5.027  0.00  0.00    -0.036 C 
HETATM   19  C   UNK N   1      32.133  23.917  -4.625  0.00  0.00     0.016 C 
HETATM   20  O   UNK N   1      25.169  22.984  -6.128  0.00  0.00    -0.395 OA
HETATM   21  H   UNK N   1      24.854  22.084  -5.949  0.00  0.00     0.210 HD
ENDROOT
BRANCH   1  22
HETATM   22  O   UNK N   1      34.315  20.404  -3.315  0.00  0.00    -0.396 OA
HETATM   23  H   UNK N   1      34.093  19.823  -2.570  0.00  0.00     0.210 HD
ENDBRANCH   1  22
TORSDOF 1
ENDMDL
