MODEL 1
REMARK VINA RESULT:      -6.8      0.000      0.000
REMARK  7 active torsions:
REMARK  status: ('A' for Active; 'I' for Inactive)
REMARK    1  A    between atoms: C_8  and  C_9 
REMARK    2  A    between atoms: C_10  and  C_11 
REMARK    3  A    between atoms: C_11  and  N_12 
REMARK    4  A    between atoms: C_13  and  N_14 
REMARK    5  A    between atoms: C_17  and  C_20 
REMARK    6  A    between atoms: C_22  and  O_23 
REMARK    7  A    between atoms: C_26  and  O_28 
ROOT
HETATM    1  C   UNK N   1      20.693  15.432   2.320  0.00  0.00     0.057 A 
HETATM    2  C   UNK N   1      20.066  16.609   1.811  0.00  0.00     0.030 A 
HETATM    3  C   UNK N   1      19.492  17.507   2.737  0.00  0.00     0.110 A 
HETATM    4  N   UNK N   1      20.712  15.262   3.659  0.00  0.00    -0.340 N 
ATOM      5  HN  UNK N   1      21.164  14.426   4.031  1.00  0.00     0.167 HD
HETATM    6  C   UNK N   1      20.170  16.135   4.534  0.00  0.00     0.117 A 
HETATM    7  N   UNK N   1      19.555  17.254   4.070  0.00  0.00    -0.328 N 
ATOM      8  HN  UNK N   1      19.136  17.909   4.729  1.00  0.00     0.169 HD
ENDROOT
BRANCH   6   9
HETATM    9  C   UNK N   1      20.313  15.870   5.973  0.00  0.00     0.013 A 
HETATM   10  C   UNK N   1      20.275  16.899   6.920  0.00  0.00     0.052 A 
HETATM   11  C   UNK N   1      20.444  16.608   8.288  0.00  0.00     0.071 A 
HETATM   12  C   UNK N   1      20.664  15.285   8.693  0.00  0.00     0.073 A 
HETATM   13  C   UNK N   1      20.707  14.251   7.755  0.00  0.00     0.071 A 
HETATM   14  C   UNK N   1      20.526  14.552   6.400  0.00  0.00     0.052 A 
BRANCH  11  15
HETATM   15  O   UNK N   1      20.397  17.579   9.230  0.00  0.00    -0.356 OA
HETATM   16  C   UNK N   1      19.326  18.429   9.383  0.00  0.00     0.210 C 
ENDBRANCH  11  15
BRANCH  13  17
HETATM   17  O   UNK N   1      20.926  12.982   8.173  0.00  0.00    -0.356 OA
HETATM   18  C   UNK N   1      21.537  12.026   7.391  0.00  0.00     0.210 C 
ENDBRANCH  13  17
ENDBRANCH   6   9
BRANCH   1  19
HETATM   19  C   UNK N   1      21.391  14.387   1.484  0.00  0.00     0.013 A 
HETATM   20  C   UNK N   1      20.729  13.193   1.050  0.00  0.00     0.048 A 
HETATM   21 Cl   UNK N   1      19.026  12.834   1.335  0.00  0.00    -0.083 Cl
HETATM   22  C   UNK N   1      21.433  12.227   0.331  0.00  0.00     0.048 A 
HETATM   23  C   UNK N   1      22.777  12.402   0.029  0.00  0.00     0.035 A 
HETATM   24 Cl   UNK N   1      23.635  11.154  -0.846  0.00  0.00    -0.084 Cl
HETATM   25  C   UNK N   1      23.434  13.562   0.429  0.00  0.00     0.025 A 
HETATM   26  C   UNK N   1      22.747  14.542   1.147  0.00  0.00     0.017 A 
ENDBRANCH   1  19
BRANCH   3  27
HETATM   27  N   UNK N   1      18.855  18.685   2.288  0.00  0.00    -0.385 N 
HETATM   28  H   UNK N   1      18.840  19.495   2.847  0.00  0.00     0.157 HD
HETATM   29  H   UNK N   1      18.420  18.696   1.405  0.00  0.00     0.157 HD
ENDBRANCH   3  27
BRANCH   2  30
HETATM   30  C   UNK N   1      19.985  16.937   0.348  0.00  0.00     0.156 C 
BRANCH  30  31
HETATM   31  N   UNK N   1      18.728  16.464  -0.208  0.00  0.00    -0.426 N 
HETATM   32  H   UNK N   1      18.160  16.078  -0.961  0.00  0.00     0.150 HD
HETATM   33  H   UNK N   1      18.067  16.578   0.559  0.00  0.00     0.150 HD
ENDBRANCH  30  31
ENDBRANCH   2  30
TORSDOF 7
ENDMDL
MODEL 2
REMARK VINA RESULT:      -6.5     15.319     17.777
REMARK  7 active torsions:
REMARK  status: ('A' for Active; 'I' for Inactive)
REMARK    1  A    between atoms: C_8  and  C_9 
REMARK    2  A    between atoms: C_10  and  C_11 
REMARK    3  A    between atoms: C_11  and  N_12 
REMARK    4  A    between atoms: C_13  and  N_14 
REMARK    5  A    between atoms: C_17  and  C_20 
REMARK    6  A    between atoms: C_22  and  O_23 
REMARK    7  A    between atoms: C_26  and  O_28 
ROOT
HETATM    1  C   UNK N   1      35.589  12.297  12.552  0.00  0.00     0.057 A 
HETATM    2  C   UNK N   1      36.365  11.253  11.967  0.00  0.00     0.030 A 
HETATM    3  C   UNK N   1      36.328  11.106  10.563  0.00  0.00     0.110 A 
HETATM    4  N   UNK N   1      34.882  13.093  11.722  0.00  0.00    -0.340 N 
ATOM      5  HN  UNK N   1      34.329  13.846  12.131  1.00  0.00     0.167 HD
HETATM    6  C   UNK N   1      34.864  12.950  10.380  0.00  0.00     0.117 A 
HETATM    7  N   UNK N   1      35.584  11.951   9.803  0.00  0.00    -0.328 N 
ATOM      8  HN  UNK N   1      35.563  11.836   8.790  1.00  0.00     0.169 HD
ENDROOT
BRANCH   6   9
HETATM    9  C   UNK N   1      34.106  13.921   9.577  0.00  0.00     0.013 A 
HETATM   10  C   UNK N   1      33.177  13.516   8.613  0.00  0.00     0.052 A 
HETATM   11  C   UNK N   1      32.490  14.476   7.845  0.00  0.00     0.071 A 
HETATM   12  C   UNK N   1      32.754  15.838   8.042  0.00  0.00     0.073 A 
HETATM   13  C   UNK N   1      33.682  16.252   9.000  0.00  0.00     0.071 A 
HETATM   14  C   UNK N   1      34.349  15.288   9.764  0.00  0.00     0.052 A 
BRANCH  11  15
HETATM   15  O   UNK N   1      31.574  14.116   6.915  0.00  0.00    -0.356 OA
HETATM   16  C   UNK N   1      31.324  14.853   5.780  0.00  0.00     0.210 C 
ENDBRANCH  11  15
BRANCH  13  17
HETATM   17  O   UNK N   1      33.921  17.575   9.166  0.00  0.00    -0.356 OA
HETATM   18  C   UNK N   1      34.535  18.355   8.211  0.00  0.00     0.210 C 
ENDBRANCH  13  17
ENDBRANCH   6   9
BRANCH   1  19
HETATM   19  C   UNK N   1      35.542  12.625  14.024  0.00  0.00     0.013 A 
HETATM   20  C   UNK N   1      34.598  12.011  14.911  0.00  0.00     0.048 A 
HETATM   21 Cl   UNK N   1      33.461  10.747  14.441  0.00  0.00    -0.083 Cl
HETATM   22  C   UNK N   1      34.551  12.392  16.252  0.00  0.00     0.048 A 
HETATM   23  C   UNK N   1      35.407  13.366  16.747  0.00  0.00     0.035 A 
HETATM   24 Cl   UNK N   1      35.296  13.840  18.427  0.00  0.00    -0.084 Cl
HETATM   25  C   UNK N   1      36.341  13.964  15.906  0.00  0.00     0.025 A 
HETATM   26  C   UNK N   1      36.406  13.596  14.560  0.00  0.00     0.017 A 
ENDBRANCH   1  19
BRANCH   3  27
HETATM   27  N   UNK N   1      37.072  10.086   9.931  0.00  0.00    -0.385 N 
HETATM   28  H   UNK N   1      37.810  10.306   9.317  0.00  0.00     0.157 HD
HETATM   29  H   UNK N   1      36.851   9.143  10.106  0.00  0.00     0.157 HD
ENDBRANCH   3  27
BRANCH   2  30
HETATM   30  C   UNK N   1      37.212  10.304  12.764  0.00  0.00     0.156 C 
BRANCH  30  31
HETATM   31  N   UNK N   1      36.406   9.204  13.266  0.00  0.00    -0.426 N 
HETATM   32  H   UNK N   1      35.655   8.520  13.182  0.00  0.00     0.150 HD
HETATM   33  H   UNK N   1      36.801   9.016  14.187  0.00  0.00     0.150 HD
ENDBRANCH  30  31
ENDBRANCH   2  30
TORSDOF 7
ENDMDL
MODEL 3
REMARK VINA RESULT:      -6.5     15.312     17.674
REMARK  7 active torsions:
REMARK  status: ('A' for Active; 'I' for Inactive)
REMARK    1  A    between atoms: C_8  and  C_9 
REMARK    2  A    between atoms: C_10  and  C_11 
REMARK    3  A    between atoms: C_11  and  N_12 
REMARK    4  A    between atoms: C_13  and  N_14 
REMARK    5  A    between atoms: C_17  and  C_20 
REMARK    6  A    between atoms: C_22  and  O_23 
REMARK    7  A    between atoms: C_26  and  O_28 
ROOT
HETATM    1  C   UNK N   1      35.565  12.271  12.571  0.00  0.00     0.057 A 
HETATM    2  C   UNK N   1      36.289  11.182  12.000  0.00  0.00     0.030 A 
HETATM    3  C   UNK N   1      36.259  11.030  10.596  0.00  0.00     0.110 A 
HETATM    4  N   UNK N   1      34.912  13.100  11.728  0.00  0.00    -0.340 N 
ATOM      5  HN  UNK N   1      34.397  13.884  12.128  1.00  0.00     0.167 HD
HETATM    6  C   UNK N   1      34.901  12.949  10.387  0.00  0.00     0.117 A 
HETATM    7  N   UNK N   1      35.571  11.910   9.823  0.00  0.00    -0.328 N 
ATOM      8  HN  UNK N   1      35.556  11.790   8.811  1.00  0.00     0.169 HD
ENDROOT
BRANCH   6   9
HETATM    9  C   UNK N   1      34.206  13.956   9.571  0.00  0.00     0.013 A 
HETATM   10  C   UNK N   1      34.399  15.327   9.767  0.00  0.00     0.052 A 
HETATM   11  C   UNK N   1      33.693  16.261   8.983  0.00  0.00     0.071 A 
HETATM   12  C   UNK N   1      32.786  15.808   8.017  0.00  0.00     0.073 A 
HETATM   13  C   UNK N   1      32.583  14.441   7.816  0.00  0.00     0.071 A 
HETATM   14  C   UNK N   1      33.299  13.524   8.594  0.00  0.00     0.052 A 
BRANCH  11  15
HETATM   15  O   UNK N   1      33.871  17.594   9.138  0.00  0.00    -0.356 OA
HETATM   16  C   UNK N   1      34.532  18.378   8.221  0.00  0.00     0.210 C 
ENDBRANCH  11  15
BRANCH  13  17
HETATM   17  O   UNK N   1      31.695  14.031   6.878  0.00  0.00    -0.356 OA
HETATM   18  C   UNK N   1      30.961  14.903   6.103  0.00  0.00     0.210 C 
ENDBRANCH  13  17
ENDBRANCH   6   9
BRANCH   1  19
HETATM   19  C   UNK N   1      35.519  12.609  14.040  0.00  0.00     0.013 A 
HETATM   20  C   UNK N   1      34.564  12.016  14.929  0.00  0.00     0.048 A 
HETATM   21 Cl   UNK N   1      33.409  10.766  14.464  0.00  0.00    -0.083 Cl
HETATM   22  C   UNK N   1      34.520  12.406  16.267  0.00  0.00     0.048 A 
HETATM   23  C   UNK N   1      35.390  13.370  16.758  0.00  0.00     0.035 A 
HETATM   24 Cl   UNK N   1      35.283  13.857  18.435  0.00  0.00    -0.084 Cl
HETATM   25  C   UNK N   1      36.335  13.948  15.915  0.00  0.00     0.025 A 
HETATM   26  C   UNK N   1      36.397  13.570  14.572  0.00  0.00     0.017 A 
ENDBRANCH   1  19
BRANCH   3  27
HETATM   27  N   UNK N   1      36.954   9.967   9.977  0.00  0.00    -0.385 N 
HETATM   28  H   UNK N   1      36.898   9.051  10.335  0.00  0.00     0.157 HD
HETATM   29  H   UNK N   1      37.501  10.144   9.178  0.00  0.00     0.157 HD
ENDBRANCH   3  27
BRANCH   2  30
HETATM   30  C   UNK N   1      37.074  10.193  12.811  0.00  0.00     0.156 C 
BRANCH  30  31
HETATM   31  N   UNK N   1      36.218   9.105  13.252  0.00  0.00    -0.426 N 
HETATM   32  H   UNK N   1      35.969   8.119  13.318  0.00  0.00     0.150 HD
HETATM   33  H   UNK N   1      35.475   9.577  13.767  0.00  0.00     0.150 HD
ENDBRANCH  30  31
ENDBRANCH   2  30
TORSDOF 7
ENDMDL
MODEL 4
REMARK VINA RESULT:      -6.5     10.123     11.921
REMARK  7 active torsions:
REMARK  status: ('A' for Active; 'I' for Inactive)
REMARK    1  A    between atoms: C_8  and  C_9 
REMARK    2  A    between atoms: C_10  and  C_11 
REMARK    3  A    between atoms: C_11  and  N_12 
REMARK    4  A    between atoms: C_13  and  N_14 
REMARK    5  A    between atoms: C_17  and  C_20 
REMARK    6  A    between atoms: C_22  and  O_23 
REMARK    7  A    between atoms: C_26  and  O_28 
ROOT
HETATM    1  C   UNK N   1      29.141  17.942   6.180  0.00  0.00     0.057 A 
HETATM    2  C   UNK N   1      29.260  18.121   7.591  0.00  0.00     0.030 A 
HETATM    3  C   UNK N   1      30.373  17.543   8.241  0.00  0.00     0.110 A 
HETATM    4  N   UNK N   1      30.113  17.246   5.553  0.00  0.00    -0.340 N 
ATOM      5  HN  UNK N   1      30.039  17.120   4.544  1.00  0.00     0.167 HD
HETATM    6  C   UNK N   1      31.179  16.709   6.185  0.00  0.00     0.117 A 
HETATM    7  N   UNK N   1      31.303  16.854   7.530  0.00  0.00    -0.328 N 
ATOM      8  HN  UNK N   1      32.103  16.440   8.010  1.00  0.00     0.169 HD
ENDROOT
BRANCH   6   9
HETATM    9  C   UNK N   1      32.205  16.028   5.381  0.00  0.00     0.013 A 
HETATM   10  C   UNK N   1      31.900  15.417   4.160  0.00  0.00     0.052 A 
HETATM   11  C   UNK N   1      32.906  14.751   3.432  0.00  0.00     0.071 A 
HETATM   12  C   UNK N   1      34.207  14.691   3.945  0.00  0.00     0.073 A 
HETATM   13  C   UNK N   1      34.521  15.295   5.165  0.00  0.00     0.071 A 
HETATM   14  C   UNK N   1      33.515  15.964   5.872  0.00  0.00     0.052 A 
BRANCH  11  15
HETATM   15  O   UNK N   1      32.646  14.162   2.241  0.00  0.00    -0.356 OA
HETATM   16  C   UNK N   1      33.298  13.034   1.800  0.00  0.00     0.210 C 
ENDBRANCH  11  15
BRANCH  13  17
HETATM   17  O   UNK N   1      35.787  15.218   5.640  0.00  0.00    -0.356 OA
HETATM   18  C   UNK N   1      36.136  14.458   6.735  0.00  0.00     0.210 C 
ENDBRANCH  13  17
ENDBRANCH   6   9
BRANCH   1  19
HETATM   19  C   UNK N   1      28.045  18.521   5.320  0.00  0.00     0.013 A 
HETATM   20  C   UNK N   1      26.895  17.757   4.937  0.00  0.00     0.048 A 
HETATM   21 Cl   UNK N   1      26.557  16.115   5.486  0.00  0.00    -0.083 Cl
HETATM   22  C   UNK N   1      25.938  18.315   4.089  0.00  0.00     0.048 A 
HETATM   23  C   UNK N   1      26.082  19.607   3.603  0.00  0.00     0.035 A 
HETATM   24 Cl   UNK N   1      24.878  20.261   2.516  0.00  0.00    -0.084 Cl
HETATM   25  C   UNK N   1      27.185  20.371   3.976  0.00  0.00     0.025 A 
HETATM   26  C   UNK N   1      28.154  19.832   4.824  0.00  0.00     0.017 A 
ENDBRANCH   1  19
BRANCH   3  27
HETATM   27  N   UNK N   1      30.539  17.684   9.637  0.00  0.00    -0.385 N 
HETATM   28  H   UNK N   1      30.964  16.974  10.169  0.00  0.00     0.157 HD
HETATM   29  H   UNK N   1      30.225  18.504  10.082  0.00  0.00     0.157 HD
ENDBRANCH   3  27
BRANCH   2  30
HETATM   30  C   UNK N   1      28.266  18.885   8.416  0.00  0.00     0.156 C 
BRANCH  30  31
HETATM   31  N   UNK N   1      27.418  17.971   9.163  0.00  0.00    -0.426 N 
HETATM   32  H   UNK N   1      26.809  17.736   9.947  0.00  0.00     0.150 HD
HETATM   33  H   UNK N   1      27.445  17.113   8.613  0.00  0.00     0.150 HD
ENDBRANCH  30  31
ENDBRANCH   2  30
TORSDOF 7
ENDMDL
MODEL 5
REMARK VINA RESULT:      -6.4     11.667     12.884
REMARK  7 active torsions:
REMARK  status: ('A' for Active; 'I' for Inactive)
REMARK    1  A    between atoms: C_8  and  C_9 
REMARK    2  A    between atoms: C_10  and  C_11 
REMARK    3  A    between atoms: C_11  and  N_12 
REMARK    4  A    between atoms: C_13  and  N_14 
REMARK    5  A    between atoms: C_17  and  C_20 
REMARK    6  A    between atoms: C_22  and  O_23 
REMARK    7  A    between atoms: C_26  and  O_28 
ROOT
HETATM    1  C   UNK N   1      30.700  16.456   6.788  0.00  0.00     0.057 A 
HETATM    2  C   UNK N   1      30.056  17.430   7.609  0.00  0.00     0.030 A 
HETATM    3  C   UNK N   1      30.687  17.800   8.817  0.00  0.00     0.110 A 
HETATM    4  N   UNK N   1      31.883  15.963   7.212  0.00  0.00    -0.340 N 
ATOM      5  HN  UNK N   1      32.353  15.271   6.628  1.00  0.00     0.167 HD
HETATM    6  C   UNK N   1      32.481  16.334   8.364  0.00  0.00     0.117 A 
HETATM    7  N   UNK N   1      31.878  17.248   9.168  0.00  0.00    -0.328 N 
ATOM      8  HN  UNK N   1      32.324  17.522  10.044  1.00  0.00     0.169 HD
ENDROOT
BRANCH   6   9
HETATM    9  C   UNK N   1      33.802  15.773   8.684  0.00  0.00     0.013 A 
HETATM   10  C   UNK N   1      34.524  15.010   7.760  0.00  0.00     0.052 A 
HETATM   11  C   UNK N   1      35.774  14.466   8.115  0.00  0.00     0.071 A 
HETATM   12  C   UNK N   1      36.282  14.681   9.402  0.00  0.00     0.073 A 
HETATM   13  C   UNK N   1      35.568  15.438  10.333  0.00  0.00     0.071 A 
HETATM   14  C   UNK N   1      34.333  15.983   9.964  0.00  0.00     0.052 A 
BRANCH  11  15
HETATM   15  O   UNK N   1      36.503  13.736   7.238  0.00  0.00    -0.356 OA
HETATM   16  C   UNK N   1      36.910  14.216   6.015  0.00  0.00     0.210 C 
ENDBRANCH  11  15
BRANCH  13  17
HETATM   17  O   UNK N   1      36.081  15.626  11.572  0.00  0.00    -0.356 OA
HETATM   18  C   UNK N   1      36.009  14.678  12.569  0.00  0.00     0.210 C 
ENDBRANCH  13  17
ENDBRANCH   6   9
BRANCH   1  19
HETATM   19  C   UNK N   1      30.193  15.975   5.451  0.00  0.00     0.013 A 
HETATM   20  C   UNK N   1      30.629  16.560   4.217  0.00  0.00     0.048 A 
HETATM   21 Cl   UNK N   1      31.859  17.817   4.086  0.00  0.00    -0.083 Cl
HETATM   22  C   UNK N   1      30.086  16.123   3.009  0.00  0.00     0.048 A 
HETATM   23  C   UNK N   1      29.121  15.126   2.979  0.00  0.00     0.035 A 
HETATM   24 Cl   UNK N   1      28.440  14.628   1.447  0.00  0.00    -0.084 Cl
HETATM   25  C   UNK N   1      28.695  14.535   4.166  0.00  0.00     0.025 A 
HETATM   26  C   UNK N   1      29.227  14.956   5.386  0.00  0.00     0.017 A 
ENDBRANCH   1  19
BRANCH   3  27
HETATM   27  N   UNK N   1      30.093  18.756   9.671  0.00  0.00    -0.385 N 
HETATM   28  H   UNK N   1      30.412  18.876  10.594  0.00  0.00     0.157 HD
HETATM   29  H   UNK N   1      29.350  19.309   9.337  0.00  0.00     0.157 HD
ENDBRANCH   3  27
BRANCH   2  30
HETATM   30  C   UNK N   1      28.748  18.077   7.257  0.00  0.00     0.156 C 
BRANCH  30  31
HETATM   31  N   UNK N   1      27.639  17.269   7.735  0.00  0.00    -0.426 N 
HETATM   32  H   UNK N   1      27.244  16.416   8.129  0.00  0.00     0.150 HD
HETATM   33  H   UNK N   1      26.829  17.876   7.614  0.00  0.00     0.150 HD
ENDBRANCH  30  31
ENDBRANCH   2  30
TORSDOF 7
ENDMDL
MODEL 6
REMARK VINA RESULT:      -6.4      4.801      5.882
REMARK  7 active torsions:
REMARK  status: ('A' for Active; 'I' for Inactive)
REMARK    1  A    between atoms: C_8  and  C_9 
REMARK    2  A    between atoms: C_10  and  C_11 
REMARK    3  A    between atoms: C_11  and  N_12 
REMARK    4  A    between atoms: C_13  and  N_14 
REMARK    5  A    between atoms: C_17  and  C_20 
REMARK    6  A    between atoms: C_22  and  O_23 
REMARK    7  A    between atoms: C_26  and  O_28 
ROOT
HETATM    1  C   UNK N   1      21.601  17.446   3.694  0.00  0.00     0.057 A 
HETATM    2  C   UNK N   1      20.896  18.588   3.211  0.00  0.00     0.030 A 
HETATM    3  C   UNK N   1      21.617  19.791   3.041  0.00  0.00     0.110 A 
HETATM    4  N   UNK N   1      22.922  17.584   3.941  0.00  0.00    -0.340 N 
ATOM      5  HN  UNK N   1      23.435  16.771   4.281  1.00  0.00     0.167 HD
HETATM    6  C   UNK N   1      23.602  18.737   3.764  0.00  0.00     0.117 A 
HETATM    7  N   UNK N   1      22.945  19.840   3.320  0.00  0.00    -0.328 N 
ATOM      8  HN  UNK N   1      23.456  20.714   3.194  1.00  0.00     0.169 HD
ENDROOT
BRANCH   6   9
HETATM    9  C   UNK N   1      25.052  18.743   4.006  0.00  0.00     0.013 A 
HETATM   10  C   UNK N   1      25.697  19.835   4.597  0.00  0.00     0.052 A 
HETATM   11  C   UNK N   1      27.092  19.815   4.787  0.00  0.00     0.071 A 
HETATM   12  C   UNK N   1      27.832  18.702   4.368  0.00  0.00     0.073 A 
HETATM   13  C   UNK N   1      27.198  17.608   3.775  0.00  0.00     0.071 A 
HETATM   14  C   UNK N   1      25.809  17.636   3.602  0.00  0.00     0.052 A 
BRANCH  11  15
HETATM   15  O   UNK N   1      27.743  20.849   5.370  0.00  0.00    -0.356 OA
HETATM   16  C   UNK N   1      27.175  21.647   6.336  0.00  0.00     0.210 C 
ENDBRANCH  11  15
BRANCH  13  17
HETATM   17  O   UNK N   1      27.938  16.546   3.374  0.00  0.00    -0.356 OA
HETATM   18  C   UNK N   1      27.450  15.554   2.552  0.00  0.00     0.210 C 
ENDBRANCH  13  17
ENDBRANCH   6   9
BRANCH   1  19
HETATM   19  C   UNK N   1      21.004  16.076   3.895  0.00  0.00     0.013 A 
HETATM   20  C   UNK N   1      20.916  15.120   2.830  0.00  0.00     0.048 A 
HETATM   21 Cl   UNK N   1      21.569  15.366   1.211  0.00  0.00    -0.083 Cl
HETATM   22  C   UNK N   1      20.300  13.888   3.048  0.00  0.00     0.048 A 
HETATM   23  C   UNK N   1      19.761  13.569   4.287  0.00  0.00     0.035 A 
HETATM   24 Cl   UNK N   1      18.966  12.027   4.512  0.00  0.00    -0.084 Cl
HETATM   25  C   UNK N   1      19.848  14.478   5.338  0.00  0.00     0.025 A 
HETATM   26  C   UNK N   1      20.464  15.716   5.142  0.00  0.00     0.017 A 
ENDBRANCH   1  19
BRANCH   3  27
HETATM   27  N   UNK N   1      20.967  20.953   2.571  0.00  0.00    -0.385 N 
HETATM   28  H   UNK N   1      20.880  21.128   1.606  0.00  0.00     0.157 HD
HETATM   29  H   UNK N   1      20.597  21.597   3.216  0.00  0.00     0.157 HD
ENDBRANCH   3  27
BRANCH   2  30
HETATM   30  C   UNK N   1      19.432  18.578   2.878  0.00  0.00     0.156 C 
BRANCH  30  31
HETATM   31  N   UNK N   1      19.220  18.039   1.544  0.00  0.00    -0.426 N 
HETATM   32  H   UNK N   1      18.639  17.618   0.820  0.00  0.00     0.150 HD
HETATM   33  H   UNK N   1      20.131  18.135   1.098  0.00  0.00     0.150 HD
ENDBRANCH  30  31
ENDBRANCH   2  30
TORSDOF 7
ENDMDL
MODEL 7
REMARK VINA RESULT:      -6.4      4.830      6.855
REMARK  7 active torsions:
REMARK  status: ('A' for Active; 'I' for Inactive)
REMARK    1  A    between atoms: C_8  and  C_9 
REMARK    2  A    between atoms: C_10  and  C_11 
REMARK    3  A    between atoms: C_11  and  N_12 
REMARK    4  A    between atoms: C_13  and  N_14 
REMARK    5  A    between atoms: C_17  and  C_20 
REMARK    6  A    between atoms: C_22  and  O_23 
REMARK    7  A    between atoms: C_26  and  O_28 
ROOT
HETATM    1  C   UNK N   1      21.303  15.931   6.005  0.00  0.00     0.057 A 
HETATM    2  C   UNK N   1      20.230  16.228   5.113  0.00  0.00     0.030 A 
HETATM    3  C   UNK N   1      20.498  17.071   4.011  0.00  0.00     0.110 A 
HETATM    4  N   UNK N   1      22.513  16.460   5.728  0.00  0.00    -0.340 N 
ATOM      5  HN  UNK N   1      23.287  16.247   6.357  1.00  0.00     0.167 HD
HETATM    6  C   UNK N   1      22.759  17.255   4.665  0.00  0.00     0.117 A 
HETATM    7  N   UNK N   1      21.748  17.564   3.811  0.00  0.00    -0.328 N 
ATOM      8  HN  UNK N   1      21.930  18.172   3.013  1.00  0.00     0.169 HD
ENDROOT
BRANCH   6   9
HETATM    9  C   UNK N   1      24.136  17.718   4.434  0.00  0.00     0.013 A 
HETATM   10  C   UNK N   1      24.537  19.022   4.742  0.00  0.00     0.052 A 
HETATM   11  C   UNK N   1      25.858  19.435   4.480  0.00  0.00     0.071 A 
HETATM   12  C   UNK N   1      26.762  18.538   3.897  0.00  0.00     0.073 A 
HETATM   13  C   UNK N   1      26.370  17.235   3.584  0.00  0.00     0.071 A 
HETATM   14  C   UNK N   1      25.058  16.833   3.859  0.00  0.00     0.052 A 
BRANCH  11  15
HETATM   15  O   UNK N   1      26.281  20.686   4.780  0.00  0.00    -0.356 OA
HETATM   16  C   UNK N   1      26.681  21.063   6.042  0.00  0.00     0.210 C 
ENDBRANCH  11  15
BRANCH  13  17
HETATM   17  O   UNK N   1      27.263  16.390   3.016  0.00  0.00    -0.356 OA
HETATM   18  C   UNK N   1      28.620  16.459   3.249  0.00  0.00     0.210 C 
ENDBRANCH  13  17
ENDBRANCH   6   9
BRANCH   1  19
HETATM   19  C   UNK N   1      21.209  15.020   7.204  0.00  0.00     0.013 A 
HETATM   20  C   UNK N   1      20.683  15.467   8.461  0.00  0.00     0.048 A 
HETATM   21 Cl   UNK N   1      19.996  17.067   8.744  0.00  0.00    -0.083 Cl
HETATM   22  C   UNK N   1      20.673  14.607   9.559  0.00  0.00     0.048 A 
HETATM   23  C   UNK N   1      21.172  13.315   9.457  0.00  0.00     0.035 A 
HETATM   24 Cl   UNK N   1      21.173  12.277  10.865  0.00  0.00    -0.084 Cl
HETATM   25  C   UNK N   1      21.674  12.857   8.242  0.00  0.00     0.025 A 
HETATM   26  C   UNK N   1      21.691  13.702   7.130  0.00  0.00     0.017 A 
ENDBRANCH   1  19
BRANCH   3  27
HETATM   27  N   UNK N   1      19.472  17.403   3.099  0.00  0.00    -0.385 N 
HETATM   28  H   UNK N   1      18.832  16.722   2.790  0.00  0.00     0.157 HD
HETATM   29  H   UNK N   1      19.397  18.327   2.769  0.00  0.00     0.157 HD
ENDBRANCH   3  27
BRANCH   2  30
HETATM   30  C   UNK N   1      18.837  15.696   5.286  0.00  0.00     0.156 C 
BRANCH  30  31
HETATM   31  N   UNK N   1      18.731  14.361   4.722  0.00  0.00    -0.426 N 
HETATM   32  H   UNK N   1      18.900  13.356   4.737  0.00  0.00     0.150 HD
HETATM   33  H   UNK N   1      18.214  14.506   3.855  0.00  0.00     0.150 HD
ENDBRANCH  30  31
ENDBRANCH   2  30
TORSDOF 7
ENDMDL
MODEL 8
REMARK VINA RESULT:      -6.3      5.050      6.590
REMARK  7 active torsions:
REMARK  status: ('A' for Active; 'I' for Inactive)
REMARK    1  A    between atoms: C_8  and  C_9 
REMARK    2  A    between atoms: C_10  and  C_11 
REMARK    3  A    between atoms: C_11  and  N_12 
REMARK    4  A    between atoms: C_13  and  N_14 
REMARK    5  A    between atoms: C_17  and  C_20 
REMARK    6  A    between atoms: C_22  and  O_23 
REMARK    7  A    between atoms: C_26  and  O_28 
ROOT
HETATM    1  C   UNK N   1      21.741  17.565   3.817  0.00  0.00     0.057 A 
HETATM    2  C   UNK N   1      21.037  18.687   3.286  0.00  0.00     0.030 A 
HETATM    3  C   UNK N   1      21.767  19.869   3.035  0.00  0.00     0.110 A 
HETATM    4  N   UNK N   1      23.068  17.701   4.028  0.00  0.00    -0.340 N 
ATOM      5  HN  UNK N   1      23.580  16.902   4.402  1.00  0.00     0.167 HD
HETATM    6  C   UNK N   1      23.756  18.834   3.772  0.00  0.00     0.117 A 
HETATM    7  N   UNK N   1      23.102  19.919   3.281  0.00  0.00    -0.328 N 
ATOM      8  HN  UNK N   1      23.619  20.779   3.096  1.00  0.00     0.169 HD
ENDROOT
BRANCH   6   9
HETATM    9  C   UNK N   1      25.211  18.837   3.983  0.00  0.00     0.013 A 
HETATM   10  C   UNK N   1      26.024  17.788   3.540  0.00  0.00     0.052 A 
HETATM   11  C   UNK N   1      27.410  17.815   3.786  0.00  0.00     0.071 A 
HETATM   12  C   UNK N   1      27.968  18.890   4.489  0.00  0.00     0.073 A 
HETATM   13  C   UNK N   1      27.165  19.940   4.938  0.00  0.00     0.071 A 
HETATM   14  C   UNK N   1      25.791  19.907   4.678  0.00  0.00     0.052 A 
BRANCH  11  15
HETATM   15  O   UNK N   1      28.225  16.822   3.356  0.00  0.00    -0.356 OA
HETATM   16  C   UNK N   1      27.763  15.687   2.730  0.00  0.00     0.210 C 
ENDBRANCH  11  15
BRANCH  13  17
HETATM   17  O   UNK N   1      27.731  20.965   5.620  0.00  0.00    -0.356 OA
HETATM   18  C   UNK N   1      27.013  21.817   6.431  0.00  0.00     0.210 C 
ENDBRANCH  13  17
ENDBRANCH   6   9
BRANCH   1  19
HETATM   19  C   UNK N   1      21.134  16.215   4.107  0.00  0.00     0.013 A 
HETATM   20  C   UNK N   1      20.621  15.872   5.401  0.00  0.00     0.048 A 
HETATM   21 Cl   UNK N   1      20.536  16.983   6.768  0.00  0.00    -0.083 Cl
HETATM   22  C   UNK N   1      20.126  14.590   5.638  0.00  0.00     0.048 A 
HETATM   23  C   UNK N   1      20.123  13.630   4.635  0.00  0.00     0.035 A 
HETATM   24 Cl   UNK N   1      19.524  12.023   4.979  0.00  0.00    -0.084 Cl
HETATM   25  C   UNK N   1      20.603  13.947   3.367  0.00  0.00     0.025 A 
HETATM   26  C   UNK N   1      21.102  15.225   3.109  0.00  0.00     0.017 A 
ENDBRANCH   1  19
BRANCH   3  27
HETATM   27  N   UNK N   1      21.119  21.011   2.514  0.00  0.00    -0.385 N 
HETATM   28  H   UNK N   1      21.537  21.548   1.802  0.00  0.00     0.157 HD
HETATM   29  H   UNK N   1      20.239  21.274   2.867  0.00  0.00     0.157 HD
ENDBRANCH   3  27
BRANCH   2  30
HETATM   30  C   UNK N   1      19.566  18.674   2.985  0.00  0.00     0.156 C 
BRANCH  30  31
HETATM   31  N   UNK N   1      19.319  18.067   1.688  0.00  0.00    -0.426 N 
HETATM   32  H   UNK N   1      19.614  17.556   0.857  0.00  0.00     0.150 HD
HETATM   33  H   UNK N   1      18.330  18.247   1.522  0.00  0.00     0.150 HD
ENDBRANCH  30  31
ENDBRANCH   2  30
TORSDOF 7
ENDMDL
MODEL 9
REMARK VINA RESULT:      -6.3      4.773      7.209
REMARK  7 active torsions:
REMARK  status: ('A' for Active; 'I' for Inactive)
REMARK    1  A    between atoms: C_8  and  C_9 
REMARK    2  A    between atoms: C_10  and  C_11 
REMARK    3  A    between atoms: C_11  and  N_12 
REMARK    4  A    between atoms: C_13  and  N_14 
REMARK    5  A    between atoms: C_17  and  C_20 
REMARK    6  A    between atoms: C_22  and  O_23 
REMARK    7  A    between atoms: C_26  and  O_28 
ROOT
HETATM    1  C   UNK N   1      21.304  15.946   5.937  0.00  0.00     0.057 A 
HETATM    2  C   UNK N   1      20.231  16.246   5.045  0.00  0.00     0.030 A 
HETATM    3  C   UNK N   1      20.505  17.074   3.934  0.00  0.00     0.110 A 
HETATM    4  N   UNK N   1      22.519  16.459   5.650  0.00  0.00    -0.340 N 
ATOM      5  HN  UNK N   1      23.293  16.244   6.279  1.00  0.00     0.167 HD
HETATM    6  C   UNK N   1      22.770  17.239   4.578  0.00  0.00     0.117 A 
HETATM    7  N   UNK N   1      21.760  17.550   3.724  0.00  0.00    -0.328 N 
ATOM      8  HN  UNK N   1      21.946  18.148   2.919  1.00  0.00     0.169 HD
ENDROOT
BRANCH   6   9
HETATM    9  C   UNK N   1      24.151  17.684   4.338  0.00  0.00     0.013 A 
HETATM   10  C   UNK N   1      25.111  16.839   3.770  0.00  0.00     0.052 A 
HETATM   11  C   UNK N   1      26.431  17.293   3.582  0.00  0.00     0.071 A 
HETATM   12  C   UNK N   1      26.780  18.590   3.979  0.00  0.00     0.073 A 
HETATM   13  C   UNK N   1      25.830  19.440   4.550  0.00  0.00     0.071 A 
HETATM   14  C   UNK N   1      24.519  18.980   4.721  0.00  0.00     0.052 A 
BRANCH  11  15
HETATM   15  O   UNK N   1      27.378  16.504   3.021  0.00  0.00    -0.356 OA
HETATM   16  C   UNK N   1      27.111  15.256   2.509  0.00  0.00     0.210 C 
ENDBRANCH  11  15
BRANCH  13  17
HETATM   17  O   UNK N   1      26.197  20.688   4.930  0.00  0.00    -0.356 OA
HETATM   18  C   UNK N   1      27.283  20.940   5.739  0.00  0.00     0.210 C 
ENDBRANCH  13  17
ENDBRANCH   6   9
BRANCH   1  19
HETATM   19  C   UNK N   1      21.204  15.049   7.146  0.00  0.00     0.013 A 
HETATM   20  C   UNK N   1      20.695  15.517   8.402  0.00  0.00     0.048 A 
HETATM   21 Cl   UNK N   1      20.037  17.131   8.674  0.00  0.00    -0.083 Cl
HETATM   22  C   UNK N   1      20.680  14.669   9.508  0.00  0.00     0.048 A 
HETATM   23  C   UNK N   1      21.156  13.368   9.416  0.00  0.00     0.035 A 
HETATM   24 Cl   UNK N   1      21.150  12.344  10.834  0.00  0.00    -0.084 Cl
HETATM   25  C   UNK N   1      21.641  12.889   8.202  0.00  0.00     0.025 A 
HETATM   26  C   UNK N   1      21.663  13.722   7.082  0.00  0.00     0.017 A 
ENDBRANCH   1  19
BRANCH   3  27
HETATM   27  N   UNK N   1      19.480  17.407   3.022  0.00  0.00    -0.385 N 
HETATM   28  H   UNK N   1      19.174  16.759   2.347  0.00  0.00     0.157 HD
HETATM   29  H   UNK N   1      19.066  18.299   3.061  0.00  0.00     0.157 HD
ENDBRANCH   3  27
BRANCH   2  30
HETATM   30  C   UNK N   1      18.833  15.732   5.228  0.00  0.00     0.156 C 
BRANCH  30  31
HETATM   31  N   UNK N   1      18.715  14.383   4.698  0.00  0.00    -0.426 N 
HETATM   32  H   UNK N   1      18.802  13.371   4.773  0.00  0.00     0.150 HD
HETATM   33  H   UNK N   1      18.357  14.526   3.755  0.00  0.00     0.150 HD
ENDBRANCH  30  31
ENDBRANCH   2  30
TORSDOF 7
ENDMDL
