REMARK  5 active torsions:
REMARK  status: ('A' for Active; 'I' for Inactive)
REMARK    1  A    between atoms: C_2  and  O_3 
REMARK    2  A    between atoms: C_2  and  C_6 
REMARK    3  A    between atoms: O_3  and  C_4 
REMARK    4  A    between atoms: N_13  and  C_14 
REMARK    5  A    between atoms: C_19  and  N_20 
ROOT
HETATM    1  C   UNK N   1       0.576   1.123   0.138  0.00  0.00     0.087 A 
HETATM    2  C   UNK N   1       1.579   0.225   0.455  0.00  0.00     0.041 A 
HETATM    3  N   UNK N   1       1.085  -1.024   0.433  0.00  0.00    -0.297 N 
ATOM      4  HN  UNK N   1       1.611  -1.876   0.626  1.00  0.00     0.187 HD
HETATM    5  C   UNK N   1       3.004   0.534   0.760  0.00  0.00     0.071 C 
HETATM    6  C   UNK N   1      -0.548   0.340  -0.067  0.00  0.00     0.049 A 
HETATM    7  C   UNK N   1      -1.908   0.837  -0.438  0.00  0.00     0.071 C 
HETATM    8  N   UNK N   1      -0.202  -0.960   0.119  0.00  0.00    -0.260 N 
ENDROOT
BRANCH   8   9
HETATM    9  C   UNK N   1      -1.016  -2.145   0.013  0.00  0.00     0.056 A 
HETATM   10  C   UNK N   1      -0.424  -3.403   0.209  0.00  0.00     0.034 A 
HETATM   11  C   UNK N   1      -1.186  -4.569   0.119  0.00  0.00     0.031 A 
HETATM   12  C   UNK N   1      -2.550  -4.490  -0.164  0.00  0.00     0.025 A 
HETATM   13  C   UNK N   1      -3.152  -3.244  -0.362  0.00  0.00     0.031 A 
HETATM   14  C   UNK N   1      -2.388  -2.075  -0.276  0.00  0.00     0.034 A 
BRANCH  12  15
HETATM   15  N   UNK N   1      -3.319  -5.667  -0.246  0.00  0.00    -0.399 N 
HETATM   16  H   UNK N   1      -4.300  -5.612  -0.304  0.00  0.00     0.156 HD
HETATM   17  H   UNK N   1      -2.875  -6.545  -0.246  0.00  0.00     0.156 HD
ENDBRANCH  12  15
ENDBRANCH   8   9
BRANCH   1  18
HETATM   18  C   UNK N   1       0.726   2.589   0.029  0.00  0.00     0.297 C 
HETATM   19  O   UNK N   1      -0.216   3.286  -0.326  0.00  0.00    -0.259 OA
BRANCH  18  20
HETATM   20  O   UNK N   1       1.933   3.141   0.298  0.00  0.00    -0.318 OA
BRANCH  20  21
HETATM   21  C   UNK N   1       2.271   4.430  -0.027  0.00  0.00     0.174 C 
HETATM   22  C   UNK N   1       3.586   4.400  -0.782  0.00  0.00     0.034 C 
ENDBRANCH  20  21
ENDBRANCH  18  20
ENDBRANCH   1  18
TORSDOF 5
