MODEL 1
REMARK VINA RESULT:      -5.9      0.000      0.000
REMARK  5 active torsions:
REMARK  status: ('A' for Active; 'I' for Inactive)
REMARK    1  A    between atoms: C_2  and  O_3 
REMARK    2  A    between atoms: C_2  and  C_6 
REMARK    3  A    between atoms: O_3  and  C_4 
REMARK    4  A    between atoms: N_13  and  C_14 
REMARK    5  A    between atoms: C_19  and  N_20 
ROOT
HETATM    1  C   UNK N   1      27.454  26.641  -3.851  0.00  0.00     0.087 A 
HETATM    2  C   UNK N   1      28.732  27.150  -3.992  0.00  0.00     0.041 A 
HETATM    3  N   UNK N   1      29.615  26.138  -4.025  0.00  0.00    -0.297 N 
ATOM      4  HN  UNK N   1      30.626  26.232  -4.125  1.00  0.00     0.187 HD
HETATM    5  C   UNK N   1      29.126  28.581  -4.114  0.00  0.00     0.071 C 
HETATM    6  C   UNK N   1      27.623  25.268  -3.795  0.00  0.00     0.049 A 
HETATM    7  C   UNK N   1      26.535  24.254  -3.646  0.00  0.00     0.071 C 
HETATM    8  N   UNK N   1      28.950  24.997  -3.905  0.00  0.00    -0.260 N 
ENDROOT
BRANCH   8   9
HETATM    9  C   UNK N   1      29.624  23.723  -3.908  0.00  0.00     0.056 A 
HETATM   10  C   UNK N   1      29.488  22.878  -5.021  0.00  0.00     0.034 A 
HETATM   11  C   UNK N   1      30.133  21.640  -5.057  0.00  0.00     0.031 A 
HETATM   12  C   UNK N   1      30.923  21.235  -3.981  0.00  0.00     0.025 A 
HETATM   13  C   UNK N   1      31.066  22.066  -2.866  0.00  0.00     0.031 A 
HETATM   14  C   UNK N   1      30.417  23.305  -2.828  0.00  0.00     0.034 A 
BRANCH  12  15
HETATM   15  N   UNK N   1      31.580  19.990  -4.023  0.00  0.00    -0.399 N 
HETATM   16  H   UNK N   1      32.492  19.901  -3.663  0.00  0.00     0.156 HD
HETATM   17  H   UNK N   1      31.126  19.208  -4.411  0.00  0.00     0.156 HD
ENDBRANCH  12  15
ENDBRANCH   8   9
BRANCH   1  18
HETATM   18  C   UNK N   1      26.206  27.431  -3.803  0.00  0.00     0.297 C 
HETATM   19  O   UNK N   1      25.678  27.696  -2.730  0.00  0.00    -0.259 OA
BRANCH  18  20
HETATM   20  O   UNK N   1      25.642  27.828  -4.968  0.00  0.00    -0.318 OA
BRANCH  20  21
HETATM   21  C   UNK N   1      24.802  27.042  -5.715  0.00  0.00     0.174 C 
HETATM   22  C   UNK N   1      25.589  26.488  -6.888  0.00  0.00     0.034 C 
ENDBRANCH  20  21
ENDBRANCH  18  20
ENDBRANCH   1  18
TORSDOF 5
ENDMDL
MODEL 2
REMARK VINA RESULT:      -5.8     10.958     13.574
REMARK  5 active torsions:
REMARK  status: ('A' for Active; 'I' for Inactive)
REMARK    1  A    between atoms: C_2  and  O_3 
REMARK    2  A    between atoms: C_2  and  C_6 
REMARK    3  A    between atoms: O_3  and  C_4 
REMARK    4  A    between atoms: N_13  and  C_14 
REMARK    5  A    between atoms: C_19  and  N_20 
ROOT
HETATM    1  C   UNK N   1      30.799  17.088   6.252  0.00  0.00     0.087 A 
HETATM    2  C   UNK N   1      31.280  17.395   4.992  0.00  0.00     0.041 A 
HETATM    3  N   UNK N   1      30.299  17.949   4.260  0.00  0.00    -0.297 N 
ATOM      4  HN  UNK N   1      30.384  18.272   3.297  1.00  0.00     0.187 HD
HETATM    5  C   UNK N   1      32.663  17.188   4.479  0.00  0.00     0.071 C 
HETATM    6  C   UNK N   1      29.471  17.482   6.229  0.00  0.00     0.049 A 
HETATM    7  C   UNK N   1      28.501  17.365   7.360  0.00  0.00     0.071 C 
HETATM    8  N   UNK N   1      29.202  18.003   5.004  0.00  0.00    -0.260 N 
ENDROOT
BRANCH   8   9
HETATM    9  C   UNK N   1      27.969  18.552   4.496  0.00  0.00     0.056 A 
HETATM   10  C   UNK N   1      27.787  19.944   4.499  0.00  0.00     0.034 A 
HETATM   11  C   UNK N   1      26.607  20.507   4.009  0.00  0.00     0.031 A 
HETATM   12  C   UNK N   1      25.598  19.684   3.508  0.00  0.00     0.025 A 
HETATM   13  C   UNK N   1      25.766  18.296   3.500  0.00  0.00     0.031 A 
HETATM   14  C   UNK N   1      26.947  17.731   3.995  0.00  0.00     0.034 A 
BRANCH  12  15
HETATM   15  N   UNK N   1      24.412  20.254   3.006  0.00  0.00    -0.399 N 
HETATM   16  H   UNK N   1      24.214  20.213   2.043  0.00  0.00     0.156 HD
HETATM   17  H   UNK N   1      23.780  20.693   3.620  0.00  0.00     0.156 HD
ENDBRANCH  12  15
ENDBRANCH   8   9
BRANCH   1  18
HETATM   18  C   UNK N   1      31.578  16.492   7.357  0.00  0.00     0.297 C 
HETATM   19  O   UNK N   1      31.711  15.278   7.440  0.00  0.00    -0.259 OA
BRANCH  18  20
HETATM   20  O   UNK N   1      32.113  17.313   8.292  0.00  0.00    -0.318 OA
BRANCH  20  21
HETATM   21  C   UNK N   1      33.408  17.224   8.733  0.00  0.00     0.174 C 
HETATM   22  C   UNK N   1      34.247  18.215   7.949  0.00  0.00     0.034 C 
ENDBRANCH  20  21
ENDBRANCH  18  20
ENDBRANCH   1  18
TORSDOF 5
ENDMDL
MODEL 3
REMARK VINA RESULT:      -5.7     19.753     22.704
REMARK  5 active torsions:
REMARK  status: ('A' for Active; 'I' for Inactive)
REMARK    1  A    between atoms: C_2  and  O_3 
REMARK    2  A    between atoms: C_2  and  C_6 
REMARK    3  A    between atoms: O_3  and  C_4 
REMARK    4  A    between atoms: N_13  and  C_14 
REMARK    5  A    between atoms: C_19  and  N_20 
ROOT
HETATM    1  C   UNK N   1      36.001  13.391  15.001  0.00  0.00     0.087 A 
HETATM    2  C   UNK N   1      36.718  14.572  14.945  0.00  0.00     0.041 A 
HETATM    3  N   UNK N   1      36.680  15.060  13.694  0.00  0.00    -0.297 N 
ATOM      4  HN  UNK N   1      37.123  15.922  13.377  1.00  0.00     0.187 HD
HETATM    5  C   UNK N   1      37.423  15.254  16.066  0.00  0.00     0.071 C 
HETATM    6  C   UNK N   1      35.539  13.196  13.710  0.00  0.00     0.049 A 
HETATM    7  C   UNK N   1      34.702  12.049  13.241  0.00  0.00     0.071 C 
HETATM    8  N   UNK N   1      35.968  14.230  12.942  0.00  0.00    -0.260 N 
ENDROOT
BRANCH   8   9
HETATM    9  C   UNK N   1      35.742  14.482  11.541  0.00  0.00     0.056 A 
HETATM   10  C   UNK N   1      36.707  14.074  10.607  0.00  0.00     0.034 A 
HETATM   11  C   UNK N   1      36.515  14.298   9.242  0.00  0.00     0.031 A 
HETATM   12  C   UNK N   1      35.353  14.929   8.796  0.00  0.00     0.025 A 
HETATM   13  C   UNK N   1      34.384  15.341   9.716  0.00  0.00     0.031 A 
HETATM   14  C   UNK N   1      34.578  15.120  11.084  0.00  0.00     0.034 A 
BRANCH  12  15
HETATM   15  N   UNK N   1      35.158  15.147   7.419  0.00  0.00    -0.399 N 
HETATM   16  H   UNK N   1      35.231  14.396   6.786  0.00  0.00     0.156 HD
HETATM   17  H   UNK N   1      34.947  16.049   7.089  0.00  0.00     0.156 HD
ENDBRANCH  12  15
ENDBRANCH   8   9
BRANCH   1  18
HETATM   18  C   UNK N   1      35.783  12.564  16.206  0.00  0.00     0.297 C 
HETATM   19  O   UNK N   1      36.400  11.518  16.364  0.00  0.00    -0.259 OA
BRANCH  18  20
HETATM   20  O   UNK N   1      34.865  12.970  17.116  0.00  0.00    -0.318 OA
BRANCH  20  21
HETATM   21  C   UNK N   1      35.182  13.625  18.278  0.00  0.00     0.174 C 
HETATM   22  C   UNK N   1      35.226  12.606  19.401  0.00  0.00     0.034 C 
ENDBRANCH  20  21
ENDBRANCH  18  20
ENDBRANCH   1  18
TORSDOF 5
ENDMDL
MODEL 4
REMARK VINA RESULT:      -5.6      4.019      6.989
REMARK  5 active torsions:
REMARK  status: ('A' for Active; 'I' for Inactive)
REMARK    1  A    between atoms: C_2  and  O_3 
REMARK    2  A    between atoms: C_2  and  C_6 
REMARK    3  A    between atoms: O_3  and  C_4 
REMARK    4  A    between atoms: N_13  and  C_14 
REMARK    5  A    between atoms: C_19  and  N_20 
ROOT
HETATM    1  C   UNK N   1      27.004  22.304  -7.402  0.00  0.00     0.087 A 
HETATM    2  C   UNK N   1      25.662  22.157  -7.099  0.00  0.00     0.041 A 
HETATM    3  N   UNK N   1      25.250  23.207  -6.370  0.00  0.00    -0.297 N 
ATOM      4  HN  UNK N   1      24.305  23.352  -6.016  1.00  0.00     0.187 HD
HETATM    5  C   UNK N   1      24.761  21.043  -7.508  0.00  0.00     0.071 C 
HETATM    6  C   UNK N   1      27.372  23.498  -6.805  0.00  0.00     0.049 A 
HETATM    7  C   UNK N   1      28.734  24.113  -6.840  0.00  0.00     0.071 C 
HETATM    8  N   UNK N   1      26.281  24.021  -6.188  0.00  0.00    -0.260 N 
ENDROOT
BRANCH   8   9
HETATM    9  C   UNK N   1      26.156  25.247  -5.440  0.00  0.00     0.056 A 
HETATM   10  C   UNK N   1      25.608  26.379  -6.066  0.00  0.00     0.034 A 
HETATM   11  C   UNK N   1      25.468  27.579  -5.367  0.00  0.00     0.031 A 
HETATM   12  C   UNK N   1      25.870  27.660  -4.034  0.00  0.00     0.025 A 
HETATM   13  C   UNK N   1      26.418  26.542  -3.399  0.00  0.00     0.031 A 
HETATM   14  C   UNK N   1      26.563  25.339  -4.100  0.00  0.00     0.034 A 
BRANCH  12  15
HETATM   15  N   UNK N   1      25.720  28.870  -3.328  0.00  0.00    -0.399 N 
HETATM   16  H   UNK N   1      25.620  29.718  -3.818  0.00  0.00     0.156 HD
HETATM   17  H   UNK N   1      25.715  28.867  -2.344  0.00  0.00     0.156 HD
ENDBRANCH  12  15
ENDBRANCH   8   9
BRANCH   1  18
HETATM   18  C   UNK N   1      27.818  21.374  -8.212  0.00  0.00     0.297 C 
HETATM   19  O   UNK N   1      27.804  21.438  -9.434  0.00  0.00    -0.259 OA
BRANCH  18  20
HETATM   20  O   UNK N   1      28.553  20.431  -7.576  0.00  0.00    -0.318 OA
BRANCH  20  21
HETATM   21  C   UNK N   1      29.921  20.465  -7.483  0.00  0.00     0.174 C 
HETATM   22  C   UNK N   1      30.292  20.716  -6.035  0.00  0.00     0.034 C 
ENDBRANCH  20  21
ENDBRANCH  18  20
ENDBRANCH   1  18
TORSDOF 5
ENDMDL
MODEL 5
REMARK VINA RESULT:      -5.5     11.315     13.845
REMARK  5 active torsions:
REMARK  status: ('A' for Active; 'I' for Inactive)
REMARK    1  A    between atoms: C_2  and  O_3 
REMARK    2  A    between atoms: C_2  and  C_6 
REMARK    3  A    between atoms: O_3  and  C_4 
REMARK    4  A    between atoms: N_13  and  C_14 
REMARK    5  A    between atoms: C_19  and  N_20 
ROOT
HETATM    1  C   UNK N   1      29.946  17.504   7.278  0.00  0.00     0.087 A 
HETATM    2  C   UNK N   1      29.023  17.939   8.212  0.00  0.00     0.041 A 
HETATM    3  N   UNK N   1      27.958  18.460   7.580  0.00  0.00    -0.297 N 
ATOM      4  HN  UNK N   1      27.131  18.851   8.030  1.00  0.00     0.187 HD
HETATM    5  C   UNK N   1      29.129  17.851   9.695  0.00  0.00     0.071 C 
HETATM    6  C   UNK N   1      29.375  17.801   6.052  0.00  0.00     0.049 A 
HETATM    7  C   UNK N   1      29.980  17.526   4.713  0.00  0.00     0.071 C 
HETATM    8  N   UNK N   1      28.167  18.380   6.272  0.00  0.00    -0.260 N 
ENDROOT
BRANCH   8   9
HETATM    9  C   UNK N   1      27.197  18.858   5.320  0.00  0.00     0.056 A 
HETATM   10  C   UNK N   1      27.382  20.116   4.725  0.00  0.00     0.034 A 
HETATM   11  C   UNK N   1      26.464  20.605   3.794  0.00  0.00     0.031 A 
HETATM   12  C   UNK N   1      25.351  19.839   3.445  0.00  0.00     0.025 A 
HETATM   13  C   UNK N   1      25.154  18.585   4.030  0.00  0.00     0.031 A 
HETATM   14  C   UNK N   1      26.072  18.096   4.966  0.00  0.00     0.034 A 
BRANCH  12  15
HETATM   15  N   UNK N   1      24.430  20.331   2.499  0.00  0.00    -0.399 N 
HETATM   16  H   UNK N   1      24.049  19.726   1.822  0.00  0.00     0.156 HD
HETATM   17  H   UNK N   1      24.168  21.279   2.515  0.00  0.00     0.156 HD
ENDBRANCH  12  15
ENDBRANCH   8   9
BRANCH   1  18
HETATM   18  C   UNK N   1      31.236  16.846   7.574  0.00  0.00     0.297 C 
HETATM   19  O   UNK N   1      31.348  15.630   7.488  0.00  0.00    -0.259 OA
BRANCH  18  20
HETATM   20  O   UNK N   1      32.279  17.611   7.973  0.00  0.00    -0.318 OA
BRANCH  20  21
HETATM   21  C   UNK N   1      33.417  17.797   7.229  0.00  0.00     0.174 C 
HETATM   22  C   UNK N   1      34.499  18.339   8.142  0.00  0.00     0.034 C 
ENDBRANCH  20  21
ENDBRANCH  18  20
ENDBRANCH   1  18
TORSDOF 5
ENDMDL
MODEL 6
REMARK VINA RESULT:      -5.5     21.606     24.204
REMARK  5 active torsions:
REMARK  status: ('A' for Active; 'I' for Inactive)
REMARK    1  A    between atoms: C_2  and  O_3 
REMARK    2  A    between atoms: C_2  and  C_6 
REMARK    3  A    between atoms: O_3  and  C_4 
REMARK    4  A    between atoms: N_13  and  C_14 
REMARK    5  A    between atoms: C_19  and  N_20 
ROOT
HETATM    1  C   UNK N   1      35.125  12.108  12.617  0.00  0.00     0.087 A 
HETATM    2  C   UNK N   1      34.360  11.010  12.968  0.00  0.00     0.041 A 
HETATM    3  N   UNK N   1      34.303  10.914  14.307  0.00  0.00    -0.297 N 
ATOM      4  HN  UNK N   1      33.801  10.198  14.831  1.00  0.00     0.187 HD
HETATM    5  C   UNK N   1      33.668  10.062  12.051  0.00  0.00     0.071 C 
HETATM    6  C   UNK N   1      35.528  12.658  13.823  0.00  0.00     0.049 A 
HETATM    7  C   UNK N   1      36.381  13.874  13.991  0.00  0.00     0.071 C 
HETATM    8  N   UNK N   1      35.008  11.908  14.829  0.00  0.00    -0.260 N 
ENDROOT
BRANCH   8   9
HETATM    9  C   UNK N   1      35.137  12.079  16.255  0.00  0.00     0.056 A 
HETATM   10  C   UNK N   1      34.940  13.352  16.813  0.00  0.00     0.034 A 
HETATM   11  C   UNK N   1      35.052  13.549  18.190  0.00  0.00     0.031 A 
HETATM   12  C   UNK N   1      35.357  12.474  19.026  0.00  0.00     0.025 A 
HETATM   13  C   UNK N   1      35.557  11.202  18.483  0.00  0.00     0.031 A 
HETATM   14  C   UNK N   1      35.449  11.004  17.102  0.00  0.00     0.034 A 
BRANCH  12  15
HETATM   15  N   UNK N   1      35.461  12.674  20.416  0.00  0.00    -0.399 N 
HETATM   16  H   UNK N   1      36.307  12.989  20.807  0.00  0.00     0.156 HD
HETATM   17  H   UNK N   1      34.687  12.498  20.997  0.00  0.00     0.156 HD
ENDBRANCH  12  15
ENDBRANCH   8   9
BRANCH   1  18
HETATM   18  C   UNK N   1      35.403  12.568  11.241  0.00  0.00     0.297 C 
HETATM   19  O   UNK N   1      34.781  13.508  10.762  0.00  0.00    -0.259 OA
BRANCH  18  20
HETATM   20  O   UNK N   1      36.335  11.911  10.511  0.00  0.00    -0.318 OA
BRANCH  20  21
HETATM   21  C   UNK N   1      37.644  11.770  10.895  0.00  0.00     0.174 C 
HETATM   22  C   UNK N   1      38.353  13.089  10.657  0.00  0.00     0.034 C 
ENDBRANCH  20  21
ENDBRANCH  18  20
ENDBRANCH   1  18
TORSDOF 5
ENDMDL
MODEL 7
REMARK VINA RESULT:      -5.4     10.275     11.685
REMARK  5 active torsions:
REMARK  status: ('A' for Active; 'I' for Inactive)
REMARK    1  A    between atoms: C_2  and  O_3 
REMARK    2  A    between atoms: C_2  and  C_6 
REMARK    3  A    between atoms: O_3  and  C_4 
REMARK    4  A    between atoms: N_13  and  C_14 
REMARK    5  A    between atoms: C_19  and  N_20 
ROOT
HETATM    1  C   UNK N   1      22.273  19.084   4.024  0.00  0.00     0.087 A 
HETATM    2  C   UNK N   1      22.332  18.157   5.050  0.00  0.00     0.041 A 
HETATM    3  N   UNK N   1      23.616  17.852   5.304  0.00  0.00    -0.297 N 
ATOM      4  HN  UNK N   1      23.943  17.198   6.014  1.00  0.00     0.187 HD
HETATM    5  C   UNK N   1      21.189  17.571   5.804  0.00  0.00     0.071 C 
HETATM    6  C   UNK N   1      23.594  19.309   3.675  0.00  0.00     0.049 A 
HETATM    7  C   UNK N   1      24.073  20.240   2.608  0.00  0.00     0.071 C 
HETATM    8  N   UNK N   1      24.383  18.546   4.474  0.00  0.00    -0.260 N 
ENDROOT
BRANCH   8   9
HETATM    9  C   UNK N   1      25.821  18.437   4.502  0.00  0.00     0.056 A 
HETATM   10  C   UNK N   1      26.561  19.334   5.288  0.00  0.00     0.034 A 
HETATM   11  C   UNK N   1      27.953  19.251   5.341  0.00  0.00     0.031 A 
HETATM   12  C   UNK N   1      28.621  18.267   4.611  0.00  0.00     0.025 A 
HETATM   13  C   UNK N   1      27.896  17.368   3.823  0.00  0.00     0.031 A 
HETATM   14  C   UNK N   1      26.501  17.453   3.766  0.00  0.00     0.034 A 
BRANCH  12  15
HETATM   15  N   UNK N   1      30.025  18.179   4.672  0.00  0.00    -0.399 N 
HETATM   16  H   UNK N   1      30.547  18.035   3.849  0.00  0.00     0.156 HD
HETATM   17  H   UNK N   1      30.486  18.264   5.537  0.00  0.00     0.156 HD
ENDBRANCH  12  15
ENDBRANCH   8   9
BRANCH   1  18
HETATM   18  C   UNK N   1      21.044  19.691   3.473  0.00  0.00     0.297 C 
HETATM   19  O   UNK N   1      20.500  20.626   4.048  0.00  0.00    -0.259 OA
BRANCH  18  20
HETATM   20  O   UNK N   1      20.515  19.174   2.339  0.00  0.00    -0.318 OA
BRANCH  20  21
HETATM   21  C   UNK N   1      19.674  18.090   2.316  0.00  0.00     0.174 C 
HETATM   22  C   UNK N   1      20.158  17.137   1.240  0.00  0.00     0.034 C 
ENDBRANCH  20  21
ENDBRANCH  18  20
ENDBRANCH   1  18
TORSDOF 5
ENDMDL
MODEL 8
REMARK VINA RESULT:      -5.3     11.641     13.844
REMARK  5 active torsions:
REMARK  status: ('A' for Active; 'I' for Inactive)
REMARK    1  A    between atoms: C_2  and  O_3 
REMARK    2  A    between atoms: C_2  and  C_6 
REMARK    3  A    between atoms: O_3  and  C_4 
REMARK    4  A    between atoms: N_13  and  C_14 
REMARK    5  A    between atoms: C_19  and  N_20 
ROOT
HETATM    1  C   UNK N   1      29.079  17.609   5.869  0.00  0.00     0.087 A 
HETATM    2  C   UNK N   1      29.908  17.007   4.939  0.00  0.00     0.041 A 
HETATM    3  N   UNK N   1      31.097  16.740   5.505  0.00  0.00    -0.297 N 
ATOM      4  HN  UNK N   1      31.889  16.295   5.043  1.00  0.00     0.187 HD
HETATM    5  C   UNK N   1      29.581  16.665   3.526  0.00  0.00     0.071 C 
HETATM    6  C   UNK N   1      29.843  17.693   7.021  0.00  0.00     0.049 A 
HETATM    7  C   UNK N   1      29.401  18.270   8.327  0.00  0.00     0.071 C 
HETATM    8  N   UNK N   1      31.063  17.154   6.764  0.00  0.00    -0.260 N 
ENDROOT
BRANCH   8   9
HETATM    9  C   UNK N   1      32.198  17.005   7.641  0.00  0.00     0.056 A 
HETATM   10  C   UNK N   1      32.298  15.856   8.442  0.00  0.00     0.034 A 
HETATM   11  C   UNK N   1      33.387  15.678   9.297  0.00  0.00     0.031 A 
HETATM   12  C   UNK N   1      34.390  16.646   9.359  0.00  0.00     0.025 A 
HETATM   13  C   UNK N   1      34.302  17.795   8.567  0.00  0.00     0.031 A 
HETATM   14  C   UNK N   1      33.209  17.976   7.713  0.00  0.00     0.034 A 
BRANCH  12  15
HETATM   15  N   UNK N   1      35.492  16.461  10.216  0.00  0.00    -0.399 N 
HETATM   16  H   UNK N   1      36.243  17.097  10.198  0.00  0.00     0.156 HD
HETATM   17  H   UNK N   1      35.511  15.696  10.834  0.00  0.00     0.156 HD
ENDBRANCH  12  15
ENDBRANCH   8   9
BRANCH   1  18
HETATM   18  C   UNK N   1      27.681  18.029   5.642  0.00  0.00     0.297 C 
HETATM   19  O   UNK N   1      26.756  17.258   5.866  0.00  0.00    -0.259 OA
BRANCH  18  20
HETATM   20  O   UNK N   1      27.446  19.269   5.152  0.00  0.00    -0.318 OA
BRANCH  20  21
HETATM   21  C   UNK N   1      26.505  20.125   5.665  0.00  0.00     0.174 C 
HETATM   22  C   UNK N   1      27.227  21.301   6.295  0.00  0.00     0.034 C 
ENDBRANCH  20  21
ENDBRANCH  18  20
ENDBRANCH   1  18
TORSDOF 5
ENDMDL
MODEL 9
REMARK VINA RESULT:      -5.3     14.169     17.274
REMARK  5 active torsions:
REMARK  status: ('A' for Active; 'I' for Inactive)
REMARK    1  A    between atoms: C_2  and  O_3 
REMARK    2  A    between atoms: C_2  and  C_6 
REMARK    3  A    between atoms: O_3  and  C_4 
REMARK    4  A    between atoms: N_13  and  C_14 
REMARK    5  A    between atoms: C_19  and  N_20 
ROOT
HETATM    1  C   UNK N   1      33.999  15.486   8.772  0.00  0.00     0.087 A 
HETATM    2  C   UNK N   1      33.080  14.458   8.881  0.00  0.00     0.041 A 
HETATM    3  N   UNK N   1      31.845  14.936   8.655  0.00  0.00    -0.297 N 
ATOM      4  HN  UNK N   1      30.984  14.391   8.670  1.00  0.00     0.187 HD
HETATM    5  C   UNK N   1      33.360  13.025   9.176  0.00  0.00     0.071 C 
HETATM    6  C   UNK N   1      33.242  16.607   8.477  0.00  0.00     0.049 A 
HETATM    7  C   UNK N   1      33.769  17.989   8.259  0.00  0.00     0.071 C 
HETATM    8  N   UNK N   1      31.938  16.236   8.412  0.00  0.00    -0.260 N 
ENDROOT
BRANCH   8   9
HETATM    9  C   UNK N   1      30.774  17.039   8.129  0.00  0.00     0.056 A 
HETATM   10  C   UNK N   1      30.198  17.798   9.160  0.00  0.00     0.034 A 
HETATM   11  C   UNK N   1      29.074  18.590   8.916  0.00  0.00     0.031 A 
HETATM   12  C   UNK N   1      28.516  18.634   7.638  0.00  0.00     0.025 A 
HETATM   13  C   UNK N   1      29.079  17.883   6.603  0.00  0.00     0.031 A 
HETATM   14  C   UNK N   1      30.203  17.086   6.847  0.00  0.00     0.034 A 
BRANCH  12  15
HETATM   15  N   UNK N   1      27.388  19.440   7.393  0.00  0.00    -0.399 N 
HETATM   16  H   UNK N   1      26.486  19.047   7.418  0.00  0.00     0.156 HD
HETATM   17  H   UNK N   1      27.501  20.398   7.197  0.00  0.00     0.156 HD
ENDBRANCH  12  15
ENDBRANCH   8   9
BRANCH   1  18
HETATM   18  C   UNK N   1      35.464  15.360   8.922  0.00  0.00     0.297 C 
HETATM   19  O   UNK N   1      36.119  14.713   8.115  0.00  0.00    -0.259 OA
BRANCH  18  20
HETATM   20  O   UNK N   1      36.061  15.946   9.987  0.00  0.00    -0.318 OA
BRANCH  20  21
HETATM   21  C   UNK N   1      35.451  16.122  11.202  0.00  0.00     0.174 C 
HETATM   22  C   UNK N   1      35.802  14.940  12.085  0.00  0.00     0.034 C 
ENDBRANCH  20  21
ENDBRANCH  18  20
ENDBRANCH   1  18
TORSDOF 5
ENDMDL
