REMARK  5 active torsions:
REMARK  status: ('A' for Active; 'I' for Inactive)
REMARK    1  A    between atoms: C_6  and  C_8 
REMARK    2  A    between atoms: C_11  and  O_12 
REMARK    3  A    between atoms: C_14  and  O_16 
REMARK    4  A    between atoms: O_16  and  C_17 
REMARK    5  A    between atoms: C_17  and  C_18 
ROOT
HETATM    1  C   UNK N   1       0.684  -1.415   0.320  0.00  0.00    -0.019 A 
HETATM    2  C   UNK N   1      -0.616  -1.635  -0.147  0.00  0.00     0.013 A 
HETATM    3  C   UNK N   1      -1.463  -0.561  -0.415  0.00  0.00     0.040 A 
HETATM    4  C   UNK N   1      -1.040   0.761  -0.196  0.00  0.00     0.101 A 
HETATM    5  C   UNK N   1       0.271   0.996   0.299  0.00  0.00     0.102 A 
HETATM    6  C   UNK N   1       1.118  -0.097   0.534  0.00  0.00     0.050 A 
ENDROOT
BRANCH   1   7
HETATM    7  C   UNK N   1       1.573  -2.602   0.630  0.00  0.00     0.112 A 
HETATM    8  O   UNK N   1       1.690  -3.439  -0.468  0.00  0.00    -0.286 OA
HETATM    9  C   UNK N   1       2.973  -3.627  -0.770  0.00  0.00     0.361 A 
HETATM   10  O   UNK N   1       3.349  -4.364  -1.667  0.00  0.00    -0.238 OA
HETATM   11  N   UNK N   1       3.809  -2.961   0.016  0.00  0.00    -0.334 N 
HETATM   12  C   UNK N   1       3.045  -2.213   0.977  0.00  0.00     0.168 A 
HETATM   13  H   UNK N   1       4.791  -2.977  -0.048  0.00  0.00     0.164 HD
HETATM   14  C   UNK N   1       0.983  -3.390   1.789  0.00  0.00     0.054 C 
ENDBRANCH   1   7
BRANCH   5  15
HETATM   15  O   UNK N   1       0.755   2.240   0.564  0.00  0.00    -0.348 OA
BRANCH  15  16
HETATM   16  C   UNK N   1      -0.000   3.390   0.589  0.00  0.00     0.175 C 
BRANCH  16  17
HETATM   17  C   UNK N   1       0.454   4.332  -0.505  0.00  0.00     0.022 C 
HETATM   18  C   UNK N   1      -0.542   5.466  -0.627  0.00  0.00     0.007 C 
ENDBRANCH  16  17
ENDBRANCH  15  16
ENDBRANCH   5  15
BRANCH   4  19
HETATM   19  O   UNK N   1      -1.872   1.799  -0.464  0.00  0.00    -0.353 OA
HETATM   20  C   UNK N   1      -3.130   1.649  -1.003  0.00  0.00     0.210 C 
ENDBRANCH   4  19
TORSDOF 5
