MODEL 1
REMARK VINA RESULT:      -6.8      0.000      0.000
REMARK  5 active torsions:
REMARK  status: ('A' for Active; 'I' for Inactive)
REMARK    1  A    between atoms: C_6  and  C_8 
REMARK    2  A    between atoms: C_11  and  O_12 
REMARK    3  A    between atoms: C_14  and  O_16 
REMARK    4  A    between atoms: O_16  and  C_17 
REMARK    5  A    between atoms: C_17  and  C_18 
ROOT
HETATM    1  C   UNK N   1      32.459  17.134   6.240  0.00  0.00    -0.019 A 
HETATM    2  C   UNK N   1      32.466  17.268   4.847  0.00  0.00     0.013 A 
HETATM    3  C   UNK N   1      31.271  17.413   4.145  0.00  0.00     0.040 A 
HETATM    4  C   UNK N   1      30.036  17.400   4.815  0.00  0.00     0.101 A 
HETATM    5  C   UNK N   1      30.015  17.243   6.227  0.00  0.00     0.102 A 
HETATM    6  C   UNK N   1      31.230  17.129   6.918  0.00  0.00     0.050 A 
ENDROOT
BRANCH   1   7
HETATM    7  C   UNK N   1      33.771  16.950   6.975  0.00  0.00     0.112 A 
HETATM    8  O   UNK N   1      34.480  18.138   7.037  0.00  0.00    -0.286 OA
HETATM    9  C   UNK N   1      34.782  18.430   8.301  0.00  0.00     0.361 A 
HETATM   10  O   UNK N   1      35.447  19.401   8.624  0.00  0.00    -0.238 OA
HETATM   11  N   UNK N   1      34.317  17.548   9.177  0.00  0.00    -0.334 N 
HETATM   12  C   UNK N   1      33.602  16.522   8.467  0.00  0.00     0.168 A 
HETATM   13  H   UNK N   1      34.441  17.590  10.152  0.00  0.00     0.164 HD
HETATM   14  C   UNK N   1      34.615  15.910   6.254  0.00  0.00     0.054 C 
ENDBRANCH   1   7
BRANCH   5  15
HETATM   15  O   UNK N   1      28.866  17.194   6.954  0.00  0.00    -0.348 OA
BRANCH  15  16
HETATM   16  C   UNK N   1      28.354  18.238   7.689  0.00  0.00     0.175 C 
BRANCH  16  17
HETATM   17  C   UNK N   1      28.365  17.889   9.162  0.00  0.00     0.022 C 
HETATM   18  C   UNK N   1      29.527  18.594   9.829  0.00  0.00     0.007 C 
ENDBRANCH  16  17
ENDBRANCH  15  16
ENDBRANCH   5  15
BRANCH   4  19
HETATM   19  O   UNK N   1      28.879  17.546   4.121  0.00  0.00    -0.353 OA
HETATM   20  C   UNK N   1      28.319  16.549   3.353  0.00  0.00     0.210 C 
ENDBRANCH   4  19
TORSDOF 5
ENDMDL
MODEL 2
REMARK VINA RESULT:      -5.8      1.179      3.347
REMARK  5 active torsions:
REMARK  status: ('A' for Active; 'I' for Inactive)
REMARK    1  A    between atoms: C_6  and  C_8 
REMARK    2  A    between atoms: C_11  and  O_12 
REMARK    3  A    between atoms: C_14  and  O_16 
REMARK    4  A    between atoms: O_16  and  C_17 
REMARK    5  A    between atoms: C_17  and  C_18 
ROOT
HETATM    1  C   UNK N   1      32.024  17.142   6.844  0.00  0.00    -0.019 A 
HETATM    2  C   UNK N   1      31.116  17.385   7.880  0.00  0.00     0.013 A 
HETATM    3  C   UNK N   1      29.757  17.539   7.609  0.00  0.00     0.040 A 
HETATM    4  C   UNK N   1      29.276  17.481   6.290  0.00  0.00     0.101 A 
HETATM    5  C   UNK N   1      30.192  17.257   5.227  0.00  0.00     0.102 A 
HETATM    6  C   UNK N   1      31.551  17.075   5.524  0.00  0.00     0.050 A 
ENDROOT
BRANCH   1   7
HETATM    7  C   UNK N   1      33.498  17.007   7.165  0.00  0.00     0.112 A 
HETATM    8  O   UNK N   1      34.120  18.245   7.188  0.00  0.00    -0.286 OA
HETATM    9  C   UNK N   1      34.745  18.425   8.350  0.00  0.00     0.361 A 
HETATM   10  O   UNK N   1      35.412  19.415   8.606  0.00  0.00    -0.238 OA
HETATM   11  N   UNK N   1      34.602  17.413   9.196  0.00  0.00    -0.334 N 
HETATM   12  C   UNK N   1      33.783  16.405   8.578  0.00  0.00     0.168 A 
HETATM   13  H   UNK N   1      34.992  17.360  10.097  0.00  0.00     0.164 HD
HETATM   14  C   UNK N   1      34.170  16.139   6.113  0.00  0.00     0.054 C 
ENDBRANCH   1   7
BRANCH   5  15
HETATM   15  O   UNK N   1      29.818  17.211   3.919  0.00  0.00    -0.348 OA
BRANCH  15  16
HETATM   16  C   UNK N   1      29.838  16.082   3.133  0.00  0.00     0.175 C 
BRANCH  16  17
HETATM   17  C   UNK N   1      28.427  15.692   2.751  0.00  0.00     0.022 C 
HETATM   18  C   UNK N   1      28.481  14.559   1.747  0.00  0.00     0.007 C 
ENDBRANCH  16  17
ENDBRANCH  15  16
ENDBRANCH   5  15
BRANCH   4  19
HETATM   19  O   UNK N   1      27.951  17.629   6.038  0.00  0.00    -0.353 OA
HETATM   20  C   UNK N   1      27.034  16.608   6.153  0.00  0.00     0.210 C 
ENDBRANCH   4  19
TORSDOF 5
ENDMDL
MODEL 3
REMARK VINA RESULT:      -5.7     12.979     15.126
REMARK  5 active torsions:
REMARK  status: ('A' for Active; 'I' for Inactive)
REMARK    1  A    between atoms: C_6  and  C_8 
REMARK    2  A    between atoms: C_11  and  O_12 
REMARK    3  A    between atoms: C_14  and  O_16 
REMARK    4  A    between atoms: O_16  and  C_17 
REMARK    5  A    between atoms: C_17  and  C_18 
ROOT
HETATM    1  C   UNK N   1      26.763  27.862  -4.082  0.00  0.00    -0.019 A 
HETATM    2  C   UNK N   1      25.866  27.864  -5.155  0.00  0.00     0.013 A 
HETATM    3  C   UNK N   1      25.350  26.667  -5.649  0.00  0.00     0.040 A 
HETATM    4  C   UNK N   1      25.740  25.434  -5.098  0.00  0.00     0.101 A 
HETATM    5  C   UNK N   1      26.667  25.418  -4.022  0.00  0.00     0.102 A 
HETATM    6  C   UNK N   1      27.152  26.635  -3.520  0.00  0.00     0.050 A 
ENDROOT
BRANCH   1   7
HETATM    7  C   UNK N   1      27.330  29.176  -3.585  0.00  0.00     0.112 A 
HETATM    8  O   UNK N   1      27.109  29.333  -2.226  0.00  0.00    -0.286 OA
HETATM    9  C   UNK N   1      28.259  29.565  -1.596  0.00  0.00     0.361 A 
HETATM   10  O   UNK N   1      28.333  29.789  -0.398  0.00  0.00    -0.238 OA
HETATM   11  N   UNK N   1      29.316  29.562  -2.397  0.00  0.00    -0.334 N 
HETATM   12  C   UNK N   1      28.879  29.292  -3.740  0.00  0.00     0.168 A 
HETATM   13  H   UNK N   1      30.247  29.718  -2.118  0.00  0.00     0.164 HD
HETATM   14  C   UNK N   1      26.670  30.327  -4.327  0.00  0.00     0.054 C 
ENDBRANCH   1   7
BRANCH   5  15
HETATM   15  O   UNK N   1      27.119  24.271  -3.445  0.00  0.00    -0.348 OA
BRANCH  15  16
HETATM   16  C   UNK N   1      28.405  23.791  -3.548  0.00  0.00     0.175 C 
BRANCH  16  17
HETATM   17  C   UNK N   1      28.818  23.133  -2.250  0.00  0.00     0.022 C 
HETATM   18  C   UNK N   1      30.312  22.886  -2.273  0.00  0.00     0.007 C 
ENDBRANCH  16  17
ENDBRANCH  15  16
ENDBRANCH   5  15
BRANCH   4  19
HETATM   19  O   UNK N   1      25.228  24.275  -5.584  0.00  0.00    -0.353 OA
HETATM   20  C   UNK N   1      25.849  23.511  -6.547  0.00  0.00     0.210 C 
ENDBRANCH   4  19
TORSDOF 5
ENDMDL
MODEL 4
REMARK VINA RESULT:      -5.5      8.980     12.427
REMARK  5 active torsions:
REMARK  status: ('A' for Active; 'I' for Inactive)
REMARK    1  A    between atoms: C_6  and  C_8 
REMARK    2  A    between atoms: C_11  and  O_12 
REMARK    3  A    between atoms: C_14  and  O_16 
REMARK    4  A    between atoms: O_16  and  C_17 
REMARK    5  A    between atoms: C_17  and  C_18 
ROOT
HETATM    1  C   UNK N   1      20.462  14.992   8.669  0.00  0.00    -0.019 A 
HETATM    2  C   UNK N   1      19.993  14.286   9.782  0.00  0.00     0.013 A 
HETATM    3  C   UNK N   1      20.721  13.215  10.298  0.00  0.00     0.040 A 
HETATM    4  C   UNK N   1      21.923  12.805   9.697  0.00  0.00     0.101 A 
HETATM    5  C   UNK N   1      22.398  13.502   8.552  0.00  0.00     0.102 A 
HETATM    6  C   UNK N   1      21.666  14.595   8.067  0.00  0.00     0.050 A 
ENDROOT
BRANCH   1   7
HETATM    7  C   UNK N   1      19.636  16.134   8.112  0.00  0.00     0.112 A 
HETATM    8  O   UNK N   1      18.343  16.104   8.609  0.00  0.00    -0.286 OA
HETATM    9  C   UNK N   1      18.038  17.271   9.173  0.00  0.00     0.361 A 
HETATM   10  O   UNK N   1      16.940  17.522   9.643  0.00  0.00    -0.238 OA
HETATM   11  N   UNK N   1      19.032  18.150   9.149  0.00  0.00    -0.334 N 
HETATM   12  C   UNK N   1      20.168  17.548   8.508  0.00  0.00     0.168 A 
HETATM   13  H   UNK N   1      18.996  19.065   9.511  0.00  0.00     0.164 HD
HETATM   14  C   UNK N   1      19.583  16.031   6.596  0.00  0.00     0.054 C 
ENDBRANCH   1   7
BRANCH   5  15
HETATM   15  O   UNK N   1      23.537  13.159   7.892  0.00  0.00    -0.348 OA
BRANCH  15  16
HETATM   16  C   UNK N   1      24.798  13.603   8.214  0.00  0.00     0.175 C 
BRANCH  16  17
HETATM   17  C   UNK N   1      25.574  13.920   6.953  0.00  0.00     0.022 C 
HETATM   18  C   UNK N   1      25.105  13.006   5.841  0.00  0.00     0.007 C 
ENDBRANCH  16  17
ENDBRANCH  15  16
ENDBRANCH   5  15
BRANCH   4  19
HETATM   19  O   UNK N   1      22.625  11.764  10.210  0.00  0.00    -0.353 OA
HETATM   20  C   UNK N   1      23.318  11.822  11.398  0.00  0.00     0.210 C 
ENDBRANCH   4  19
TORSDOF 5
ENDMDL
MODEL 5
REMARK VINA RESULT:      -5.3      3.772      6.496
REMARK  5 active torsions:
REMARK  status: ('A' for Active; 'I' for Inactive)
REMARK    1  A    between atoms: C_6  and  C_8 
REMARK    2  A    between atoms: C_11  and  O_12 
REMARK    3  A    between atoms: C_14  and  O_16 
REMARK    4  A    between atoms: O_16  and  C_17 
REMARK    5  A    between atoms: C_17  and  C_18 
ROOT
HETATM    1  C   UNK N   1      27.820  18.493   4.635  0.00  0.00    -0.019 A 
HETATM    2  C   UNK N   1      27.669  17.517   3.645  0.00  0.00     0.013 A 
HETATM    3  C   UNK N   1      28.529  16.421   3.596  0.00  0.00     0.040 A 
HETATM    4  C   UNK N   1      29.579  16.288   4.520  0.00  0.00     0.101 A 
HETATM    5  C   UNK N   1      29.755  17.285   5.517  0.00  0.00     0.102 A 
HETATM    6  C   UNK N   1      28.861  18.365   5.568  0.00  0.00     0.050 A 
ENDROOT
BRANCH   1   7
HETATM    7  C   UNK N   1      26.889  19.689   4.647  0.00  0.00     0.112 A 
HETATM    8  O   UNK N   1      26.801  20.266   3.390  0.00  0.00    -0.286 OA
HETATM    9  C   UNK N   1      25.529  20.342   3.005  0.00  0.00     0.361 A 
HETATM   10  O   UNK N   1      25.176  20.856   1.956  0.00  0.00    -0.238 OA
HETATM   11  N   UNK N   1      24.675  19.832   3.883  0.00  0.00    -0.334 N 
HETATM   12  C   UNK N   1      25.412  19.334   5.012  0.00  0.00     0.168 A 
HETATM   13  H   UNK N   1      23.696  19.801   3.779  0.00  0.00     0.164 HD
HETATM   14  C   UNK N   1      27.406  20.726   5.630  0.00  0.00     0.054 C 
ENDBRANCH   1   7
BRANCH   5  15
HETATM   15  O   UNK N   1      30.758  17.250   6.436  0.00  0.00    -0.348 OA
BRANCH  15  16
HETATM   16  C   UNK N   1      30.603  16.907   7.759  0.00  0.00     0.175 C 
BRANCH  16  17
HETATM   17  C   UNK N   1      31.055  18.047   8.647  0.00  0.00     0.022 C 
HETATM   18  C   UNK N   1      29.855  18.614   9.376  0.00  0.00     0.007 C 
ENDBRANCH  16  17
ENDBRANCH  15  16
ENDBRANCH   5  15
BRANCH   4  19
HETATM   19  O   UNK N   1      30.407  15.214   4.465  0.00  0.00    -0.353 OA
HETATM   20  C   UNK N   1      30.749  14.573   3.296  0.00  0.00     0.210 C 
ENDBRANCH   4  19
TORSDOF 5
ENDMDL
MODEL 6
REMARK VINA RESULT:      -5.3     11.785     14.086
REMARK  5 active torsions:
REMARK  status: ('A' for Active; 'I' for Inactive)
REMARK    1  A    between atoms: C_6  and  C_8 
REMARK    2  A    between atoms: C_11  and  O_12 
REMARK    3  A    between atoms: C_14  and  O_16 
REMARK    4  A    between atoms: O_16  and  C_17 
REMARK    5  A    between atoms: C_17  and  C_18 
ROOT
HETATM    1  C   UNK N   1      35.277  11.221  18.924  0.00  0.00    -0.019 A 
HETATM    2  C   UNK N   1      35.205  12.616  18.985  0.00  0.00     0.013 A 
HETATM    3  C   UNK N   1      35.328  13.382  17.827  0.00  0.00     0.040 A 
HETATM    4  C   UNK N   1      35.555  12.773  16.581  0.00  0.00     0.101 A 
HETATM    5  C   UNK N   1      35.652  11.357  16.510  0.00  0.00     0.102 A 
HETATM    6  C   UNK N   1      35.496  10.602  17.682  0.00  0.00     0.050 A 
ENDROOT
BRANCH   1   7
HETATM    7  C   UNK N   1      35.168  10.414  20.202  0.00  0.00     0.112 A 
HETATM    8  O   UNK N   1      34.274  10.997  21.085  0.00  0.00    -0.286 OA
HETATM    9  C   UNK N   1      33.341  10.117  21.444  0.00  0.00     0.361 A 
HETATM   10  O   UNK N   1      32.463  10.364  22.254  0.00  0.00    -0.238 OA
HETATM   11  N   UNK N   1      33.474   8.932  20.862  0.00  0.00    -0.334 N 
HETATM   12  C   UNK N   1      34.616   8.969  19.990  0.00  0.00     0.168 A 
HETATM   13  H   UNK N   1      32.886   8.155  21.004  0.00  0.00     0.164 HD
HETATM   14  C   UNK N   1      36.533  10.330  20.868  0.00  0.00     0.054 C 
ENDBRANCH   1   7
BRANCH   5  15
HETATM   15  O   UNK N   1      35.896  10.685  15.353  0.00  0.00    -0.348 OA
BRANCH  15  16
HETATM   16  C   UNK N   1      35.026   9.799  14.759  0.00  0.00     0.175 C 
BRANCH  16  17
HETATM   17  C   UNK N   1      33.858  10.546  14.153  0.00  0.00     0.022 C 
HETATM   18  C   UNK N   1      33.861  10.338  12.653  0.00  0.00     0.007 C 
ENDBRANCH  16  17
ENDBRANCH  15  16
ENDBRANCH   5  15
BRANCH   4  19
HETATM   19  O   UNK N   1      35.670  13.529  15.460  0.00  0.00    -0.353 OA
HETATM   20  C   UNK N   1      36.803  14.239  15.132  0.00  0.00     0.210 C 
ENDBRANCH   4  19
TORSDOF 5
ENDMDL
MODEL 7
REMARK VINA RESULT:      -5.2      1.801      2.228
REMARK  5 active torsions:
REMARK  status: ('A' for Active; 'I' for Inactive)
REMARK    1  A    between atoms: C_6  and  C_8 
REMARK    2  A    between atoms: C_11  and  O_12 
REMARK    3  A    between atoms: C_14  and  O_16 
REMARK    4  A    between atoms: O_16  and  C_17 
REMARK    5  A    between atoms: C_17  and  C_18 
ROOT
HETATM    1  C   UNK N   1      31.061  16.152   6.764  0.00  0.00    -0.019 A 
HETATM    2  C   UNK N   1      30.665  15.289   5.737  0.00  0.00     0.013 A 
HETATM    3  C   UNK N   1      29.366  15.340   5.232  0.00  0.00     0.040 A 
HETATM    4  C   UNK N   1      28.423  16.236   5.761  0.00  0.00     0.101 A 
HETATM    5  C   UNK N   1      28.808  17.102   6.820  0.00  0.00     0.102 A 
HETATM    6  C   UNK N   1      30.127  17.056   7.294  0.00  0.00     0.050 A 
ENDROOT
BRANCH   1   7
HETATM    7  C   UNK N   1      32.470  16.055   7.313  0.00  0.00     0.112 A 
HETATM    8  O   UNK N   1      33.239  17.135   6.910  0.00  0.00    -0.286 OA
HETATM    9  C   UNK N   1      33.770  17.744   7.968  0.00  0.00     0.361 A 
HETATM   10  O   UNK N   1      34.529  18.695   7.882  0.00  0.00    -0.238 OA
HETATM   11  N   UNK N   1      33.420  17.201   9.127  0.00  0.00    -0.334 N 
HETATM   12  C   UNK N   1      32.542  16.091   8.873  0.00  0.00     0.168 A 
HETATM   13  H   UNK N   1      33.714  17.507  10.015  0.00  0.00     0.164 HD
HETATM   14  C   UNK N   1      33.122  14.774   6.817  0.00  0.00     0.054 C 
ENDBRANCH   1   7
BRANCH   5  15
HETATM   15  O   UNK N   1      27.954  17.983   7.409  0.00  0.00    -0.348 OA
BRANCH  15  16
HETATM   16  C   UNK N   1      28.091  19.352   7.380  0.00  0.00     0.175 C 
BRANCH  16  17
HETATM   17  C   UNK N   1      27.444  19.911   6.132  0.00  0.00     0.022 C 
HETATM   18  C   UNK N   1      27.340  21.417   6.260  0.00  0.00     0.007 C 
ENDBRANCH  16  17
ENDBRANCH  15  16
ENDBRANCH   5  15
BRANCH   4  19
HETATM   19  O   UNK N   1      27.163  16.279   5.259  0.00  0.00    -0.353 OA
HETATM   20  C   UNK N   1      26.857  16.762   4.006  0.00  0.00     0.210 C 
ENDBRANCH   4  19
TORSDOF 5
ENDMDL
MODEL 8
REMARK VINA RESULT:      -5.1      2.543      3.690
REMARK  5 active torsions:
REMARK  status: ('A' for Active; 'I' for Inactive)
REMARK    1  A    between atoms: C_6  and  C_8 
REMARK    2  A    between atoms: C_11  and  O_12 
REMARK    3  A    between atoms: C_14  and  O_16 
REMARK    4  A    between atoms: O_16  and  C_17 
REMARK    5  A    between atoms: C_17  and  C_18 
ROOT
HETATM    1  C   UNK N   1      33.015  16.355   5.760  0.00  0.00    -0.019 A 
HETATM    2  C   UNK N   1      32.576  17.538   5.156  0.00  0.00     0.013 A 
HETATM    3  C   UNK N   1      31.627  17.502   4.136  0.00  0.00     0.040 A 
HETATM    4  C   UNK N   1      31.114  16.279   3.674  0.00  0.00     0.101 A 
HETATM    5  C   UNK N   1      31.568  15.069   4.264  0.00  0.00     0.102 A 
HETATM    6  C   UNK N   1      32.501  15.129   5.310  0.00  0.00     0.050 A 
ENDROOT
BRANCH   1   7
HETATM    7  C   UNK N   1      34.068  16.422   6.847  0.00  0.00     0.112 A 
HETATM    8  O   UNK N   1      34.676  17.667   6.878  0.00  0.00    -0.286 OA
HETATM    9  C   UNK N   1      34.589  18.193   8.098  0.00  0.00     0.361 A 
HETATM   10  O   UNK N   1      35.090  19.263   8.403  0.00  0.00    -0.238 OA
HETATM   11  N   UNK N   1      33.932  17.430   8.962  0.00  0.00    -0.334 N 
HETATM   12  C   UNK N   1      33.497  16.237   8.289  0.00  0.00     0.168 A 
HETATM   13  H   UNK N   1      33.769  17.646   9.908  0.00  0.00     0.164 HD
HETATM   14  C   UNK N   1      35.128  15.362   6.594  0.00  0.00     0.054 C 
ENDBRANCH   1   7
BRANCH   5  15
HETATM   15  O   UNK N   1      31.145  13.839   3.863  0.00  0.00    -0.348 OA
BRANCH  15  16
HETATM   16  C   UNK N   1      30.152  13.110   4.475  0.00  0.00     0.175 C 
BRANCH  16  17
HETATM   17  C   UNK N   1      29.491  12.191   3.471  0.00  0.00     0.022 C 
HETATM   18  C   UNK N   1      29.702  12.745   2.077  0.00  0.00     0.007 C 
ENDBRANCH  16  17
ENDBRANCH  15  16
ENDBRANCH   5  15
BRANCH   4  19
HETATM   19  O   UNK N   1      30.187  16.256   2.682  0.00  0.00    -0.353 OA
HETATM   20  C   UNK N   1      28.830  16.316   2.904  0.00  0.00     0.210 C 
ENDBRANCH   4  19
TORSDOF 5
ENDMDL
MODEL 9
REMARK VINA RESULT:      -5.1      2.817      4.366
REMARK  5 active torsions:
REMARK  status: ('A' for Active; 'I' for Inactive)
REMARK    1  A    between atoms: C_6  and  C_8 
REMARK    2  A    between atoms: C_11  and  O_12 
REMARK    3  A    between atoms: C_14  and  O_16 
REMARK    4  A    between atoms: O_16  and  C_17 
REMARK    5  A    between atoms: C_17  and  C_18 
ROOT
HETATM    1  C   UNK N   1      31.736  16.836   5.963  0.00  0.00    -0.019 A 
HETATM    2  C   UNK N   1      32.019  16.974   7.326  0.00  0.00     0.013 A 
HETATM    3  C   UNK N   1      31.042  17.430   8.209  0.00  0.00     0.040 A 
HETATM    4  C   UNK N   1      29.764  17.786   7.747  0.00  0.00     0.101 A 
HETATM    5  C   UNK N   1      29.472  17.671   6.361  0.00  0.00     0.102 A 
HETATM    6  C   UNK N   1      30.459  17.182   5.493  0.00  0.00     0.050 A 
ENDROOT
BRANCH   1   7
HETATM    7  C   UNK N   1      32.826  16.366   5.022  0.00  0.00     0.112 A 
HETATM    8  O   UNK N   1      32.577  15.080   4.572  0.00  0.00    -0.286 OA
HETATM    9  C   UNK N   1      32.580  15.048   3.241  0.00  0.00     0.361 A 
HETATM   10  O   UNK N   1      32.433  14.024   2.594  0.00  0.00    -0.238 OA
HETATM   11  N   UNK N   1      32.786  16.233   2.680  0.00  0.00    -0.334 N 
HETATM   12  C   UNK N   1      32.942  17.216   3.717  0.00  0.00     0.168 A 
HETATM   13  H   UNK N   1      32.827  16.409   1.712  0.00  0.00     0.164 HD
HETATM   14  C   UNK N   1      34.164  16.384   5.744  0.00  0.00     0.054 C 
ENDBRANCH   1   7
BRANCH   5  15
HETATM   15  O   UNK N   1      28.271  18.017   5.822  0.00  0.00    -0.348 OA
BRANCH  15  16
HETATM   16  C   UNK N   1      28.102  18.616   4.595  0.00  0.00     0.175 C 
BRANCH  16  17
HETATM   17  C   UNK N   1      27.858  20.100   4.772  0.00  0.00     0.022 C 
HETATM   18  C   UNK N   1      27.178  20.335   6.104  0.00  0.00     0.007 C 
ENDBRANCH  16  17
ENDBRANCH  15  16
ENDBRANCH   5  15
BRANCH   4  19
HETATM   19  O   UNK N   1      28.819  18.225   8.616  0.00  0.00    -0.353 OA
HETATM   20  C   UNK N   1      27.958  17.390   9.293  0.00  0.00     0.210 C 
ENDBRANCH   4  19
TORSDOF 5
ENDMDL
