REMARK  3 active torsions:
REMARK  status: ('A' for Active; 'I' for Inactive)
REMARK    1  A    between atoms: C_2  and  C_6 
REMARK    2  A    between atoms: N_10  and  C_12 
REMARK    3  A    between atoms: C_12  and  C_13 
ROOT
HETATM    1  C   UNK N   1       1.296   2.051  -0.088  0.00  0.00     0.066 A 
HETATM    2  N   UNK N   1       2.638   2.089   0.055  0.00  0.00    -0.350 N 
ATOM      3  HN  UNK N   1       3.236   2.914   0.098  1.00  0.00     0.166 HD
HETATM    4  C   UNK N   1       0.869   0.752  -0.108  0.00  0.00     0.123 A 
HETATM    5  N   UNK N   1       1.952  -0.031   0.034  0.00  0.00    -0.346 N 
HETATM    6  C   UNK N   1       3.016   0.793   0.130  0.00  0.00     0.183 A 
ENDROOT
BRANCH   5   7
HETATM    7  C   UNK N   1       1.987  -1.489   0.183  0.00  0.00     0.167 C 
BRANCH   7   8
HETATM    8  C   UNK N   1       0.631  -2.149   0.118  0.00  0.00    -0.040 A 
HETATM    9  C   UNK N   1       0.474  -3.341  -0.598  0.00  0.00     0.009 A 
HETATM   10  C   UNK N   1      -0.775  -3.972  -0.648  0.00  0.00     0.007 A 
HETATM   11  C   UNK N   1      -1.874  -3.407   0.008  0.00  0.00    -0.062 A 
HETATM   12  C   UNK N   1      -1.721  -2.224   0.731  0.00  0.00     0.007 A 
HETATM   13  C   UNK N   1      -3.205  -4.065  -0.058  0.00  0.00     0.048 C 
HETATM   14  C   UNK N   1      -0.471  -1.607   0.800  0.00  0.00     0.009 A 
ENDBRANCH   7   8
ENDBRANCH   5   7
BRANCH   1  15
HETATM   15  C   UNK N   1       0.411   3.216  -0.130  0.00  0.00     0.033 A 
HETATM   16  S   UNK N   1       0.843   4.804   0.001  0.00  0.00    -0.100 SA
HETATM   17  C   UNK N   1      -0.658   5.513  -0.067  0.00  0.00     0.050 A 
HETATM   18  C   UNK N   1      -1.578   4.462  -0.199  0.00  0.00     0.008 A 
HETATM   19  C   UNK N   1      -0.979   3.172  -0.231  0.00  0.00     0.021 A 
ENDBRANCH   1  15
TORSDOF 3
