MODEL 1
REMARK VINA RESULT:      -6.3      0.000      0.000
REMARK  3 active torsions:
REMARK  status: ('A' for Active; 'I' for Inactive)
REMARK    1  A    between atoms: C_2  and  C_6 
REMARK    2  A    between atoms: N_10  and  C_12 
REMARK    3  A    between atoms: C_12  and  C_13 
ROOT
HETATM    1  C   UNK N   1      21.680  13.935   8.723  0.00  0.00     0.066 A 
HETATM    2  N   UNK N   1      21.157  13.390   7.604  0.00  0.00    -0.350 N 
ATOM      3  HN  UNK N   1      21.229  12.422   7.290  1.00  0.00     0.166 HD
HETATM    4  C   UNK N   1      21.367  15.264   8.781  0.00  0.00     0.123 A 
HETATM    5  N   UNK N   1      20.632  15.554   7.694  0.00  0.00    -0.346 N 
HETATM    6  C   UNK N   1      20.514  14.409   6.990  0.00  0.00     0.183 A 
ENDROOT
BRANCH   5   7
HETATM    7  C   UNK N   1      19.971  16.823   7.374  0.00  0.00     0.167 C 
BRANCH   7   8
HETATM    8  C   UNK N   1      19.202  17.426   8.524  0.00  0.00    -0.040 A 
HETATM    9  C   UNK N   1      19.747  18.502   9.234  0.00  0.00     0.009 A 
HETATM   10  C   UNK N   1      19.032  19.081  10.290  0.00  0.00     0.007 A 
HETATM   11  C   UNK N   1      17.776  18.579  10.647  0.00  0.00    -0.062 A 
HETATM   12  C   UNK N   1      17.224  17.513   9.937  0.00  0.00     0.007 A 
HETATM   13  C   UNK N   1      17.023  19.181  11.779  0.00  0.00     0.048 C 
HETATM   14  C   UNK N   1      17.926  16.950   8.870  0.00  0.00     0.009 A 
ENDBRANCH   7   8
ENDBRANCH   5   7
BRANCH   1  15
HETATM   15  C   UNK N   1      22.402  13.206   9.767  0.00  0.00     0.033 A 
HETATM   16  S   UNK N   1      24.025  12.917   9.843  0.00  0.00    -0.100 SA
HETATM   17  C   UNK N   1      24.086  12.004  11.230  0.00  0.00     0.050 A 
HETATM   18  C   UNK N   1      22.763  11.900  11.685  0.00  0.00     0.008 A 
HETATM   19  C   UNK N   1      21.817  12.572  10.862  0.00  0.00     0.021 A 
ENDBRANCH   1  15
TORSDOF 3
ENDMDL
MODEL 2
REMARK VINA RESULT:      -6.1     13.618     16.656
REMARK  3 active torsions:
REMARK  status: ('A' for Active; 'I' for Inactive)
REMARK    1  A    between atoms: C_2  and  C_6 
REMARK    2  A    between atoms: N_10  and  C_12 
REMARK    3  A    between atoms: C_12  and  C_13 
ROOT
HETATM    1  C   UNK N   1      34.863  14.473  11.632  0.00  0.00     0.066 A 
HETATM    2  N   UNK N   1      34.537  13.169  11.750  0.00  0.00    -0.350 N 
ATOM      3  HN  UNK N   1      33.918  12.625  11.149  1.00  0.00     0.166 HD
HETATM    4  C   UNK N   1      35.715  14.831  12.640  0.00  0.00     0.123 A 
HETATM    5  N   UNK N   1      35.933  13.738  13.391  0.00  0.00    -0.346 N 
HETATM    6  C   UNK N   1      35.211  12.739  12.840  0.00  0.00     0.183 A 
ENDROOT
BRANCH   5   7
HETATM    7  C   UNK N   1      36.862  13.597  14.516  0.00  0.00     0.167 C 
BRANCH   7   8
HETATM    8  C   UNK N   1      36.338  12.746  15.647  0.00  0.00    -0.040 A 
HETATM    9  C   UNK N   1      36.633  11.379  15.680  0.00  0.00     0.009 A 
HETATM   10  C   UNK N   1      36.168  10.584  16.735  0.00  0.00     0.007 A 
HETATM   11  C   UNK N   1      35.397  11.152  17.755  0.00  0.00    -0.062 A 
HETATM   12  C   UNK N   1      35.107  12.516  17.732  0.00  0.00     0.007 A 
HETATM   13  C   UNK N   1      34.887  10.308  18.867  0.00  0.00     0.048 C 
HETATM   14  C   UNK N   1      35.590  13.313  16.693  0.00  0.00     0.009 A 
ENDBRANCH   7   8
ENDBRANCH   5   7
BRANCH   1  15
HETATM   15  C   UNK N   1      34.444  15.361  10.546  0.00  0.00     0.033 A 
HETATM   16  S   UNK N   1      33.211  15.117   9.476  0.00  0.00    -0.100 SA
HETATM   17  C   UNK N   1      33.382  16.473   8.531  0.00  0.00     0.050 A 
HETATM   18  C   UNK N   1      34.470  17.181   9.064  0.00  0.00     0.008 A 
HETATM   19  C   UNK N   1      35.069  16.556  10.192  0.00  0.00     0.021 A 
ENDBRANCH   1  15
TORSDOF 3
ENDMDL
MODEL 3
REMARK VINA RESULT:      -6.0     12.664     15.584
REMARK  3 active torsions:
REMARK  status: ('A' for Active; 'I' for Inactive)
REMARK    1  A    between atoms: C_2  and  C_6 
REMARK    2  A    between atoms: N_10  and  C_12 
REMARK    3  A    between atoms: C_12  and  C_13 
ROOT
HETATM    1  C   UNK N   1      34.620  16.367   9.233  0.00  0.00     0.066 A 
HETATM    2  N   UNK N   1      34.834  17.113  10.338  0.00  0.00    -0.350 N 
ATOM      3  HN  UNK N   1      34.462  18.039  10.545  1.00  0.00     0.166 HD
HETATM    4  C   UNK N   1      35.302  15.186   9.332  0.00  0.00     0.123 A 
HETATM    5  N   UNK N   1      35.940  15.186  10.514  0.00  0.00    -0.346 N 
HETATM    6  C   UNK N   1      35.649  16.360  11.112  0.00  0.00     0.183 A 
ENDROOT
BRANCH   5   7
HETATM    7  C   UNK N   1      36.707  14.092  11.116  0.00  0.00     0.167 C 
BRANCH   7   8
HETATM    8  C   UNK N   1      35.908  13.221  12.055  0.00  0.00    -0.040 A 
HETATM    9  C   UNK N   1      35.292  12.062  11.569  0.00  0.00     0.009 A 
HETATM   10  C   UNK N   1      34.564  11.236  12.436  0.00  0.00     0.007 A 
HETATM   11  C   UNK N   1      34.441  11.573  13.788  0.00  0.00    -0.062 A 
HETATM   12  C   UNK N   1      35.061  12.722  14.279  0.00  0.00     0.007 A 
HETATM   13  C   UNK N   1      33.655  10.708  14.706  0.00  0.00     0.048 C 
HETATM   14  C   UNK N   1      35.805  13.533  13.421  0.00  0.00     0.009 A 
ENDBRANCH   7   8
ENDBRANCH   5   7
BRANCH   1  15
HETATM   15  C   UNK N   1      33.729  16.720   8.127  0.00  0.00     0.033 A 
HETATM   16  S   UNK N   1      32.098  16.475   8.041  0.00  0.00    -0.100 SA
HETATM   17  C   UNK N   1      31.805  17.053   6.511  0.00  0.00     0.050 A 
HETATM   18  C   UNK N   1      33.046  17.470   6.009  0.00  0.00     0.008 A 
HETATM   19  C   UNK N   1      34.128  17.281   6.914  0.00  0.00     0.021 A 
ENDBRANCH   1  15
TORSDOF 3
ENDMDL
MODEL 4
REMARK VINA RESULT:      -6.0     12.343     15.721
REMARK  3 active torsions:
REMARK  status: ('A' for Active; 'I' for Inactive)
REMARK    1  A    between atoms: C_2  and  C_6 
REMARK    2  A    between atoms: N_10  and  C_12 
REMARK    3  A    between atoms: C_12  and  C_13 
ROOT
HETATM    1  C   UNK N   1      34.449  15.862   9.981  0.00  0.00     0.066 A 
HETATM    2  N   UNK N   1      34.997  16.727  10.861  0.00  0.00    -0.350 N 
ATOM      3  HN  UNK N   1      34.839  17.732  10.927  1.00  0.00     0.166 HD
HETATM    4  C   UNK N   1      34.921  14.601  10.215  0.00  0.00     0.123 A 
HETATM    5  N   UNK N   1      35.765  14.673  11.258  0.00  0.00    -0.346 N 
HETATM    6  C   UNK N   1      35.803  15.967  11.637  0.00  0.00     0.183 A 
ENDROOT
BRANCH   5   7
HETATM    7  C   UNK N   1      36.432  13.563  11.946  0.00  0.00     0.167 C 
BRANCH   7   8
HETATM    8  C   UNK N   1      36.059  13.427  13.402  0.00  0.00    -0.040 A 
HETATM    9  C   UNK N   1      34.975  12.621  13.768  0.00  0.00     0.009 A 
HETATM   10  C   UNK N   1      34.633  12.472  15.117  0.00  0.00     0.007 A 
HETATM   11  C   UNK N   1      35.367  13.137  16.105  0.00  0.00    -0.062 A 
HETATM   12  C   UNK N   1      36.455  13.933  15.748  0.00  0.00     0.007 A 
HETATM   13  C   UNK N   1      34.996  12.994  17.537  0.00  0.00     0.048 C 
HETATM   14  C   UNK N   1      36.810  14.064  14.404  0.00  0.00     0.009 A 
ENDBRANCH   7   8
ENDBRANCH   5   7
BRANCH   1  15
HETATM   15  C   UNK N   1      33.435  16.197   8.979  0.00  0.00     0.033 A 
HETATM   16  S   UNK N   1      33.222  17.647   8.219  0.00  0.00    -0.100 SA
HETATM   17  C   UNK N   1      31.882  17.293   7.303  0.00  0.00     0.050 A 
HETATM   18  C   UNK N   1      31.556  15.959   7.592  0.00  0.00     0.008 A 
HETATM   19  C   UNK N   1      32.425  15.344   8.535  0.00  0.00     0.021 A 
ENDBRANCH   1  15
TORSDOF 3
ENDMDL
MODEL 5
REMARK VINA RESULT:      -6.0     12.919     15.870
REMARK  3 active torsions:
REMARK  status: ('A' for Active; 'I' for Inactive)
REMARK    1  A    between atoms: C_2  and  C_6 
REMARK    2  A    between atoms: N_10  and  C_12 
REMARK    3  A    between atoms: C_12  and  C_13 
ROOT
HETATM    1  C   UNK N   1      34.318  14.862  10.252  0.00  0.00     0.066 A 
HETATM    2  N   UNK N   1      33.940  13.570  10.150  0.00  0.00    -0.350 N 
ATOM      3  HN  UNK N   1      33.217  13.179   9.546  1.00  0.00     0.166 HD
HETATM    4  C   UNK N   1      35.317  14.981  11.179  0.00  0.00     0.123 A 
HETATM    5  N   UNK N   1      35.573  13.750  11.655  0.00  0.00    -0.346 N 
HETATM    6  C   UNK N   1      34.730  12.907  11.024  0.00  0.00     0.183 A 
ENDROOT
BRANCH   5   7
HETATM    7  C   UNK N   1      36.636  13.356  12.585  0.00  0.00     0.167 C 
BRANCH   7   8
HETATM    8  C   UNK N   1      36.227  13.383  14.037  0.00  0.00    -0.040 A 
HETATM    9  C   UNK N   1      36.882  14.243  14.926  0.00  0.00     0.009 A 
HETATM   10  C   UNK N   1      36.496  14.291  16.271  0.00  0.00     0.007 A 
HETATM   11  C   UNK N   1      35.464  13.469  16.735  0.00  0.00    -0.062 A 
HETATM   12  C   UNK N   1      34.801  12.616  15.852  0.00  0.00     0.007 A 
HETATM   13  C   UNK N   1      35.064  13.504  18.167  0.00  0.00     0.048 C 
HETATM   14  C   UNK N   1      35.170  12.586  14.506  0.00  0.00     0.009 A 
ENDBRANCH   7   8
ENDBRANCH   5   7
BRANCH   1  15
HETATM   15  C   UNK N   1      33.806  15.966   9.438  0.00  0.00     0.033 A 
HETATM   16  S   UNK N   1      32.362  16.033   8.641  0.00  0.00    -0.100 SA
HETATM   17  C   UNK N   1      32.512  17.516   7.907  0.00  0.00     0.050 A 
HETATM   18  C   UNK N   1      33.765  18.015   8.292  0.00  0.00     0.008 A 
HETATM   19  C   UNK N   1      34.494  17.144   9.149  0.00  0.00     0.021 A 
ENDBRANCH   1  15
TORSDOF 3
ENDMDL
MODEL 6
REMARK VINA RESULT:      -5.7     11.987     14.079
REMARK  3 active torsions:
REMARK  status: ('A' for Active; 'I' for Inactive)
REMARK    1  A    between atoms: C_2  and  C_6 
REMARK    2  A    between atoms: N_10  and  C_12 
REMARK    3  A    between atoms: C_12  and  C_13 
ROOT
HETATM    1  C   UNK N   1      35.451  14.860  10.854  0.00  0.00     0.066 A 
HETATM    2  N   UNK N   1      35.435  14.253   9.648  0.00  0.00    -0.350 N 
ATOM      3  HN  UNK N   1      35.602  13.267   9.446  1.00  0.00     0.166 HD
HETATM    4  C   UNK N   1      35.186  16.193  10.705  0.00  0.00     0.123 A 
HETATM    5  N   UNK N   1      34.992  16.422   9.395  0.00  0.00    -0.346 N 
HETATM    6  C   UNK N   1      35.147  15.238   8.768  0.00  0.00     0.183 A 
ENDROOT
BRANCH   5   7
HETATM    7  C   UNK N   1      34.571  17.674   8.759  0.00  0.00     0.167 C 
BRANCH   7   8
HETATM    8  C   UNK N   1      33.446  17.515   7.765  0.00  0.00    -0.040 A 
HETATM    9  C   UNK N   1      33.726  17.527   6.394  0.00  0.00     0.009 A 
HETATM   10  C   UNK N   1      32.692  17.359   5.464  0.00  0.00     0.007 A 
HETATM   11  C   UNK N   1      31.374  17.191   5.902  0.00  0.00    -0.062 A 
HETATM   12  C   UNK N   1      31.091  17.169   7.267  0.00  0.00     0.007 A 
HETATM   13  C   UNK N   1      30.273  17.031   4.917  0.00  0.00     0.048 C 
HETATM   14  C   UNK N   1      32.124  17.313   8.195  0.00  0.00     0.009 A 
ENDBRANCH   7   8
ENDBRANCH   5   7
BRANCH   1  15
HETATM   15  C   UNK N   1      35.638  14.191  12.142  0.00  0.00     0.033 A 
HETATM   16  S   UNK N   1      35.131  12.677  12.564  0.00  0.00    -0.100 SA
HETATM   17  C   UNK N   1      35.628  12.642  14.149  0.00  0.00     0.050 A 
HETATM   18  C   UNK N   1      36.233  13.885  14.393  0.00  0.00     0.008 A 
HETATM   19  C   UNK N   1      36.236  14.756  13.268  0.00  0.00     0.021 A 
ENDBRANCH   1  15
TORSDOF 3
ENDMDL
MODEL 7
REMARK VINA RESULT:      -5.7      9.630     10.853
REMARK  3 active torsions:
REMARK  status: ('A' for Active; 'I' for Inactive)
REMARK    1  A    between atoms: C_2  and  C_6 
REMARK    2  A    between atoms: N_10  and  C_12 
REMARK    3  A    between atoms: C_12  and  C_13 
ROOT
HETATM    1  C   UNK N   1      31.603  17.304   7.535  0.00  0.00     0.066 A 
HETATM    2  N   UNK N   1      31.763  18.037   8.658  0.00  0.00    -0.350 N 
ATOM      3  HN  UNK N   1      32.633  18.236   9.152  1.00  0.00     0.166 HD
HETATM    4  C   UNK N   1      30.280  17.267   7.192  0.00  0.00     0.123 A 
HETATM    5  N   UNK N   1      29.606  17.991   8.102  0.00  0.00    -0.346 N 
HETATM    6  C   UNK N   1      30.518  18.450   8.984  0.00  0.00     0.183 A 
ENDROOT
BRANCH   5   7
HETATM    7  C   UNK N   1      28.181  18.334   8.093  0.00  0.00     0.167 C 
BRANCH   7   8
HETATM    8  C   UNK N   1      27.696  18.924   6.791  0.00  0.00    -0.040 A 
HETATM    9  C   UNK N   1      27.713  20.311   6.609  0.00  0.00     0.009 A 
HETATM   10  C   UNK N   1      27.284  20.868   5.398  0.00  0.00     0.007 A 
HETATM   11  C   UNK N   1      26.826  20.039   4.368  0.00  0.00    -0.062 A 
HETATM   12  C   UNK N   1      26.816  18.655   4.540  0.00  0.00     0.007 A 
HETATM   13  C   UNK N   1      26.354  20.627   3.087  0.00  0.00     0.048 C 
HETATM   14  C   UNK N   1      27.265  18.099   5.739  0.00  0.00     0.009 A 
ENDBRANCH   7   8
ENDBRANCH   5   7
BRANCH   1  15
HETATM   15  C   UNK N   1      32.682  16.707   6.747  0.00  0.00     0.033 A 
HETATM   16  S   UNK N   1      34.135  16.151   7.302  0.00  0.00    -0.100 SA
HETATM   17  C   UNK N   1      34.832  15.697   5.864  0.00  0.00     0.050 A 
HETATM   18  C   UNK N   1      33.890  15.989   4.866  0.00  0.00     0.008 A 
HETATM   19  C   UNK N   1      32.684  16.559   5.361  0.00  0.00     0.021 A 
ENDBRANCH   1  15
TORSDOF 3
ENDMDL
MODEL 8
REMARK VINA RESULT:      -5.7     16.063     17.726
REMARK  3 active torsions:
REMARK  status: ('A' for Active; 'I' for Inactive)
REMARK    1  A    between atoms: C_2  and  C_6 
REMARK    2  A    between atoms: N_10  and  C_12 
REMARK    3  A    between atoms: C_12  and  C_13 
ROOT
HETATM    1  C   UNK N   1      36.670  13.025  12.813  0.00  0.00     0.066 A 
HETATM    2  N   UNK N   1      37.580  12.623  13.726  0.00  0.00    -0.350 N 
ATOM      3  HN  UNK N   1      38.568  12.423  13.573  1.00  0.00     0.166 HD
HETATM    4  C   UNK N   1      35.450  13.179  13.412  0.00  0.00     0.123 A 
HETATM    5  N   UNK N   1      35.599  12.882  14.714  0.00  0.00    -0.346 N 
HETATM    6  C   UNK N   1      36.894  12.545  14.888  0.00  0.00     0.183 A 
ENDROOT
BRANCH   5   7
HETATM    7  C   UNK N   1      34.600  13.008  15.779  0.00  0.00     0.167 C 
BRANCH   7   8
HETATM    8  C   UNK N   1      34.990  12.338  17.074  0.00  0.00    -0.040 A 
HETATM    9  C   UNK N   1      35.141  13.105  18.234  0.00  0.00     0.009 A 
HETATM   10  C   UNK N   1      35.483  12.491  19.445  0.00  0.00     0.007 A 
HETATM   11  C   UNK N   1      35.687  11.108  19.497  0.00  0.00    -0.062 A 
HETATM   12  C   UNK N   1      35.530  10.336  18.346  0.00  0.00     0.007 A 
HETATM   13  C   UNK N   1      36.068  10.454  20.777  0.00  0.00     0.048 C 
HETATM   14  C   UNK N   1      35.166  10.946  17.144  0.00  0.00     0.009 A 
ENDBRANCH   7   8
ENDBRANCH   5   7
BRANCH   1  15
HETATM   15  C   UNK N   1      36.950  13.334  11.410  0.00  0.00     0.033 A 
HETATM   16  S   UNK N   1      35.909  13.974  10.301  0.00  0.00    -0.100 SA
HETATM   17  C   UNK N   1      36.889  13.975   8.959  0.00  0.00     0.050 A 
HETATM   18  C   UNK N   1      38.118  13.443   9.376  0.00  0.00     0.008 A 
HETATM   19  C   UNK N   1      38.152  13.080  10.751  0.00  0.00     0.021 A 
ENDBRANCH   1  15
TORSDOF 3
ENDMDL
MODEL 9
REMARK VINA RESULT:      -5.6      7.129      8.781
REMARK  3 active torsions:
REMARK  status: ('A' for Active; 'I' for Inactive)
REMARK    1  A    between atoms: C_2  and  C_6 
REMARK    2  A    between atoms: N_10  and  C_12 
REMARK    3  A    between atoms: C_12  and  C_13 
ROOT
HETATM    1  C   UNK N   1      23.708  19.721   3.445  0.00  0.00     0.066 A 
HETATM    2  N   UNK N   1      23.249  20.737   2.684  0.00  0.00    -0.350 N 
ATOM      3  HN  UNK N   1      23.788  21.498   2.270  1.00  0.00     0.166 HD
HETATM    4  C   UNK N   1      22.669  18.911   3.812  0.00  0.00     0.123 A 
HETATM    5  N   UNK N   1      21.550  19.419   3.268  0.00  0.00    -0.346 N 
HETATM    6  C   UNK N   1      21.917  20.525   2.589  0.00  0.00     0.183 A 
ENDROOT
BRANCH   5   7
HETATM    7  C   UNK N   1      20.204  18.839   3.289  0.00  0.00     0.167 C 
BRANCH   7   8
HETATM    8  C   UNK N   1      20.105  17.485   2.627  0.00  0.00    -0.040 A 
HETATM    9  C   UNK N   1      20.092  17.396   1.231  0.00  0.00     0.009 A 
HETATM   10  C   UNK N   1      20.021  16.144   0.607  0.00  0.00     0.007 A 
HETATM   11  C   UNK N   1      19.950  14.978   1.378  0.00  0.00    -0.062 A 
HETATM   12  C   UNK N   1      19.972  15.061   2.770  0.00  0.00     0.007 A 
HETATM   13  C   UNK N   1      19.856  13.650   0.719  0.00  0.00     0.048 C 
HETATM   14  C   UNK N   1      20.066  16.307   3.392  0.00  0.00     0.009 A 
ENDBRANCH   7   8
ENDBRANCH   5   7
BRANCH   1  15
HETATM   15  C   UNK N   1      25.113  19.464   3.764  0.00  0.00     0.033 A 
HETATM   16  S   UNK N   1      25.734  18.158   4.561  0.00  0.00    -0.100 SA
HETATM   17  C   UNK N   1      27.338  18.589   4.605  0.00  0.00     0.050 A 
HETATM   18  C   UNK N   1      27.424  19.833   3.963  0.00  0.00     0.008 A 
HETATM   19  C   UNK N   1      26.175  20.327   3.494  0.00  0.00     0.021 A 
ENDBRANCH   1  15
TORSDOF 3
ENDMDL
