REMARK  6 active torsions:
REMARK  status: ('A' for Active; 'I' for Inactive)
REMARK    1  A    between atoms: C_1  and  C_7 
REMARK    2  A    between atoms: C_7  and  N_8 
REMARK    3  A    between atoms: C_13  and  C_14 
REMARK    4  A    between atoms: C_18  and  O_19 
REMARK    5  A    between atoms: O_19  and  C_24 
REMARK    6  A    between atoms: C_20  and  O_21 
ROOT
HETATM    1  C   UNK N   1       4.132  -0.497   0.291  0.00  0.00     0.009 A 
HETATM    2  C   UNK N   1       4.271  -1.907   0.442  0.00  0.00     0.017 A 
HETATM    3  C   UNK N   1       3.140  -2.759   0.364  0.00  0.00     0.033 A 
HETATM    4  C   UNK N   1       1.899  -2.157   0.148  0.00  0.00     0.060 A 
HETATM    5  C   UNK N   1       1.794  -0.813   0.002  0.00  0.00     0.061 A 
HETATM    6  C   UNK N   1       2.864   0.049   0.056  0.00  0.00     0.047 A 
HETATM    7  N   UNK N   1       0.672  -2.717   0.099  0.00  0.00    -0.340 N 
HETATM    8  N   UNK N   1       0.523  -0.475  -0.134  0.00  0.00    -0.340 N 
ATOM      9  HN  UNK N   1       0.138   0.460  -0.266  1.00  0.00     0.167 HD
HETATM   10  C   UNK N   1      -0.155  -1.641  -0.061  0.00  0.00     0.119 A 
HETATM   11  H   UNK N   1       0.431  -3.669   0.163  0.00  0.00     0.167 HD
ENDROOT
BRANCH  10  12
HETATM   12  C   UNK N   1      -1.637  -1.671  -0.084  0.00  0.00     0.044 A 
HETATM   13  C   UNK N   1      -2.343  -2.874  -0.169  0.00  0.00     0.018 A 
HETATM   14  C   UNK N   1      -3.741  -2.862  -0.200  0.00  0.00     0.004 A 
HETATM   15  C   UNK N   1      -4.440  -1.649  -0.152  0.00  0.00     0.040 A 
HETATM   16  C   UNK N   1      -3.759  -0.430  -0.060  0.00  0.00     0.103 A 
HETATM   17  C   UNK N   1      -2.348  -0.449  -0.010  0.00  0.00     0.113 A 
BRANCH  16  18
HETATM   18  O   UNK N   1      -4.502   0.722  -0.043  0.00  0.00    -0.343 OA
BRANCH  18  19
HETATM   19  C   UNK N   1      -4.091   2.053  -0.106  0.00  0.00     0.129 C 
HETATM   20  C   UNK N   1      -3.237   2.382  -1.321  0.00  0.00     0.032 C 
HETATM   21  C   UNK N   1      -2.237   3.431  -0.849  0.00  0.00     0.002 C 
HETATM   22  C   UNK N   1      -2.571   3.744   0.603  0.00  0.00     0.002 C 
HETATM   23  C   UNK N   1      -3.360   2.557   1.120  0.00  0.00     0.032 C 
ENDBRANCH  18  19
ENDBRANCH  16  18
BRANCH  17  24
HETATM   24  O   UNK N   1      -1.666   0.694   0.126  0.00  0.00    -0.357 OA
ATOM     25  HO  UNK N   1      -2.143   1.514   0.176  1.00  0.00     0.217 HD
ENDBRANCH  17  24
ENDBRANCH  10  12
BRANCH   1  26
HETATM   26  C   UNK N   1       5.286   0.417   0.423  0.00  0.00     0.102 C 
HETATM   27  N   UNK N   1       5.126   1.685   0.289  0.00  0.00    -0.385 N 
HETATM   28  H   UNK N   1       5.905   2.277   0.186  0.00  0.00     0.157 HD
HETATM   29  H   UNK N   1       4.218   2.066   0.289  0.00  0.00     0.157 HD
BRANCH  26  30
HETATM   30  N   UNK N   1       6.557  -0.085   0.775  0.00  0.00    -0.385 N 
HETATM   31  H   UNK N   1       6.697  -1.028   1.021  0.00  0.00     0.157 HD
HETATM   32  H   UNK N   1       7.328   0.527   0.775  0.00  0.00     0.157 HD
ENDBRANCH  26  30
ENDBRANCH   1  26
TORSDOF 6
