MODEL 1
REMARK VINA RESULT:      -7.5      0.000      0.000
REMARK  6 active torsions:
REMARK  status: ('A' for Active; 'I' for Inactive)
REMARK    1  A    between atoms: C_1  and  C_7 
REMARK    2  A    between atoms: C_7  and  N_8 
REMARK    3  A    between atoms: C_13  and  C_14 
REMARK    4  A    between atoms: C_18  and  O_19 
REMARK    5  A    between atoms: O_19  and  C_24 
REMARK    6  A    between atoms: C_20  and  O_21 
ROOT
HETATM    1  C   UNK N   1      33.092  16.646   4.696  0.00  0.00     0.009 A 
HETATM    2  C   UNK N   1      32.362  17.524   5.548  0.00  0.00     0.017 A 
HETATM    3  C   UNK N   1      32.604  17.546   6.945  0.00  0.00     0.033 A 
HETATM    4  C   UNK N   1      33.569  16.668   7.441  0.00  0.00     0.060 A 
HETATM    5  C   UNK N   1      34.255  15.846   6.608  0.00  0.00     0.061 A 
HETATM    6  C   UNK N   1      34.063  15.801   5.247  0.00  0.00     0.047 A 
HETATM    7  N   UNK N   1      33.944  16.438   8.717  0.00  0.00    -0.340 N 
HETATM    8  N   UNK N   1      35.067  15.074   7.310  0.00  0.00    -0.340 N 
ATOM      9  HN  UNK N   1      35.709  14.363   6.958  1.00  0.00     0.167 HD
HETATM   10  C   UNK N   1      34.862  15.433   8.595  0.00  0.00     0.119 A 
HETATM   11  H   UNK N   1      33.632  16.886   9.536  0.00  0.00     0.167 HD
ENDROOT
BRANCH  10  12
HETATM   12  C   UNK N   1      35.536  14.724   9.709  0.00  0.00     0.044 A 
HETATM   13  C   UNK N   1      36.880  14.348   9.630  0.00  0.00     0.018 A 
HETATM   14  C   UNK N   1      37.479  13.669  10.696  0.00  0.00     0.004 A 
HETATM   15  C   UNK N   1      36.737  13.358  11.843  0.00  0.00     0.040 A 
HETATM   16  C   UNK N   1      35.392  13.728  11.952  0.00  0.00     0.103 A 
HETATM   17  C   UNK N   1      34.798  14.430  10.880  0.00  0.00     0.113 A 
BRANCH  16  18
HETATM   18  O   UNK N   1      34.717  13.370  13.090  0.00  0.00    -0.343 OA
BRANCH  18  19
HETATM   19  C   UNK N   1      35.032  12.413  14.054  0.00  0.00     0.129 C 
HETATM   20  C   UNK N   1      34.276  11.102  13.896  0.00  0.00     0.032 C 
HETATM   21  C   UNK N   1      34.036  10.592  15.312  0.00  0.00     0.002 C 
HETATM   22  C   UNK N   1      34.715  11.572  16.260  0.00  0.00     0.002 C 
HETATM   23  C   UNK N   1      34.868  12.868  15.488  0.00  0.00     0.032 C 
ENDBRANCH  18  19
ENDBRANCH  16  18
BRANCH  17  24
HETATM   24  O   UNK N   1      33.528  14.841  10.970  0.00  0.00    -0.357 OA
ATOM     25  HO  UNK N   1      33.176  15.074  11.821  1.00  0.00     0.217 HD
ENDBRANCH  17  24
ENDBRANCH  10  12
BRANCH   1  26
HETATM   26  C   UNK N   1      32.820  16.565   3.245  0.00  0.00     0.102 C 
HETATM   27  N   UNK N   1      33.539  15.811   2.493  0.00  0.00    -0.385 N 
HETATM   28  H   UNK N   1      33.492  15.894   1.514  0.00  0.00     0.157 HD
HETATM   29  H   UNK N   1      34.142  15.146   2.900  0.00  0.00     0.157 HD
BRANCH  26  30
HETATM   30  N   UNK N   1      31.721  17.251   2.686  0.00  0.00    -0.385 N 
HETATM   31  H   UNK N   1      31.117  17.804   3.232  0.00  0.00     0.157 HD
HETATM   32  H   UNK N   1      31.553  17.174   1.719  0.00  0.00     0.157 HD
ENDBRANCH  26  30
ENDBRANCH   1  26
TORSDOF 6
ENDMDL
MODEL 2
REMARK VINA RESULT:      -7.5      8.013     12.692
REMARK  6 active torsions:
REMARK  status: ('A' for Active; 'I' for Inactive)
REMARK    1  A    between atoms: C_1  and  C_7 
REMARK    2  A    between atoms: C_7  and  N_8 
REMARK    3  A    between atoms: C_13  and  C_14 
REMARK    4  A    between atoms: C_18  and  O_19 
REMARK    5  A    between atoms: O_19  and  C_24 
REMARK    6  A    between atoms: C_20  and  O_21 
ROOT
HETATM    1  C   UNK N   1      30.505  17.145   7.866  0.00  0.00     0.009 A 
HETATM    2  C   UNK N   1      29.871  17.829   8.944  0.00  0.00     0.017 A 
HETATM    3  C   UNK N   1      28.680  18.568   8.732  0.00  0.00     0.033 A 
HETATM    4  C   UNK N   1      28.172  18.604   7.432  0.00  0.00     0.060 A 
HETATM    5  C   UNK N   1      28.791  17.940   6.425  0.00  0.00     0.061 A 
HETATM    6  C   UNK N   1      29.939  17.201   6.587  0.00  0.00     0.047 A 
HETATM    7  N   UNK N   1      27.107  19.277   6.947  0.00  0.00    -0.340 N 
HETATM    8  N   UNK N   1      28.161  18.168   5.285  0.00  0.00    -0.340 N 
ATOM      9  HN  UNK N   1      28.392  17.801   4.362  1.00  0.00     0.167 HD
HETATM   10  C   UNK N   1      27.143  18.994   5.611  0.00  0.00     0.119 A 
HETATM   11  H   UNK N   1      26.461  19.835   7.436  0.00  0.00     0.167 HD
ENDROOT
BRANCH  10  12
HETATM   12  C   UNK N   1      26.246  19.555   4.572  0.00  0.00     0.044 A 
HETATM   13  C   UNK N   1      26.743  20.307   3.504  0.00  0.00     0.018 A 
HETATM   14  C   UNK N   1      25.865  20.829   2.550  0.00  0.00     0.004 A 
HETATM   15  C   UNK N   1      24.486  20.609   2.661  0.00  0.00     0.040 A 
HETATM   16  C   UNK N   1      23.961  19.854   3.716  0.00  0.00     0.103 A 
HETATM   17  C   UNK N   1      24.854  19.313   4.666  0.00  0.00     0.113 A 
BRANCH  16  18
HETATM   18  O   UNK N   1      22.601  19.697   3.780  0.00  0.00    -0.343 OA
BRANCH  18  19
HETATM   19  C   UNK N   1      21.742  18.979   2.948  0.00  0.00     0.129 C 
HETATM   20  C   UNK N   1      20.379  19.627   2.755  0.00  0.00     0.032 C 
HETATM   21  C   UNK N   1      19.390  18.474   2.634  0.00  0.00     0.002 C 
HETATM   22  C   UNK N   1      20.198  17.185   2.686  0.00  0.00     0.002 C 
HETATM   23  C   UNK N   1      21.514  17.538   3.352  0.00  0.00     0.032 C 
ENDBRANCH  18  19
ENDBRANCH  16  18
BRANCH  17  24
HETATM   24  O   UNK N   1      24.392  18.546   5.661  0.00  0.00    -0.357 OA
ATOM     25  HO  UNK N   1      23.528  18.720   6.015  1.00  0.00     0.217 HD
ENDBRANCH  17  24
ENDBRANCH  10  12
BRANCH   1  26
HETATM   26  C   UNK N   1      31.777  16.414   8.049  0.00  0.00     0.102 C 
HETATM   27  N   UNK N   1      32.368  16.420   9.190  0.00  0.00    -0.385 N 
HETATM   28  H   UNK N   1      33.296  16.103   9.272  0.00  0.00     0.157 HD
HETATM   29  H   UNK N   1      31.890  16.745   9.987  0.00  0.00     0.157 HD
BRANCH  26  30
HETATM   30  N   UNK N   1      32.312  15.639   6.999  0.00  0.00    -0.385 N 
HETATM   31  H   UNK N   1      31.876  15.581   6.117  0.00  0.00     0.157 HD
HETATM   32  H   UNK N   1      33.146  15.140   7.151  0.00  0.00     0.157 HD
ENDBRANCH  26  30
ENDBRANCH   1  26
TORSDOF 6
ENDMDL
MODEL 3
REMARK VINA RESULT:      -7.4      3.568      8.992
REMARK  6 active torsions:
REMARK  status: ('A' for Active; 'I' for Inactive)
REMARK    1  A    between atoms: C_1  and  C_7 
REMARK    2  A    between atoms: C_7  and  N_8 
REMARK    3  A    between atoms: C_13  and  C_14 
REMARK    4  A    between atoms: C_18  and  O_19 
REMARK    5  A    between atoms: O_19  and  C_24 
REMARK    6  A    between atoms: C_20  and  O_21 
ROOT
HETATM    1  C   UNK N   1      35.495  12.595  15.596  0.00  0.00     0.009 A 
HETATM    2  C   UNK N   1      36.445  13.637  15.801  0.00  0.00     0.017 A 
HETATM    3  C   UNK N   1      36.777  14.532  14.752  0.00  0.00     0.033 A 
HETATM    4  C   UNK N   1      36.146  14.337  13.521  0.00  0.00     0.060 A 
HETATM    5  C   UNK N   1      35.242  13.341  13.353  0.00  0.00     0.061 A 
HETATM    6  C   UNK N   1      34.879  12.461  14.345  0.00  0.00     0.047 A 
HETATM    7  N   UNK N   1      36.324  14.992  12.354  0.00  0.00    -0.340 N 
HETATM    8  N   UNK N   1      34.826  13.320  12.098  0.00  0.00    -0.340 N 
ATOM      9  HN  UNK N   1      34.145  12.688  11.678  1.00  0.00     0.167 HD
HETATM   10  C   UNK N   1      35.501  14.322  11.493  0.00  0.00     0.119 A 
HETATM   11  H   UNK N   1      36.906  15.763  12.168  0.00  0.00     0.167 HD
ENDROOT
BRANCH  10  12
HETATM   12  C   UNK N   1      35.372  14.566  10.037  0.00  0.00     0.044 A 
HETATM   13  C   UNK N   1      35.651  13.567   9.100  0.00  0.00     0.018 A 
HETATM   14  C   UNK N   1      35.529  13.838   7.734  0.00  0.00     0.004 A 
HETATM   15  C   UNK N   1      35.134  15.109   7.296  0.00  0.00     0.040 A 
HETATM   16  C   UNK N   1      34.842  16.126   8.212  0.00  0.00     0.103 A 
HETATM   17  C   UNK N   1      34.948  15.841   9.591  0.00  0.00     0.113 A 
BRANCH  16  18
HETATM   18  O   UNK N   1      34.486  17.354   7.717  0.00  0.00    -0.343 OA
BRANCH  18  19
HETATM   19  C   UNK N   1      33.343  17.740   7.018  0.00  0.00     0.129 C 
HETATM   20  C   UNK N   1      32.054  17.136   7.554  0.00  0.00     0.032 C 
HETATM   21  C   UNK N   1      31.168  16.908   6.335  0.00  0.00     0.002 C 
HETATM   22  C   UNK N   1      31.924  17.446   5.128  0.00  0.00     0.002 C 
HETATM   23  C   UNK N   1      33.386  17.482   5.527  0.00  0.00     0.032 C 
ENDBRANCH  18  19
ENDBRANCH  16  18
BRANCH  17  24
HETATM   24  O   UNK N   1      34.631  16.775  10.495  0.00  0.00    -0.357 OA
ATOM     25  HO  UNK N   1      35.319  17.325  10.853  1.00  0.00     0.217 HD
ENDBRANCH  17  24
ENDBRANCH  10  12
BRANCH   1  26
HETATM   26  C   UNK N   1      35.173  11.616  16.655  0.00  0.00     0.102 C 
HETATM   27  N   UNK N   1      35.299  11.938  17.893  0.00  0.00    -0.385 N 
HETATM   28  H   UNK N   1      35.272  11.246  18.592  0.00  0.00     0.157 HD
HETATM   29  H   UNK N   1      35.422  12.882  18.143  0.00  0.00     0.157 HD
BRANCH  26  30
HETATM   30  N   UNK N   1      34.651  10.349  16.321  0.00  0.00    -0.385 N 
HETATM   31  H   UNK N   1      33.734  10.234  15.983  0.00  0.00     0.157 HD
HETATM   32  H   UNK N   1      35.222   9.554  16.429  0.00  0.00     0.157 HD
ENDBRANCH  26  30
ENDBRANCH   1  26
TORSDOF 6
ENDMDL
MODEL 4
REMARK VINA RESULT:      -7.4      4.219      9.560
REMARK  6 active torsions:
REMARK  status: ('A' for Active; 'I' for Inactive)
REMARK    1  A    between atoms: C_1  and  C_7 
REMARK    2  A    between atoms: C_7  and  N_8 
REMARK    3  A    between atoms: C_13  and  C_14 
REMARK    4  A    between atoms: C_18  and  O_19 
REMARK    5  A    between atoms: O_19  and  C_24 
REMARK    6  A    between atoms: C_20  and  O_21 
ROOT
HETATM    1  C   UNK N   1      35.441  12.933  17.541  0.00  0.00     0.009 A 
HETATM    2  C   UNK N   1      35.285  11.533  17.324  0.00  0.00     0.017 A 
HETATM    3  C   UNK N   1      35.483  10.973  16.036  0.00  0.00     0.033 A 
HETATM    4  C   UNK N   1      35.820  11.848  15.002  0.00  0.00     0.060 A 
HETATM    5  C   UNK N   1      35.968  13.176  15.236  0.00  0.00     0.061 A 
HETATM    6  C   UNK N   1      35.801  13.760  16.469  0.00  0.00     0.047 A 
HETATM    7  N   UNK N   1      35.997  11.595  13.688  0.00  0.00    -0.340 N 
HETATM    8  N   UNK N   1      36.231  13.804  14.102  0.00  0.00    -0.340 N 
ATOM      9  HN  UNK N   1      36.396  14.801  13.966  1.00  0.00     0.167 HD
HETATM   10  C   UNK N   1      36.234  12.834  13.162  0.00  0.00     0.119 A 
HETATM   11  H   UNK N   1      35.964  10.729  13.222  0.00  0.00     0.167 HD
ENDROOT
BRANCH  10  12
HETATM   12  C   UNK N   1      36.408  13.156  11.726  0.00  0.00     0.044 A 
HETATM   13  C   UNK N   1      37.569  12.803  11.032  0.00  0.00     0.018 A 
HETATM   14  C   UNK N   1      37.702  13.134   9.680  0.00  0.00     0.004 A 
HETATM   15  C   UNK N   1      36.680  13.825   9.016  0.00  0.00     0.040 A 
HETATM   16  C   UNK N   1      35.504  14.186   9.684  0.00  0.00     0.103 A 
HETATM   17  C   UNK N   1      35.367  13.832  11.044  0.00  0.00     0.113 A 
BRANCH  16  18
HETATM   18  O   UNK N   1      34.555  14.884   8.984  0.00  0.00    -0.343 OA
BRANCH  18  19
HETATM   19  C   UNK N   1      34.664  16.081   8.277  0.00  0.00     0.129 C 
HETATM   20  C   UNK N   1      34.105  17.289   9.012  0.00  0.00     0.032 C 
HETATM   21  C   UNK N   1      33.515  18.191   7.934  0.00  0.00     0.002 C 
HETATM   22  C   UNK N   1      33.804  17.529   6.593  0.00  0.00     0.002 C 
HETATM   23  C   UNK N   1      34.055  16.064   6.891  0.00  0.00     0.032 C 
ENDBRANCH  18  19
ENDBRANCH  16  18
BRANCH  17  24
HETATM   24  O   UNK N   1      34.238  14.119  11.702  0.00  0.00    -0.357 OA
ATOM     25  HO  UNK N   1      33.783  13.425  12.164  1.00  0.00     0.217 HD
ENDBRANCH  17  24
ENDBRANCH  10  12
BRANCH   1  26
HETATM   26  C   UNK N   1      35.187  13.549  18.860  0.00  0.00     0.102 C 
HETATM   27  N   UNK N   1      34.952  14.809  18.952  0.00  0.00    -0.385 N 
HETATM   28  H   UNK N   1      34.971  15.256  19.827  0.00  0.00     0.157 HD
HETATM   29  H   UNK N   1      34.753  15.329  18.140  0.00  0.00     0.157 HD
BRANCH  26  30
HETATM   30  N   UNK N   1      35.121  12.748  20.020  0.00  0.00    -0.385 N 
HETATM   31  H   UNK N   1      34.884  11.793  19.984  0.00  0.00     0.157 HD
HETATM   32  H   UNK N   1      35.317  13.157  20.894  0.00  0.00     0.157 HD
ENDBRANCH  26  30
ENDBRANCH   1  26
TORSDOF 6
ENDMDL
MODEL 5
REMARK VINA RESULT:      -7.2     10.839     12.648
REMARK  6 active torsions:
REMARK  status: ('A' for Active; 'I' for Inactive)
REMARK    1  A    between atoms: C_1  and  C_7 
REMARK    2  A    between atoms: C_7  and  N_8 
REMARK    3  A    between atoms: C_13  and  C_14 
REMARK    4  A    between atoms: C_18  and  O_19 
REMARK    5  A    between atoms: O_19  and  C_24 
REMARK    6  A    between atoms: C_20  and  O_21 
ROOT
HETATM    1  C   UNK N   1      20.917  19.260   2.404  0.00  0.00     0.009 A 
HETATM    2  C   UNK N   1      20.209  18.106   1.959  0.00  0.00     0.017 A 
HETATM    3  C   UNK N   1      20.433  16.842   2.561  0.00  0.00     0.033 A 
HETATM    4  C   UNK N   1      21.377  16.780   3.587  0.00  0.00     0.060 A 
HETATM    5  C   UNK N   1      22.034  17.893   3.996  0.00  0.00     0.061 A 
HETATM    6  C   UNK N   1      21.838  19.141   3.452  0.00  0.00     0.047 A 
HETATM    7  N   UNK N   1      21.825  15.709   4.275  0.00  0.00    -0.340 N 
HETATM    8  N   UNK N   1      22.911  17.577   4.933  0.00  0.00    -0.340 N 
ATOM      9  HN  UNK N   1      23.543  18.204   5.431  1.00  0.00     0.167 HD
HETATM   10  C   UNK N   1      22.786  16.241   5.088  0.00  0.00     0.119 A 
HETATM   11  H   UNK N   1      21.532  14.772   4.208  0.00  0.00     0.167 HD
ENDROOT
BRANCH  10  12
HETATM   12  C   UNK N   1      23.676  15.487   6.003  0.00  0.00     0.044 A 
HETATM   13  C   UNK N   1      25.060  15.684   6.005  0.00  0.00     0.018 A 
HETATM   14  C   UNK N   1      25.869  14.945   6.874  0.00  0.00     0.004 A 
HETATM   15  C   UNK N   1      25.301  14.003   7.741  0.00  0.00     0.040 A 
HETATM   16  C   UNK N   1      23.918  13.790   7.765  0.00  0.00     0.103 A 
HETATM   17  C   UNK N   1      23.104  14.552   6.898  0.00  0.00     0.113 A 
BRANCH  16  18
HETATM   18  O   UNK N   1      23.429  12.834   8.618  0.00  0.00    -0.343 OA
BRANCH  18  19
HETATM   19  C   UNK N   1      22.970  12.956   9.929  0.00  0.00     0.129 C 
HETATM   20  C   UNK N   1      23.828  12.234  10.957  0.00  0.00     0.032 C 
HETATM   21  C   UNK N   1      22.860  11.730  12.020  0.00  0.00     0.002 C 
HETATM   22  C   UNK N   1      21.474  12.226  11.632  0.00  0.00     0.002 C 
HETATM   23  C   UNK N   1      21.534  12.530  10.148  0.00  0.00     0.032 C 
ENDBRANCH  18  19
ENDBRANCH  16  18
BRANCH  17  24
HETATM   24  O   UNK N   1      21.774  14.408   6.928  0.00  0.00    -0.357 OA
ATOM     25  HO  UNK N   1      21.391  13.769   7.518  1.00  0.00     0.217 HD
ENDBRANCH  17  24
ENDBRANCH  10  12
BRANCH   1  26
HETATM   26  C   UNK N   1      20.742  20.577   1.757  0.00  0.00     0.102 C 
HETATM   27  N   UNK N   1      20.900  21.657   2.436  0.00  0.00    -0.385 N 
HETATM   28  H   UNK N   1      20.604  22.522   2.071  0.00  0.00     0.157 HD
HETATM   29  H   UNK N   1      21.319  21.619   3.326  0.00  0.00     0.157 HD
BRANCH  26  30
HETATM   30  N   UNK N   1      20.480  20.664   0.374  0.00  0.00    -0.385 N 
HETATM   31  H   UNK N   1      20.130  21.485  -0.042  0.00  0.00     0.157 HD
HETATM   32  H   UNK N   1      20.651  19.878  -0.194  0.00  0.00     0.157 HD
ENDBRANCH  26  30
ENDBRANCH   1  26
TORSDOF 6
ENDMDL
MODEL 6
REMARK VINA RESULT:      -7.2     10.815     14.285
REMARK  6 active torsions:
REMARK  status: ('A' for Active; 'I' for Inactive)
REMARK    1  A    between atoms: C_1  and  C_7 
REMARK    2  A    between atoms: C_7  and  N_8 
REMARK    3  A    between atoms: C_13  and  C_14 
REMARK    4  A    between atoms: C_18  and  O_19 
REMARK    5  A    between atoms: O_19  and  C_24 
REMARK    6  A    between atoms: C_20  and  O_21 
ROOT
HETATM    1  C   UNK N   1      21.698  13.378   9.260  0.00  0.00     0.009 A 
HETATM    2  C   UNK N   1      20.571  14.100   9.749  0.00  0.00     0.017 A 
HETATM    3  C   UNK N   1      20.128  15.279   9.098  0.00  0.00     0.033 A 
HETATM    4  C   UNK N   1      20.846  15.700   7.977  0.00  0.00     0.060 A 
HETATM    5  C   UNK N   1      21.911  14.992   7.528  0.00  0.00     0.061 A 
HETATM    6  C   UNK N   1      22.367  13.837   8.119  0.00  0.00     0.047 A 
HETATM    7  N   UNK N   1      20.683  16.806   7.221  0.00  0.00    -0.340 N 
HETATM    8  N   UNK N   1      22.459  15.613   6.497  0.00  0.00    -0.340 N 
ATOM      9  HN  UNK N   1      23.267  15.317   5.950  1.00  0.00     0.167 HD
HETATM   10  C   UNK N   1      21.711  16.724   6.325  0.00  0.00     0.119 A 
HETATM   11  H   UNK N   1      19.992  17.502   7.297  0.00  0.00     0.167 HD
ENDROOT
BRANCH  10  12
HETATM   12  C   UNK N   1      22.066  17.739   5.305  0.00  0.00     0.044 A 
HETATM   13  C   UNK N   1      21.089  18.503   4.661  0.00  0.00     0.018 A 
HETATM   14  C   UNK N   1      21.462  19.443   3.695  0.00  0.00     0.004 A 
HETATM   15  C   UNK N   1      22.811  19.621   3.364  0.00  0.00     0.040 A 
HETATM   16  C   UNK N   1      23.811  18.875   3.997  0.00  0.00     0.103 A 
HETATM   17  C   UNK N   1      23.431  17.941   4.985  0.00  0.00     0.113 A 
BRANCH  16  18
HETATM   18  O   UNK N   1      25.110  19.080   3.609  0.00  0.00    -0.343 OA
BRANCH  18  19
HETATM   19  C   UNK N   1      26.027  20.045   4.024  0.00  0.00     0.129 C 
HETATM   20  C   UNK N   1      27.477  19.590   3.962  0.00  0.00     0.032 C 
HETATM   21  C   UNK N   1      28.171  20.266   5.138  0.00  0.00     0.002 C 
HETATM   22  C   UNK N   1      27.136  21.153   5.817  0.00  0.00     0.002 C 
HETATM   23  C   UNK N   1      25.781  20.610   5.407  0.00  0.00     0.032 C 
ENDBRANCH  18  19
ENDBRANCH  16  18
BRANCH  17  24
HETATM   24  O   UNK N   1      24.364  17.245   5.645  0.00  0.00    -0.357 OA
ATOM     25  HO  UNK N   1      24.420  17.327   6.590  1.00  0.00     0.217 HD
ENDBRANCH  17  24
ENDBRANCH  10  12
BRANCH   1  26
HETATM   26  C   UNK N   1      22.214  12.178   9.952  0.00  0.00     0.102 C 
HETATM   27  N   UNK N   1      23.178  11.500   9.440  0.00  0.00    -0.385 N 
HETATM   28  H   UNK N   1      23.398  10.607   9.788  0.00  0.00     0.157 HD
HETATM   29  H   UNK N   1      23.699  11.877   8.694  0.00  0.00     0.157 HD
BRANCH  26  30
HETATM   30  N   UNK N   1      21.708  11.812  11.217  0.00  0.00    -0.385 N 
HETATM   31  H   UNK N   1      21.641  12.455  11.960  0.00  0.00     0.157 HD
HETATM   32  H   UNK N   1      21.413  10.884  11.362  0.00  0.00     0.157 HD
ENDBRANCH  26  30
ENDBRANCH   1  26
TORSDOF 6
ENDMDL
MODEL 7
REMARK VINA RESULT:      -7.2      2.570      3.508
REMARK  6 active torsions:
REMARK  status: ('A' for Active; 'I' for Inactive)
REMARK    1  A    between atoms: C_1  and  C_7 
REMARK    2  A    between atoms: C_7  and  N_8 
REMARK    3  A    between atoms: C_13  and  C_14 
REMARK    4  A    between atoms: C_18  and  O_19 
REMARK    5  A    between atoms: O_19  and  C_24 
REMARK    6  A    between atoms: C_20  and  O_21 
ROOT
HETATM    1  C   UNK N   1      28.924  17.986   6.505  0.00  0.00     0.009 A 
HETATM    2  C   UNK N   1      28.851  18.622   7.778  0.00  0.00     0.017 A 
HETATM    3  C   UNK N   1      29.845  18.390   8.762  0.00  0.00     0.033 A 
HETATM    4  C   UNK N   1      30.878  17.511   8.434  0.00  0.00     0.060 A 
HETATM    5  C   UNK N   1      30.928  16.922   7.213  0.00  0.00     0.061 A 
HETATM    6  C   UNK N   1      29.995  17.129   6.224  0.00  0.00     0.047 A 
HETATM    7  N   UNK N   1      31.900  17.067   9.195  0.00  0.00    -0.340 N 
HETATM    8  N   UNK N   1      31.958  16.094   7.158  0.00  0.00    -0.340 N 
ATOM      9  HN  UNK N   1      32.251  15.518   6.369  1.00  0.00     0.167 HD
HETATM   10  C   UNK N   1      32.537  16.180   8.375  0.00  0.00     0.119 A 
HETATM   11  H   UNK N   1      32.131  17.321  10.118  0.00  0.00     0.167 HD
ENDROOT
BRANCH  10  12
HETATM   12  C   UNK N   1      33.690  15.322   8.739  0.00  0.00     0.044 A 
HETATM   13  C   UNK N   1      34.749  15.104   7.853  0.00  0.00     0.018 A 
HETATM   14  C   UNK N   1      35.814  14.279   8.228  0.00  0.00     0.004 A 
HETATM   15  C   UNK N   1      35.824  13.663   9.486  0.00  0.00     0.040 A 
HETATM   16  C   UNK N   1      34.780  13.868  10.395  0.00  0.00     0.103 A 
HETATM   17  C   UNK N   1      33.717  14.718  10.019  0.00  0.00     0.113 A 
BRANCH  16  18
HETATM   18  O   UNK N   1      34.839  13.216  11.599  0.00  0.00    -0.343 OA
BRANCH  18  19
HETATM   19  C   UNK N   1      35.774  13.318  12.628  0.00  0.00     0.129 C 
HETATM   20  C   UNK N   1      35.421  12.515  13.871  0.00  0.00     0.032 C 
HETATM   21  C   UNK N   1      35.935  13.333  15.049  0.00  0.00     0.002 C 
HETATM   22  C   UNK N   1      36.638  14.554  14.472  0.00  0.00     0.002 C 
HETATM   23  C   UNK N   1      36.091  14.731  13.069  0.00  0.00     0.032 C 
ENDBRANCH  18  19
ENDBRANCH  16  18
BRANCH  17  24
HETATM   24  O   UNK N   1      32.726  14.975  10.881  0.00  0.00    -0.357 OA
ATOM     25  HO  UNK N   1      32.896  15.542  11.624  1.00  0.00     0.217 HD
ENDBRANCH  17  24
ENDBRANCH  10  12
BRANCH   1  26
HETATM   26  C   UNK N   1      27.873  18.168   5.482  0.00  0.00     0.102 C 
HETATM   27  N   UNK N   1      26.637  17.984   5.785  0.00  0.00    -0.385 N 
HETATM   28  H   UNK N   1      25.957  17.916   5.078  0.00  0.00     0.157 HD
HETATM   29  H   UNK N   1      26.371  17.911   6.730  0.00  0.00     0.157 HD
BRANCH  26  30
HETATM   30  N   UNK N   1      28.207  18.621   4.188  0.00  0.00    -0.385 N 
HETATM   31  H   UNK N   1      28.942  18.222   3.668  0.00  0.00     0.157 HD
HETATM   32  H   UNK N   1      27.689  19.359   3.793  0.00  0.00     0.157 HD
ENDBRANCH  26  30
ENDBRANCH   1  26
TORSDOF 6
ENDMDL
MODEL 8
REMARK VINA RESULT:      -7.2     11.088     14.867
REMARK  6 active torsions:
REMARK  status: ('A' for Active; 'I' for Inactive)
REMARK    1  A    between atoms: C_1  and  C_7 
REMARK    2  A    between atoms: C_7  and  N_8 
REMARK    3  A    between atoms: C_13  and  C_14 
REMARK    4  A    between atoms: C_18  and  O_19 
REMARK    5  A    between atoms: O_19  and  C_24 
REMARK    6  A    between atoms: C_20  and  O_21 
ROOT
HETATM    1  C   UNK N   1      22.556  12.912  10.221  0.00  0.00     0.009 A 
HETATM    2  C   UNK N   1      21.176  13.097  10.522  0.00  0.00     0.017 A 
HETATM    3  C   UNK N   1      20.321  13.774   9.615  0.00  0.00     0.033 A 
HETATM    4  C   UNK N   1      20.892  14.256   8.436  0.00  0.00     0.060 A 
HETATM    5  C   UNK N   1      22.208  14.063   8.171  0.00  0.00     0.061 A 
HETATM    6  C   UNK N   1      23.069  13.400   9.013  0.00  0.00     0.047 A 
HETATM    7  N   UNK N   1      20.331  14.983   7.447  0.00  0.00    -0.340 N 
HETATM    8  N   UNK N   1      22.527  14.654   7.032  0.00  0.00    -0.340 N 
ATOM      9  HN  UNK N   1      23.438  14.675   6.575  1.00  0.00     0.167 HD
HETATM   10  C   UNK N   1      21.379  15.223   6.604  0.00  0.00     0.119 A 
HETATM   11  H   UNK N   1      19.394  15.270   7.355  0.00  0.00     0.167 HD
ENDROOT
BRANCH  10  12
HETATM   12  C   UNK N   1      21.347  16.064   5.384  0.00  0.00     0.044 A 
HETATM   13  C   UNK N   1      20.557  15.726   4.282  0.00  0.00     0.018 A 
HETATM   14  C   UNK N   1      20.562  16.538   3.144  0.00  0.00     0.004 A 
HETATM   15  C   UNK N   1      21.359  17.689   3.099  0.00  0.00     0.040 A 
HETATM   16  C   UNK N   1      22.155  18.056   4.190  0.00  0.00     0.103 A 
HETATM   17  C   UNK N   1      22.132  17.242   5.343  0.00  0.00     0.113 A 
BRANCH  16  18
HETATM   18  O   UNK N   1      22.931  19.179   4.071  0.00  0.00    -0.343 OA
BRANCH  18  19
HETATM   19  C   UNK N   1      24.229  19.322   3.583  0.00  0.00     0.129 C 
HETATM   20  C   UNK N   1      25.304  19.288   4.659  0.00  0.00     0.032 C 
HETATM   21  C   UNK N   1      26.390  20.247   4.187  0.00  0.00     0.002 C 
HETATM   22  C   UNK N   1      25.964  20.765   2.820  0.00  0.00     0.002 C 
HETATM   23  C   UNK N   1      24.465  20.556   2.738  0.00  0.00     0.032 C 
ENDBRANCH  18  19
ENDBRANCH  16  18
BRANCH  17  24
HETATM   24  O   UNK N   1      22.843  17.588   6.423  0.00  0.00    -0.357 OA
ATOM     25  HO  UNK N   1      23.394  16.937   6.841  1.00  0.00     0.217 HD
ENDBRANCH  17  24
ENDBRANCH  10  12
BRANCH   1  26
HETATM   26  C   UNK N   1      23.479  12.259  11.173  0.00  0.00     0.102 C 
HETATM   27  N   UNK N   1      24.750  12.376  11.026  0.00  0.00    -0.385 N 
HETATM   28  H   UNK N   1      25.365  11.798  11.532  0.00  0.00     0.157 HD
HETATM   29  H   UNK N   1      25.111  13.048  10.403  0.00  0.00     0.157 HD
BRANCH  26  30
HETATM   30  N   UNK N   1      22.975  11.569  12.296  0.00  0.00    -0.385 N 
HETATM   31  H   UNK N   1      23.389  11.645  13.186  0.00  0.00     0.157 HD
HETATM   32  H   UNK N   1      22.184  10.993  12.186  0.00  0.00     0.157 HD
ENDBRANCH  26  30
ENDBRANCH   1  26
TORSDOF 6
ENDMDL
MODEL 9
REMARK VINA RESULT:      -7.1      3.653      9.288
REMARK  6 active torsions:
REMARK  status: ('A' for Active; 'I' for Inactive)
REMARK    1  A    between atoms: C_1  and  C_7 
REMARK    2  A    between atoms: C_7  and  N_8 
REMARK    3  A    between atoms: C_13  and  C_14 
REMARK    4  A    between atoms: C_18  and  O_19 
REMARK    5  A    between atoms: O_19  and  C_24 
REMARK    6  A    between atoms: C_20  and  O_21 
ROOT
HETATM    1  C   UNK N   1      35.160  14.792  11.313  0.00  0.00     0.009 A 
HETATM    2  C   UNK N   1      35.755  16.082  11.419  0.00  0.00     0.017 A 
HETATM    3  C   UNK N   1      35.419  17.112  10.504  0.00  0.00     0.033 A 
HETATM    4  C   UNK N   1      34.499  16.802   9.501  0.00  0.00     0.060 A 
HETATM    5  C   UNK N   1      33.943  15.567   9.425  0.00  0.00     0.061 A 
HETATM    6  C   UNK N   1      34.228  14.544  10.297  0.00  0.00     0.047 A 
HETATM    7  N   UNK N   1      34.060  17.562   8.476  0.00  0.00    -0.340 N 
HETATM    8  N   UNK N   1      33.153  15.496   8.367  0.00  0.00    -0.340 N 
ATOM      9  HN  UNK N   1      32.598  14.699   8.056  1.00  0.00     0.167 HD
HETATM   10  C   UNK N   1      33.240  16.713   7.787  0.00  0.00     0.119 A 
HETATM   11  H   UNK N   1      34.277  18.501   8.274  0.00  0.00     0.167 HD
ENDROOT
BRANCH  10  12
HETATM   12  C   UNK N   1      32.555  17.005   6.505  0.00  0.00     0.044 A 
HETATM   13  C   UNK N   1      33.272  17.261   5.334  0.00  0.00     0.018 A 
HETATM   14  C   UNK N   1      32.591  17.544   4.146  0.00  0.00     0.004 A 
HETATM   15  C   UNK N   1      31.191  17.578   4.123  0.00  0.00     0.040 A 
HETATM   16  C   UNK N   1      30.447  17.320   5.280  0.00  0.00     0.103 A 
HETATM   17  C   UNK N   1      31.139  17.016   6.472  0.00  0.00     0.113 A 
BRANCH  16  18
HETATM   18  O   UNK N   1      29.081  17.395   5.196  0.00  0.00    -0.343 OA
BRANCH  18  19
HETATM   19  C   UNK N   1      28.277  18.168   4.359  0.00  0.00     0.129 C 
HETATM   20  C   UNK N   1      28.148  19.621   4.790  0.00  0.00     0.032 C 
HETATM   21  C   UNK N   1      26.732  20.038   4.412  0.00  0.00     0.002 C 
HETATM   22  C   UNK N   1      26.090  18.851   3.708  0.00  0.00     0.002 C 
HETATM   23  C   UNK N   1      26.880  17.629   4.135  0.00  0.00     0.032 C 
ENDBRANCH  18  19
ENDBRANCH  16  18
BRANCH  17  24
HETATM   24  O   UNK N   1      30.460  16.717   7.585  0.00  0.00    -0.357 OA
ATOM     25  HO  UNK N   1      29.941  15.921   7.611  1.00  0.00     0.217 HD
ENDBRANCH  17  24
ENDBRANCH  10  12
BRANCH   1  26
HETATM   26  C   UNK N   1      35.534  13.685  12.219  0.00  0.00     0.102 C 
HETATM   27  N   UNK N   1      34.716  12.718  12.432  0.00  0.00    -0.385 N 
HETATM   28  H   UNK N   1      34.874  12.085  13.169  0.00  0.00     0.157 HD
HETATM   29  H   UNK N   1      33.926  12.610  11.854  0.00  0.00     0.157 HD
BRANCH  26  30
HETATM   30  N   UNK N   1      36.821  13.640  12.796  0.00  0.00    -0.385 N 
HETATM   31  H   UNK N   1      37.597  13.271  12.315  0.00  0.00     0.157 HD
HETATM   32  H   UNK N   1      36.948  13.989  13.708  0.00  0.00     0.157 HD
ENDBRANCH  26  30
ENDBRANCH   1  26
TORSDOF 6
ENDMDL
