MODEL 1
REMARK VINA RESULT:      -7.5      0.000      0.000
REMARK  4 active torsions:
REMARK  status: ('A' for Active; 'I' for Inactive)
REMARK    1  A    between atoms: C_3  and  N_4 
REMARK    2  A    between atoms: C_3  and  C_5 
REMARK    3  A    between atoms: C_10  and  C_15 
REMARK       I    between atoms: C_15  and  N_17 
REMARK    4  A    between atoms: N_17  and  C_18 
ROOT
HETATM    1  C   UNK N   1      21.519  19.649   2.759  0.00  0.00     0.008 A 
HETATM    2  C   UNK N   1      21.560  18.750   3.833  0.00  0.00     0.016 A 
HETATM    3  C   UNK N   1      22.751  18.516   4.513  0.00  0.00     0.013 A 
HETATM    4  C   UNK N   1      23.914  19.178   4.127  0.00  0.00    -0.025 A 
HETATM    5  C   UNK N   1      25.093  18.938   4.811  0.00  0.00     0.029 A 
HETATM    6  C   UNK N   1      26.279  19.584   4.451  0.00  0.00     0.033 A 
HETATM    7  C   UNK N   1      26.271  20.493   3.377  0.00  0.00     0.018 A 
HETATM    8  C   UNK N   1      25.078  20.743   2.677  0.00  0.00     0.013 A 
HETATM    9  C   UNK N   1      23.896  20.086   3.050  0.00  0.00    -0.025 A 
HETATM   10  C   UNK N   1      22.695  20.319   2.367  0.00  0.00     0.027 A 
ENDROOT
BRANCH   6  11
HETATM   11  C   UNK N   1      27.496  19.277   5.227  0.00  0.00     0.256 C 
HETATM   12  O   UNK N   1      28.600  19.597   4.814  0.00  0.00    -0.267 OA
HETATM   13  N   UNK N   1      27.341  18.626   6.414  0.00  0.00    -0.323 N 
HETATM   14  H   UNK N   1      26.414  18.410   6.663  0.00  0.00     0.169 HD
BRANCH  13  15
HETATM   15  C   UNK N   1      28.338  18.221   7.335  0.00  0.00     0.035 A 
HETATM   16  C   UNK N   1      29.336  17.352   6.877  0.00  0.00     0.029 A 
HETATM   17  C   UNK N   1      30.346  16.916   7.735  0.00  0.00     0.002 A 
HETATM   18  C   UNK N   1      30.363  17.348   9.062  0.00  0.00     0.000 A 
HETATM   19  C   UNK N   1      29.370  18.216   9.530  0.00  0.00     0.002 A 
HETATM   20  C   UNK N   1      28.358  18.653   8.669  0.00  0.00     0.029 A 
ENDBRANCH  13  15
ENDBRANCH   6  11
BRANCH   1  21
HETATM   21  C   UNK N   1      20.240  19.877   2.056  0.00  0.00     0.102 C 
HETATM   22  N   UNK N   1      19.168  19.299   2.453  0.00  0.00    -0.385 N 
HETATM   23  H   UNK N   1      18.319  19.456   1.978  0.00  0.00     0.157 HD
ATOM     24  HN  UNK N   1      19.192  18.675   3.260  1.00  0.00     0.157 HD
BRANCH  21  25
HETATM   25  N   UNK N   1      20.191  20.739   0.935  0.00  0.00    -0.385 N 
HETATM   26  H   UNK N   1      21.015  21.162   0.603  0.00  0.00     0.157 HD
HETATM   27  H   UNK N   1      19.332  20.915   0.487  0.00  0.00     0.157 HD
ENDBRANCH  21  25
ENDBRANCH   1  21
TORSDOF 4
ENDMDL
MODEL 2
REMARK VINA RESULT:      -7.4      5.779      8.240
REMARK  4 active torsions:
REMARK  status: ('A' for Active; 'I' for Inactive)
REMARK    1  A    between atoms: C_3  and  N_4 
REMARK    2  A    between atoms: C_3  and  C_5 
REMARK    3  A    between atoms: C_10  and  C_15 
REMARK       I    between atoms: C_15  and  N_17 
REMARK    4  A    between atoms: N_17  and  C_18 
ROOT
HETATM    1  C   UNK N   1      21.927  12.913  10.254  0.00  0.00     0.008 A 
HETATM    2  C   UNK N   1      23.118  12.598   9.586  0.00  0.00     0.016 A 
HETATM    3  C   UNK N   1      23.520  13.332   8.474  0.00  0.00     0.013 A 
HETATM    4  C   UNK N   1      22.735  14.387   8.018  0.00  0.00    -0.025 A 
HETATM    5  C   UNK N   1      23.144  15.110   6.911  0.00  0.00     0.029 A 
HETATM    6  C   UNK N   1      22.382  16.176   6.425  0.00  0.00     0.033 A 
HETATM    7  C   UNK N   1      21.180  16.518   7.072  0.00  0.00     0.018 A 
HETATM    8  C   UNK N   1      20.758  15.789   8.197  0.00  0.00     0.013 A 
HETATM    9  C   UNK N   1      21.534  14.722   8.673  0.00  0.00    -0.025 A 
HETATM   10  C   UNK N   1      21.132  13.981   9.793  0.00  0.00     0.027 A 
ENDROOT
BRANCH   6  11
HETATM   11  C   UNK N   1      22.882  16.900   5.240  0.00  0.00     0.256 C 
HETATM   12  O   UNK N   1      22.615  16.518   4.111  0.00  0.00    -0.267 OA
HETATM   13  N   UNK N   1      23.651  18.005   5.452  0.00  0.00    -0.323 N 
HETATM   14  H   UNK N   1      23.813  18.235   6.396  0.00  0.00     0.169 HD
BRANCH  13  15
HETATM   15  C   UNK N   1      24.246  18.864   4.496  0.00  0.00     0.035 A 
HETATM   16  C   UNK N   1      25.643  18.869   4.404  0.00  0.00     0.029 A 
HETATM   17  C   UNK N   1      26.290  19.693   3.482  0.00  0.00     0.002 A 
HETATM   18  C   UNK N   1      25.541  20.520   2.645  0.00  0.00     0.000 A 
HETATM   19  C   UNK N   1      24.144  20.523   2.730  0.00  0.00     0.002 A 
HETATM   20  C   UNK N   1      23.495  19.696   3.654  0.00  0.00     0.029 A 
ENDBRANCH  13  15
ENDBRANCH   6  11
BRANCH   1  21
HETATM   21  C   UNK N   1      21.526  12.117  11.432  0.00  0.00     0.102 C 
HETATM   22  N   UNK N   1      20.286  11.931  11.699  0.00  0.00    -0.385 N 
HETATM   23  H   UNK N   1      20.027  11.399  12.486  0.00  0.00     0.157 HD
ATOM     24  HN  UNK N   1      19.568  12.333  11.097  1.00  0.00     0.157 HD
BRANCH  21  25
HETATM   25  N   UNK N   1      22.511  11.552  12.276  0.00  0.00    -0.385 N 
HETATM   26  H   UNK N   1      23.268  12.100  12.583  0.00  0.00     0.157 HD
HETATM   27  H   UNK N   1      22.439  10.611  12.556  0.00  0.00     0.157 HD
ENDBRANCH  21  25
ENDBRANCH   1  21
TORSDOF 4
ENDMDL
MODEL 3
REMARK VINA RESULT:      -7.4      5.649      6.735
REMARK  4 active torsions:
REMARK  status: ('A' for Active; 'I' for Inactive)
REMARK    1  A    between atoms: C_3  and  N_4 
REMARK    2  A    between atoms: C_3  and  C_5 
REMARK    3  A    between atoms: C_10  and  C_15 
REMARK       I    between atoms: C_15  and  N_17 
REMARK    4  A    between atoms: N_17  and  C_18 
ROOT
HETATM    1  C   UNK N   1      20.975  18.870   3.268  0.00  0.00     0.008 A 
HETATM    2  C   UNK N   1      22.077  18.927   4.131  0.00  0.00     0.016 A 
HETATM    3  C   UNK N   1      22.289  17.926   5.073  0.00  0.00     0.013 A 
HETATM    4  C   UNK N   1      21.402  16.857   5.163  0.00  0.00    -0.025 A 
HETATM    5  C   UNK N   1      21.622  15.866   6.104  0.00  0.00     0.029 A 
HETATM    6  C   UNK N   1      20.753  14.779   6.222  0.00  0.00     0.033 A 
HETATM    7  C   UNK N   1      19.636  14.691   5.371  0.00  0.00     0.018 A 
HETATM    8  C   UNK N   1      19.404  15.693   4.412  0.00  0.00     0.013 A 
HETATM    9  C   UNK N   1      20.287  16.779   4.305  0.00  0.00    -0.025 A 
HETATM   10  C   UNK N   1      20.076  17.789   3.358  0.00  0.00     0.027 A 
ENDROOT
BRANCH   6  11
HETATM   11  C   UNK N   1      21.053  13.762   7.249  0.00  0.00     0.256 C 
HETATM   12  O   UNK N   1      20.652  12.614   7.133  0.00  0.00    -0.267 OA
HETATM   13  N   UNK N   1      21.792  14.151   8.326  0.00  0.00    -0.323 N 
HETATM   14  H   UNK N   1      22.071  15.095   8.333  0.00  0.00     0.169 HD
BRANCH  13  15
HETATM   15  C   UNK N   1      22.211  13.377   9.436  0.00  0.00     0.035 A 
HETATM   16  C   UNK N   1      23.578  13.096   9.557  0.00  0.00     0.029 A 
HETATM   17  C   UNK N   1      24.055  12.339  10.627  0.00  0.00     0.002 A 
HETATM   18  C   UNK N   1      23.164  11.855  11.586  0.00  0.00     0.000 A 
HETATM   19  C   UNK N   1      21.796  12.130  11.474  0.00  0.00     0.002 A 
HETATM   20  C   UNK N   1      21.319  12.890  10.401  0.00  0.00     0.029 A 
ENDBRANCH  13  15
ENDBRANCH   6  11
BRANCH   1  21
HETATM   21  C   UNK N   1      20.775  19.948   2.277  0.00  0.00     0.102 C 
HETATM   22  N   UNK N   1      20.391  19.672   1.086  0.00  0.00    -0.385 N 
HETATM   23  H   UNK N   1      20.260  20.396   0.431  0.00  0.00     0.157 HD
ATOM     24  HN  UNK N   1      20.222  18.703   0.815  1.00  0.00     0.157 HD
BRANCH  21  25
HETATM   25  N   UNK N   1      21.006  21.296   2.639  0.00  0.00    -0.385 N 
HETATM   26  H   UNK N   1      20.469  21.714   3.349  0.00  0.00     0.157 HD
HETATM   27  H   UNK N   1      21.705  21.815   2.179  0.00  0.00     0.157 HD
ENDBRANCH  21  25
ENDBRANCH   1  21
TORSDOF 4
ENDMDL
MODEL 4
REMARK VINA RESULT:      -7.3     12.071     17.327
REMARK  4 active torsions:
REMARK  status: ('A' for Active; 'I' for Inactive)
REMARK    1  A    between atoms: C_3  and  N_4 
REMARK    2  A    between atoms: C_3  and  C_5 
REMARK    3  A    between atoms: C_10  and  C_15 
REMARK       I    between atoms: C_15  and  N_17 
REMARK    4  A    between atoms: N_17  and  C_18 
ROOT
HETATM    1  C   UNK N   1      35.486  11.574  19.145  0.00  0.00     0.008 A 
HETATM    2  C   UNK N   1      35.102  12.904  18.928  0.00  0.00     0.016 A 
HETATM    3  C   UNK N   1      35.174  13.460  17.654  0.00  0.00     0.013 A 
HETATM    4  C   UNK N   1      35.629  12.693  16.586  0.00  0.00    -0.025 A 
HETATM    5  C   UNK N   1      35.696  13.256  15.323  0.00  0.00     0.029 A 
HETATM    6  C   UNK N   1      36.147  12.517  14.227  0.00  0.00     0.033 A 
HETATM    7  C   UNK N   1      36.540  11.178  14.412  0.00  0.00     0.018 A 
HETATM    8  C   UNK N   1      36.475  10.598  15.690  0.00  0.00     0.013 A 
HETATM    9  C   UNK N   1      36.019  11.353  16.781  0.00  0.00    -0.025 A 
HETATM   10  C   UNK N   1      35.946  10.797  18.065  0.00  0.00     0.027 A 
ENDROOT
BRANCH   6  11
HETATM   11  C   UNK N   1      36.191  13.185  12.912  0.00  0.00     0.256 C 
HETATM   12  O   UNK N   1      37.141  13.032  12.161  0.00  0.00    -0.267 OA
HETATM   13  N   UNK N   1      35.135  13.976  12.571  0.00  0.00    -0.323 N 
HETATM   14  H   UNK N   1      34.416  14.039  13.240  0.00  0.00     0.169 HD
BRANCH  13  15
HETATM   15  C   UNK N   1      34.936  14.719  11.381  0.00  0.00     0.035 A 
HETATM   16  C   UNK N   1      35.399  16.040  11.352  0.00  0.00     0.029 A 
HETATM   17  C   UNK N   1      35.233  16.825  10.210  0.00  0.00     0.002 A 
HETATM   18  C   UNK N   1      34.602  16.291   9.086  0.00  0.00     0.000 A 
HETATM   19  C   UNK N   1      34.137  14.971   9.105  0.00  0.00     0.002 A 
HETATM   20  C   UNK N   1      34.302  14.185  10.250  0.00  0.00     0.029 A 
ENDBRANCH  13  15
ENDBRANCH   6  11
BRANCH   1  21
HETATM   21  C   UNK N   1      35.399  11.010  20.508  0.00  0.00     0.102 C 
HETATM   22  N   UNK N   1      36.460  10.652  21.132  0.00  0.00    -0.385 N 
HETATM   23  H   UNK N   1      36.395  10.277  22.040  0.00  0.00     0.157 HD
ATOM     24  HN  UNK N   1      37.373  10.755  20.688  1.00  0.00     0.157 HD
BRANCH  21  25
HETATM   25  N   UNK N   1      34.140  10.861  21.136  0.00  0.00    -0.385 N 
HETATM   26  H   UNK N   1      33.434  11.530  20.989  0.00  0.00     0.157 HD
HETATM   27  H   UNK N   1      33.971  10.087  21.721  0.00  0.00     0.157 HD
ENDBRANCH  21  25
ENDBRANCH   1  21
TORSDOF 4
ENDMDL
MODEL 5
REMARK VINA RESULT:      -7.2     16.185     19.407
REMARK  4 active torsions:
REMARK  status: ('A' for Active; 'I' for Inactive)
REMARK    1  A    between atoms: C_3  and  N_4 
REMARK    2  A    between atoms: C_3  and  C_5 
REMARK    3  A    between atoms: C_10  and  C_15 
REMARK       I    between atoms: C_15  and  N_17 
REMARK    4  A    between atoms: N_17  and  C_18 
ROOT
HETATM    1  C   UNK N   1      36.346  12.800  14.891  0.00  0.00     0.008 A 
HETATM    2  C   UNK N   1      36.422  11.401  14.921  0.00  0.00     0.016 A 
HETATM    3  C   UNK N   1      36.116  10.703  16.085  0.00  0.00     0.013 A 
HETATM    4  C   UNK N   1      35.732  11.395  17.230  0.00  0.00    -0.025 A 
HETATM    5  C   UNK N   1      35.431  10.690  18.383  0.00  0.00     0.029 A 
HETATM    6  C   UNK N   1      35.042  11.351  19.551  0.00  0.00     0.033 A 
HETATM    7  C   UNK N   1      34.957  12.756  19.553  0.00  0.00     0.018 A 
HETATM    8  C   UNK N   1      35.261  13.480  18.387  0.00  0.00     0.013 A 
HETATM    9  C   UNK N   1      35.650  12.802  17.223  0.00  0.00    -0.025 A 
HETATM   10  C   UNK N   1      35.958  13.502  16.049  0.00  0.00     0.027 A 
ENDROOT
BRANCH   6  11
HETATM   11  C   UNK N   1      34.736  10.532  20.740  0.00  0.00     0.256 C 
HETATM   12  O   UNK N   1      35.603   9.861  21.279  0.00  0.00    -0.267 OA
HETATM   13  N   UNK N   1      33.458  10.553  21.210  0.00  0.00    -0.323 N 
HETATM   14  H   UNK N   1      32.830  11.123  20.710  0.00  0.00     0.169 HD
BRANCH  13  15
HETATM   15  C   UNK N   1      32.914   9.864  22.321  0.00  0.00     0.035 A 
HETATM   16  C   UNK N   1      32.823  10.555  23.536  0.00  0.00     0.029 A 
HETATM   17  C   UNK N   1      32.296   9.932  24.668  0.00  0.00     0.002 A 
HETATM   18  C   UNK N   1      31.856   8.611  24.592  0.00  0.00     0.000 A 
HETATM   19  C   UNK N   1      31.942   7.912  23.382  0.00  0.00     0.002 A 
HETATM   20  C   UNK N   1      32.470   8.537  22.247  0.00  0.00     0.029 A 
ENDBRANCH  13  15
ENDBRANCH   6  11
BRANCH   1  21
HETATM   21  C   UNK N   1      36.676  13.515  13.641  0.00  0.00     0.102 C 
HETATM   22  N   UNK N   1      37.209  12.891  12.656  0.00  0.00    -0.385 N 
HETATM   23  H   UNK N   1      37.426  13.375  11.826  0.00  0.00     0.157 HD
ATOM     24  HN  UNK N   1      37.408  11.893  12.731  1.00  0.00     0.157 HD
BRANCH  21  25
HETATM   25  N   UNK N   1      36.406  14.899  13.522  0.00  0.00    -0.385 N 
HETATM   26  H   UNK N   1      35.894  15.236  12.752  0.00  0.00     0.157 HD
HETATM   27  H   UNK N   1      36.730  15.525  14.209  0.00  0.00     0.157 HD
ENDBRANCH  21  25
ENDBRANCH   1  21
TORSDOF 4
ENDMDL
MODEL 6
REMARK VINA RESULT:      -7.2     10.506     13.516
REMARK  4 active torsions:
REMARK  status: ('A' for Active; 'I' for Inactive)
REMARK    1  A    between atoms: C_3  and  N_4 
REMARK    2  A    between atoms: C_3  and  C_5 
REMARK    3  A    between atoms: C_10  and  C_15 
REMARK       I    between atoms: C_15  and  N_17 
REMARK    4  A    between atoms: N_17  and  C_18 
ROOT
HETATM    1  C   UNK N   1      32.807  20.009  -4.993  0.00  0.00     0.008 A 
HETATM    2  C   UNK N   1      31.873  20.085  -6.035  0.00  0.00     0.016 A 
HETATM    3  C   UNK N   1      30.756  20.907  -5.923  0.00  0.00     0.013 A 
HETATM    4  C   UNK N   1      30.560  21.661  -4.770  0.00  0.00    -0.025 A 
HETATM    5  C   UNK N   1      29.445  22.475  -4.669  0.00  0.00     0.029 A 
HETATM    6  C   UNK N   1      29.216  23.246  -3.527  0.00  0.00     0.033 A 
HETATM    7  C   UNK N   1      30.135  23.192  -2.462  0.00  0.00     0.018 A 
HETATM    8  C   UNK N   1      31.270  22.368  -2.555  0.00  0.00     0.013 A 
HETATM    9  C   UNK N   1      31.486  21.600  -3.709  0.00  0.00    -0.025 A 
HETATM   10  C   UNK N   1      32.610  20.772  -3.825  0.00  0.00     0.027 A 
ENDROOT
BRANCH   6  11
HETATM   11  C   UNK N   1      28.006  24.089  -3.493  0.00  0.00     0.256 C 
HETATM   12  O   UNK N   1      27.128  23.895  -2.666  0.00  0.00    -0.267 OA
HETATM   13  N   UNK N   1      27.905  25.087  -4.415  0.00  0.00    -0.323 N 
HETATM   14  H   UNK N   1      28.661  25.167  -5.040  0.00  0.00     0.169 HD
BRANCH  13  15
HETATM   15  C   UNK N   1      26.858  26.024  -4.592  0.00  0.00     0.035 A 
HETATM   16  C   UNK N   1      26.853  27.160  -3.773  0.00  0.00     0.029 A 
HETATM   17  C   UNK N   1      25.848  28.120  -3.898  0.00  0.00     0.002 A 
HETATM   18  C   UNK N   1      24.839  27.950  -4.846  0.00  0.00     0.000 A 
HETATM   19  C   UNK N   1      24.836  26.818  -5.670  0.00  0.00     0.002 A 
HETATM   20  C   UNK N   1      25.843  25.856  -5.544  0.00  0.00     0.029 A 
ENDBRANCH  13  15
ENDBRANCH   6  11
BRANCH   1  21
HETATM   21  C   UNK N   1      33.984  19.128  -5.139  0.00  0.00     0.102 C 
HETATM   22  N   UNK N   1      34.611  18.705  -4.104  0.00  0.00    -0.385 N 
HETATM   23  H   UNK N   1      35.395  18.118  -4.210  0.00  0.00     0.157 HD
ATOM     24  HN  UNK N   1      34.300  18.976  -3.171  1.00  0.00     0.157 HD
BRANCH  21  25
HETATM   25  N   UNK N   1      34.428  18.744  -6.426  0.00  0.00    -0.385 N 
HETATM   26  H   UNK N   1      33.774  18.495  -7.118  0.00  0.00     0.157 HD
HETATM   27  H   UNK N   1      35.391  18.726  -6.630  0.00  0.00     0.157 HD
ENDBRANCH  21  25
ENDBRANCH   1  21
TORSDOF 4
ENDMDL
MODEL 7
REMARK VINA RESULT:      -7.1     16.334     19.947
REMARK  4 active torsions:
REMARK  status: ('A' for Active; 'I' for Inactive)
REMARK    1  A    between atoms: C_3  and  N_4 
REMARK    2  A    between atoms: C_3  and  C_5 
REMARK    3  A    between atoms: C_10  and  C_15 
REMARK       I    between atoms: C_15  and  N_17 
REMARK    4  A    between atoms: N_17  and  C_18 
ROOT
HETATM    1  C   UNK N   1      35.829  13.244  16.062  0.00  0.00     0.008 A 
HETATM    2  C   UNK N   1      35.630  14.106  17.149  0.00  0.00     0.016 A 
HETATM    3  C   UNK N   1      35.332  13.596  18.409  0.00  0.00     0.013 A 
HETATM    4  C   UNK N   1      35.230  12.220  18.595  0.00  0.00    -0.025 A 
HETATM    5  C   UNK N   1      34.934  11.724  19.853  0.00  0.00     0.029 A 
HETATM    6  C   UNK N   1      34.824  10.349  20.078  0.00  0.00     0.033 A 
HETATM    7  C   UNK N   1      35.018   9.457  19.007  0.00  0.00     0.018 A 
HETATM    8  C   UNK N   1      35.319   9.952  17.726  0.00  0.00     0.013 A 
HETATM    9  C   UNK N   1      35.426  11.335  17.517  0.00  0.00    -0.025 A 
HETATM   10  C   UNK N   1      35.726  11.852  16.249  0.00  0.00     0.027 A 
ENDROOT
BRANCH   6  11
HETATM   11  C   UNK N   1      34.505   9.895  21.445  0.00  0.00     0.256 C 
HETATM   12  O   UNK N   1      35.355   9.369  22.146  0.00  0.00    -0.267 OA
HETATM   13  N   UNK N   1      33.233  10.085  21.893  0.00  0.00    -0.323 N 
HETATM   14  H   UNK N   1      32.617  10.518  21.258  0.00  0.00     0.169 HD
BRANCH  13  15
HETATM   15  C   UNK N   1      32.679   9.744  23.152  0.00  0.00     0.035 A 
HETATM   16  C   UNK N   1      32.750  10.695  24.176  0.00  0.00     0.029 A 
HETATM   17  C   UNK N   1      32.223  10.420  25.439  0.00  0.00     0.002 A 
HETATM   18  C   UNK N   1      31.620   9.186  25.685  0.00  0.00     0.000 A 
HETATM   19  C   UNK N   1      31.543   8.228  24.667  0.00  0.00     0.002 A 
HETATM   20  C   UNK N   1      32.072   8.505  23.401  0.00  0.00     0.029 A 
ENDBRANCH  13  15
ENDBRANCH   6  11
BRANCH   1  21
HETATM   21  C   UNK N   1      36.143  13.814  14.736  0.00  0.00     0.102 C 
HETATM   22  N   UNK N   1      37.032  14.730  14.616  0.00  0.00    -0.385 N 
HETATM   23  H   UNK N   1      37.237  15.105  13.728  0.00  0.00     0.157 HD
ATOM     24  HN  UNK N   1      37.529  15.071  15.439  1.00  0.00     0.157 HD
BRANCH  21  25
HETATM   25  N   UNK N   1      35.463  13.351  13.585  0.00  0.00    -0.385 N 
HETATM   26  H   UNK N   1      35.216  12.401  13.508  0.00  0.00     0.157 HD
HETATM   27  H   UNK N   1      35.237  13.978  12.861  0.00  0.00     0.157 HD
ENDBRANCH  21  25
ENDBRANCH   1  21
TORSDOF 4
ENDMDL
MODEL 8
REMARK VINA RESULT:      -7.1     10.118     15.614
REMARK  4 active torsions:
REMARK  status: ('A' for Active; 'I' for Inactive)
REMARK    1  A    between atoms: C_3  and  N_4 
REMARK    2  A    between atoms: C_3  and  C_5 
REMARK    3  A    between atoms: C_10  and  C_15 
REMARK       I    between atoms: C_15  and  N_17 
REMARK    4  A    between atoms: N_17  and  C_18 
ROOT
HETATM    1  C   UNK N   1      35.063  11.009  16.608  0.00  0.00     0.008 A 
HETATM    2  C   UNK N   1      34.256  10.440  15.614  0.00  0.00     0.016 A 
HETATM    3  C   UNK N   1      34.166  11.028  14.355  0.00  0.00     0.013 A 
HETATM    4  C   UNK N   1      34.882  12.189  14.078  0.00  0.00    -0.025 A 
HETATM    5  C   UNK N   1      34.786  12.765  12.823  0.00  0.00     0.029 A 
HETATM    6  C   UNK N   1      35.490  13.930  12.509  0.00  0.00     0.033 A 
HETATM    7  C   UNK N   1      36.311  14.525  13.485  0.00  0.00     0.018 A 
HETATM    8  C   UNK N   1      36.415  13.947  14.762  0.00  0.00     0.013 A 
HETATM    9  C   UNK N   1      35.701  12.777  15.062  0.00  0.00    -0.025 A 
HETATM   10  C   UNK N   1      35.789  12.183  16.328  0.00  0.00     0.027 A 
ENDROOT
BRANCH   6  11
HETATM   11  C   UNK N   1      35.337  14.485  11.150  0.00  0.00     0.256 C 
HETATM   12  O   UNK N   1      36.088  14.150  10.246  0.00  0.00    -0.267 OA
HETATM   13  N   UNK N   1      34.331  15.380  10.943  0.00  0.00    -0.323 N 
HETATM   14  H   UNK N   1      33.778  15.589  11.730  0.00  0.00     0.169 HD
BRANCH  13  15
HETATM   15  C   UNK N   1      33.977  16.050   9.746  0.00  0.00     0.035 A 
HETATM   16  C   UNK N   1      34.716  17.185   9.391  0.00  0.00     0.029 A 
HETATM   17  C   UNK N   1      34.417  17.890   8.224  0.00  0.00     0.002 A 
HETATM   18  C   UNK N   1      33.373  17.462   7.403  0.00  0.00     0.000 A 
HETATM   19  C   UNK N   1      32.629  16.328   7.750  0.00  0.00     0.002 A 
HETATM   20  C   UNK N   1      32.929  15.622   8.920  0.00  0.00     0.029 A 
ENDBRANCH  13  15
ENDBRANCH   6  11
BRANCH   1  21
HETATM   21  C   UNK N   1      35.140  10.363  17.934  0.00  0.00     0.102 C 
HETATM   22  N   UNK N   1      35.992  10.763  18.804  0.00  0.00    -0.385 N 
HETATM   23  H   UNK N   1      36.037  10.328  19.687  0.00  0.00     0.157 HD
ATOM     24  HN  UNK N   1      36.625  11.532  18.583  1.00  0.00     0.157 HD
BRANCH  21  25
HETATM   25  N   UNK N   1      34.269   9.295  18.255  0.00  0.00    -0.385 N 
HETATM   26  H   UNK N   1      34.446   8.737  19.046  0.00  0.00     0.157 HD
HETATM   27  H   UNK N   1      33.485   9.111  17.688  0.00  0.00     0.157 HD
ENDBRANCH  21  25
ENDBRANCH   1  21
TORSDOF 4
ENDMDL
MODEL 9
REMARK VINA RESULT:      -7.0      1.338      2.149
REMARK  4 active torsions:
REMARK  status: ('A' for Active; 'I' for Inactive)
REMARK    1  A    between atoms: C_3  and  N_4 
REMARK    2  A    between atoms: C_3  and  C_5 
REMARK    3  A    between atoms: C_10  and  C_15 
REMARK       I    between atoms: C_15  and  N_17 
REMARK    4  A    between atoms: N_17  and  C_18 
ROOT
HETATM    1  C   UNK N   1      21.045  18.134   2.869  0.00  0.00     0.008 A 
HETATM    2  C   UNK N   1      21.552  19.439   2.856  0.00  0.00     0.016 A 
HETATM    3  C   UNK N   1      22.803  19.716   3.400  0.00  0.00     0.013 A 
HETATM    4  C   UNK N   1      23.558  18.691   3.963  0.00  0.00    -0.025 A 
HETATM    5  C   UNK N   1      24.801  18.977   4.501  0.00  0.00     0.029 A 
HETATM    6  C   UNK N   1      25.586  17.974   5.074  0.00  0.00     0.033 A 
HETATM    7  C   UNK N   1      25.105  16.652   5.103  0.00  0.00     0.018 A 
HETATM    8  C   UNK N   1      23.844  16.352   4.559  0.00  0.00     0.013 A 
HETATM    9  C   UNK N   1      23.067  17.370   3.987  0.00  0.00    -0.025 A 
HETATM   10  C   UNK N   1      21.808  17.095   3.438  0.00  0.00     0.027 A 
ENDROOT
BRANCH   6  11
HETATM   11  C   UNK N   1      26.900  18.356   5.628  0.00  0.00     0.256 C 
HETATM   12  O   UNK N   1      27.528  19.294   5.163  0.00  0.00    -0.267 OA
HETATM   13  N   UNK N   1      27.382  17.625   6.671  0.00  0.00    -0.323 N 
HETATM   14  H   UNK N   1      26.806  16.888   6.978  0.00  0.00     0.169 HD
BRANCH  13  15
HETATM   15  C   UNK N   1      28.602  17.785   7.373  0.00  0.00     0.035 A 
HETATM   16  C   UNK N   1      29.726  17.100   6.894  0.00  0.00     0.029 A 
HETATM   17  C   UNK N   1      30.957  17.216   7.541  0.00  0.00     0.002 A 
HETATM   18  C   UNK N   1      31.072  18.022   8.674  0.00  0.00     0.000 A 
HETATM   19  C   UNK N   1      29.955  18.711   9.161  0.00  0.00     0.002 A 
HETATM   20  C   UNK N   1      28.721  18.594   8.512  0.00  0.00     0.029 A 
ENDBRANCH  13  15
ENDBRANCH   6  11
BRANCH   1  21
HETATM   21  C   UNK N   1      19.714  17.869   2.284  0.00  0.00     0.102 C 
HETATM   22  N   UNK N   1      19.477  16.763   1.681  0.00  0.00    -0.385 N 
HETATM   23  H   UNK N   1      18.587  16.594   1.293  0.00  0.00     0.157 HD
ATOM     24  HN  UNK N   1      20.209  16.058   1.601  1.00  0.00     0.157 HD
BRANCH  21  25
HETATM   25  N   UNK N   1      18.688  18.839   2.387  0.00  0.00    -0.385 N 
HETATM   26  H   UNK N   1      18.805  19.724   1.973  0.00  0.00     0.157 HD
HETATM   27  H   UNK N   1      17.858  18.627   2.872  0.00  0.00     0.157 HD
ENDBRANCH  21  25
ENDBRANCH   1  21
TORSDOF 4
ENDMDL
