REMARK  4 active torsions:
REMARK  status: ('A' for Active; 'I' for Inactive)
REMARK    1  A    between atoms: C_3  and  N_4 
REMARK    2  A    between atoms: C_3  and  C_5 
REMARK    3  A    between atoms: C_10  and  C_15 
REMARK       I    between atoms: C_15  and  N_17 
REMARK    4  A    between atoms: N_17  and  C_18 
ROOT
HETATM    1  C   UNK N   1      -3.959  -1.914   0.000  0.00  0.00     0.008 A 
HETATM    2  C   UNK N   1      -3.865  -0.516   0.000  0.00  0.00     0.016 A 
HETATM    3  C   UNK N   1      -2.621   0.108   0.000  0.00  0.00     0.013 A 
HETATM    4  C   UNK N   1      -1.459  -0.659   0.000  0.00  0.00    -0.025 A 
HETATM    5  C   UNK N   1      -0.227  -0.028  -0.000  0.00  0.00     0.029 A 
HETATM    6  C   UNK N   1       0.960  -0.765  -0.000  0.00  0.00     0.033 A 
HETATM    7  C   UNK N   1       0.900  -2.171  -0.000  0.00  0.00     0.018 A 
HETATM    8  C   UNK N   1      -0.347  -2.820   0.000  0.00  0.00     0.013 A 
HETATM    9  C   UNK N   1      -1.530  -2.066   0.000  0.00  0.00    -0.025 A 
HETATM   10  C   UNK N   1      -2.784  -2.691   0.000  0.00  0.00     0.027 A 
ENDROOT
BRANCH   6  11
HETATM   11  C   UNK N   1       2.235  -0.022  -0.000  0.00  0.00     0.256 C 
HETATM   12  O   UNK N   1       3.305  -0.611  -0.000  0.00  0.00    -0.267 OA
HETATM   13  N   UNK N   1       2.173   1.339  -0.000  0.00  0.00    -0.323 N 
HETATM   14  H   UNK N   1       1.267   1.724  -0.000  0.00  0.00     0.169 HD
BRANCH  13  15
HETATM   15  C   UNK N   1       3.239   2.272  -0.000  0.00  0.00     0.035 A 
HETATM   16  C   UNK N   1       2.914   3.634  -0.000  0.00  0.00     0.029 A 
HETATM   17  C   UNK N   1       3.918   4.603  -0.000  0.00  0.00     0.002 A 
HETATM   18  C   UNK N   1       5.258   4.214   0.000  0.00  0.00     0.000 A 
HETATM   19  C   UNK N   1       5.593   2.855   0.000  0.00  0.00     0.002 A 
HETATM   20  C   UNK N   1       4.586   1.884   0.000  0.00  0.00     0.029 A 
ENDBRANCH  13  15
ENDBRANCH   6  11
BRANCH   1  21
HETATM   21  C   UNK N   1      -5.293  -2.549   0.000  0.00  0.00     0.102 C 
HETATM   22  N   UNK N   1      -5.405  -3.826   0.000  0.00  0.00    -0.385 N 
HETATM   23  H   UNK N   1      -6.298  -4.242  -0.000  0.00  0.00     0.157 HD
ATOM     24  HN  UNK N   1      -4.570  -4.412   0.000  1.00  0.00     0.157 HD
BRANCH  21  25
HETATM   25  N   UNK N   1      -6.460  -1.749  -0.000  0.00  0.00    -0.385 N 
HETATM   26  H   UNK N   1      -6.384  -0.768  -0.000  0.00  0.00     0.157 HD
HETATM   27  H   UNK N   1      -7.348  -2.174  -0.000  0.00  0.00     0.157 HD
ENDBRANCH  21  25
ENDBRANCH   1  21
TORSDOF 4
