MODEL 1
REMARK VINA RESULT:      -7.7      0.000      0.000
REMARK  5 active torsions:
REMARK  status: ('A' for Active; 'I' for Inactive)
REMARK    1  A    between atoms: C_6  and  C_8 
REMARK    2  A    between atoms: C_9  and  N_15 
REMARK    3  A    between atoms: N_15  and  C_16 
REMARK    4  A    between atoms: C_20  and  C_23 
REMARK    5  A    between atoms: C_23  and  O_25 
ROOT
HETATM    1  C   UNK N   1      36.068  13.627  16.400  0.00  0.00     0.074 A 
HETATM    2  C   UNK N   1      36.773  14.459  15.621  0.00  0.00     0.118 A 
HETATM    3  C   UNK N   1      37.026  15.675  16.433  0.00  0.00     0.276 A 
HETATM    4  C   UNK N   1      35.887  14.326  17.686  0.00  0.00     0.261 A 
HETATM    5  O   UNK N   1      35.295  13.898  18.662  0.00  0.00    -0.267 OA
HETATM    6  O   UNK N   1      37.634  16.676  16.102  0.00  0.00    -0.266 OA
HETATM    7  N   UNK N   1      36.474  15.534  17.652  0.00  0.00    -0.288 N 
HETATM    8  H   UNK N   1      36.496  16.194  18.382  0.00  0.00     0.172 HD
ENDROOT
BRANCH   2   9
HETATM    9  N   UNK N   1      37.152  14.132  14.279  0.00  0.00    -0.351 N 
HETATM   10  H   UNK N   1      38.099  13.893  14.160  0.00  0.00     0.166 HD
BRANCH   9  11
HETATM   11  C   UNK N   1      36.372  14.100  13.098  0.00  0.00     0.033 A 
HETATM   12  C   UNK N   1      35.894  12.871  12.641  0.00  0.00     0.031 A 
HETATM   13  C   UNK N   1      35.122  12.804  11.481  0.00  0.00     0.027 A 
HETATM   14  C   UNK N   1      34.818  13.966  10.762  0.00  0.00     0.051 A 
HETATM   15  C   UNK N   1      35.300  15.218  11.220  0.00  0.00     0.061 A 
HETATM   16 Cl   UNK N   1      33.841  13.787   9.313  0.00  0.00    -0.083 Cl
HETATM   17  C   UNK N   1      36.070  15.253  12.385  0.00  0.00     0.049 A 
BRANCH  15  18
HETATM   18  C   UNK N   1      35.038  16.512  10.536  0.00  0.00     0.177 C 
HETATM   19  O   UNK N   1      35.917  17.359  10.485  0.00  0.00    -0.646 OA
BRANCH  18  20
HETATM   20  O   UNK N   1      33.849  16.775   9.967  0.00  0.00    -0.773 OA
HETATM   21  H   UNK N   1      33.302  16.071   9.677  0.00  0.00     0.167 HD
ENDBRANCH  18  20
ENDBRANCH  15  18
ENDBRANCH   9  11
ENDBRANCH   2   9
BRANCH   1  22
HETATM   22  C   UNK N   1      35.574  12.273  16.029  0.00  0.00    -0.016 A 
HETATM   23  C   UNK N   1      34.288  12.099  15.499  0.00  0.00     0.012 A 
HETATM   24  C   UNK N   1      33.836  10.819  15.154  0.00  0.00     0.003 A 
HETATM   25  C   UNK N   1      34.665   9.707  15.337  0.00  0.00     0.024 A 
HETATM   26  C   UNK N   1      35.946   9.876  15.865  0.00  0.00     0.034 A 
HETATM   27  C   UNK N   1      36.393  11.149  16.206  0.00  0.00     0.036 A 
HETATM   28 Cl   UNK N   1      37.000   8.498  16.102  0.00  0.00    -0.084 Cl
ENDBRANCH   1  22
TORSDOF 5
ENDMDL
MODEL 2
REMARK VINA RESULT:      -7.5     20.220     23.766
REMARK  5 active torsions:
REMARK  status: ('A' for Active; 'I' for Inactive)
REMARK    1  A    between atoms: C_6  and  C_8 
REMARK    2  A    between atoms: C_9  and  N_15 
REMARK    3  A    between atoms: N_15  and  C_16 
REMARK    4  A    between atoms: C_20  and  C_23 
REMARK    5  A    between atoms: C_23  and  O_25 
ROOT
HETATM    1  C   UNK N   1      27.300  27.186  -4.126  0.00  0.00     0.074 A 
HETATM    2  C   UNK N   1      28.588  27.523  -3.969  0.00  0.00     0.118 A 
HETATM    3  C   UNK N   1      28.609  28.629  -2.979  0.00  0.00     0.276 A 
HETATM    4  C   UNK N   1      26.532  28.078  -3.238  0.00  0.00     0.261 A 
HETATM    5  O   UNK N   1      25.321  28.084  -3.094  0.00  0.00    -0.267 OA
HETATM    6  O   UNK N   1      29.581  29.225  -2.553  0.00  0.00    -0.266 OA
HETATM    7  N   UNK N   1      27.356  28.912  -2.582  0.00  0.00    -0.288 N 
HETATM    8  H   UNK N   1      27.092  29.603  -1.932  0.00  0.00     0.172 HD
ENDROOT
BRANCH   2   9
HETATM    9  N   UNK N   1      29.651  26.874  -4.674  0.00  0.00    -0.351 N 
HETATM   10  H   UNK N   1      30.232  27.473  -5.196  0.00  0.00     0.166 HD
BRANCH   9  11
HETATM   11  C   UNK N   1      29.994  25.502  -4.736  0.00  0.00     0.033 A 
HETATM   12  C   UNK N   1      30.015  24.870  -5.980  0.00  0.00     0.031 A 
HETATM   13  C   UNK N   1      30.350  23.519  -6.078  0.00  0.00     0.027 A 
HETATM   14  C   UNK N   1      30.668  22.782  -4.932  0.00  0.00     0.051 A 
HETATM   15  C   UNK N   1      30.649  23.417  -3.664  0.00  0.00     0.061 A 
HETATM   16 Cl   UNK N   1      31.076  21.086  -5.149  0.00  0.00    -0.083 Cl
HETATM   17  C   UNK N   1      30.311  24.771  -3.599  0.00  0.00     0.049 A 
BRANCH  15  18
HETATM   18  C   UNK N   1      30.968  22.730  -2.384  0.00  0.00     0.177 C 
HETATM   19  O   UNK N   1      30.283  22.943  -1.395  0.00  0.00    -0.646 OA
BRANCH  18  20
HETATM   20  O   UNK N   1      32.001  21.875  -2.287  0.00  0.00    -0.773 OA
HETATM   21  H   UNK N   1      31.844  20.969  -2.104  0.00  0.00     0.167 HD
ENDBRANCH  18  20
ENDBRANCH  15  18
ENDBRANCH   9  11
ENDBRANCH   2   9
BRANCH   1  22
HETATM   22  C   UNK N   1      26.767  26.122  -5.020  0.00  0.00    -0.016 A 
HETATM   23  C   UNK N   1      26.503  24.836  -4.527  0.00  0.00     0.012 A 
HETATM   24  C   UNK N   1      26.002  23.844  -5.378  0.00  0.00     0.003 A 
HETATM   25  C   UNK N   1      25.763  24.130  -6.727  0.00  0.00     0.024 A 
HETATM   26  C   UNK N   1      26.025  25.408  -7.223  0.00  0.00     0.034 A 
HETATM   27  C   UNK N   1      26.522  26.392  -6.374  0.00  0.00     0.036 A 
HETATM   28 Cl   UNK N   1      25.732  25.786  -8.907  0.00  0.00    -0.084 Cl
ENDBRANCH   1  22
TORSDOF 5
ENDMDL
MODEL 3
REMARK VINA RESULT:      -7.5      8.686     11.521
REMARK  5 active torsions:
REMARK  status: ('A' for Active; 'I' for Inactive)
REMARK    1  A    between atoms: C_6  and  C_8 
REMARK    2  A    between atoms: C_9  and  N_15 
REMARK    3  A    between atoms: N_15  and  C_16 
REMARK    4  A    between atoms: C_20  and  C_23 
REMARK    5  A    between atoms: C_23  and  O_25 
ROOT
HETATM    1  C   UNK N   1      32.047  17.139   6.820  0.00  0.00     0.074 A 
HETATM    2  C   UNK N   1      30.799  17.222   7.304  0.00  0.00     0.118 A 
HETATM    3  C   UNK N   1      30.929  17.679   8.710  0.00  0.00     0.276 A 
HETATM    4  C   UNK N   1      32.940  17.543   7.922  0.00  0.00     0.261 A 
HETATM    5  O   UNK N   1      34.158  17.600   7.878  0.00  0.00    -0.267 OA
HETATM    6  O   UNK N   1      30.034  17.885   9.508  0.00  0.00    -0.266 OA
HETATM    7  N   UNK N   1      32.227  17.853   9.017  0.00  0.00    -0.288 N 
HETATM    8  H   UNK N   1      32.586  18.151   9.884  0.00  0.00     0.172 HD
ENDROOT
BRANCH   2   9
HETATM    9  N   UNK N   1      29.642  16.905   6.523  0.00  0.00    -0.351 N 
HETATM   10  H   UNK N   1      29.437  15.945   6.453  0.00  0.00     0.166 HD
BRANCH   9  11
HETATM   11  C   UNK N   1      28.749  17.761   5.834  0.00  0.00     0.033 A 
HETATM   12  C   UNK N   1      28.422  17.466   4.510  0.00  0.00     0.031 A 
HETATM   13  C   UNK N   1      27.544  18.288   3.803  0.00  0.00     0.027 A 
HETATM   14  C   UNK N   1      26.981  19.416   4.411  0.00  0.00     0.051 A 
HETATM   15  C   UNK N   1      27.309  19.722   5.756  0.00  0.00     0.061 A 
HETATM   16 Cl   UNK N   1      25.887  20.394   3.444  0.00  0.00    -0.083 Cl
HETATM   17  C   UNK N   1      28.190  18.879   6.439  0.00  0.00     0.049 A 
BRANCH  15  18
HETATM   18  C   UNK N   1      26.771  20.893   6.499  0.00  0.00     0.177 C 
HETATM   19  O   UNK N   1      27.063  22.023   6.140  0.00  0.00    -0.646 OA
BRANCH  18  20
HETATM   20  O   UNK N   1      25.964  20.736   7.563  0.00  0.00    -0.773 OA
HETATM   21  H   UNK N   1      25.880  21.426   8.192  0.00  0.00     0.167 HD
ENDBRANCH  18  20
ENDBRANCH  15  18
ENDBRANCH   9  11
ENDBRANCH   2   9
BRANCH   1  22
HETATM   22  C   UNK N   1      32.437  16.722   5.446  0.00  0.00    -0.016 A 
HETATM   23  C   UNK N   1      32.185  17.554   4.345  0.00  0.00     0.012 A 
HETATM   24  C   UNK N   1      32.557  17.150   3.057  0.00  0.00     0.003 A 
HETATM   25  C   UNK N   1      33.181  15.913   2.861  0.00  0.00     0.024 A 
HETATM   26  C   UNK N   1      33.432  15.081   3.953  0.00  0.00     0.034 A 
HETATM   27  C   UNK N   1      33.063  15.486   5.232  0.00  0.00     0.036 A 
HETATM   28 Cl   UNK N   1      34.212  13.530   3.729  0.00  0.00    -0.084 Cl
ENDBRANCH   1  22
TORSDOF 5
ENDMDL
MODEL 4
REMARK VINA RESULT:      -7.4     13.126     15.127
REMARK  5 active torsions:
REMARK  status: ('A' for Active; 'I' for Inactive)
REMARK    1  A    between atoms: C_6  and  C_8 
REMARK    2  A    between atoms: C_9  and  N_15 
REMARK    3  A    between atoms: N_15  and  C_16 
REMARK    4  A    between atoms: C_20  and  C_23 
REMARK    5  A    between atoms: C_23  and  O_25 
ROOT
HETATM    1  C   UNK N   1      23.137  12.473   9.675  0.00  0.00     0.074 A 
HETATM    2  C   UNK N   1      21.814  12.670   9.771  0.00  0.00     0.118 A 
HETATM    3  C   UNK N   1      21.433  12.261  11.146  0.00  0.00     0.276 A 
HETATM    4  C   UNK N   1      23.568  11.947  10.982  0.00  0.00     0.261 A 
HETATM    5  O   UNK N   1      24.707  11.642  11.296  0.00  0.00    -0.267 OA
HETATM    6  O   UNK N   1      20.324  12.283  11.646  0.00  0.00    -0.266 OA
HETATM    7  N   UNK N   1      22.521  11.841  11.817  0.00  0.00    -0.288 N 
HETATM    8  H   UNK N   1      22.544  11.517  12.746  0.00  0.00     0.172 HD
ENDROOT
BRANCH   2   9
HETATM    9  N   UNK N   1      21.025  13.179   8.690  0.00  0.00    -0.351 N 
HETATM   10  H   UNK N   1      20.402  12.532   8.289  0.00  0.00     0.166 HD
BRANCH   9  11
HETATM   11  C   UNK N   1      21.004  14.471   8.112  0.00  0.00     0.033 A 
HETATM   12  C   UNK N   1      21.684  14.680   6.911  0.00  0.00     0.031 A 
HETATM   13  C   UNK N   1      21.684  15.941   6.313  0.00  0.00     0.027 A 
HETATM   14  C   UNK N   1      21.002  17.009   6.908  0.00  0.00     0.051 A 
HETATM   15  C   UNK N   1      20.308  16.804   8.127  0.00  0.00     0.061 A 
HETATM   16 Cl   UNK N   1      21.057  18.560   6.084  0.00  0.00    -0.083 Cl
HETATM   17  C   UNK N   1      20.327  15.530   8.701  0.00  0.00     0.049 A 
BRANCH  15  18
HETATM   18  C   UNK N   1      19.553  17.865   8.844  0.00  0.00     0.177 C 
HETATM   19  O   UNK N   1      20.142  18.854   9.256  0.00  0.00    -0.646 OA
BRANCH  18  20
HETATM   20  O   UNK N   1      18.229  17.764   9.052  0.00  0.00    -0.773 OA
HETATM   21  H   UNK N   1      17.884  17.034   9.528  0.00  0.00     0.167 HD
ENDBRANCH  18  20
ENDBRANCH  15  18
ENDBRANCH   9  11
ENDBRANCH   2   9
BRANCH   1  22
HETATM   22  C   UNK N   1      23.985  12.739   8.481  0.00  0.00    -0.016 A 
HETATM   23  C   UNK N   1      24.050  11.816   7.427  0.00  0.00     0.012 A 
HETATM   24  C   UNK N   1      24.852  12.078   6.310  0.00  0.00     0.003 A 
HETATM   25  C   UNK N   1      25.595  13.262   6.239  0.00  0.00     0.024 A 
HETATM   26  C   UNK N   1      25.535  14.183   7.286  0.00  0.00     0.034 A 
HETATM   27  C   UNK N   1      24.736  13.920   8.395  0.00  0.00     0.036 A 
HETATM   28 Cl   UNK N   1      26.456  15.670   7.217  0.00  0.00    -0.084 Cl
ENDBRANCH   1  22
TORSDOF 5
ENDMDL
MODEL 5
REMARK VINA RESULT:      -7.4     20.661     24.254
REMARK  5 active torsions:
REMARK  status: ('A' for Active; 'I' for Inactive)
REMARK    1  A    between atoms: C_6  and  C_8 
REMARK    2  A    between atoms: C_9  and  N_15 
REMARK    3  A    between atoms: N_15  and  C_16 
REMARK    4  A    between atoms: C_20  and  C_23 
REMARK    5  A    between atoms: C_23  and  O_25 
ROOT
HETATM    1  C   UNK N   1      26.286  22.783  -7.391  0.00  0.00     0.074 A 
HETATM    2  C   UNK N   1      27.438  22.108  -7.515  0.00  0.00     0.118 A 
HETATM    3  C   UNK N   1      27.078  20.768  -8.042  0.00  0.00     0.276 A 
HETATM    4  C   UNK N   1      25.223  21.865  -7.839  0.00  0.00     0.261 A 
HETATM    5  O   UNK N   1      24.029  22.110  -7.877  0.00  0.00    -0.267 OA
HETATM    6  O   UNK N   1      27.828  19.846  -8.300  0.00  0.00    -0.266 OA
HETATM    7  N   UNK N   1      25.746  20.686  -8.214  0.00  0.00    -0.288 N 
HETATM    8  H   UNK N   1      25.249  19.906  -8.552  0.00  0.00     0.172 HD
ENDROOT
BRANCH   2   9
HETATM    9  N   UNK N   1      28.709  22.672  -7.173  0.00  0.00    -0.351 N 
HETATM   10  H   UNK N   1      29.008  23.407  -7.755  0.00  0.00     0.166 HD
BRANCH   9  11
HETATM   11  C   UNK N   1      29.601  22.332  -6.128  0.00  0.00     0.033 A 
HETATM   12  C   UNK N   1      30.441  21.230  -6.292  0.00  0.00     0.031 A 
HETATM   13  C   UNK N   1      31.332  20.868  -5.283  0.00  0.00     0.027 A 
HETATM   14  C   UNK N   1      31.396  21.604  -4.094  0.00  0.00     0.051 A 
HETATM   15  C   UNK N   1      30.546  22.726  -3.920  0.00  0.00     0.061 A 
HETATM   16 Cl   UNK N   1      32.548  21.075  -2.877  0.00  0.00    -0.083 Cl
HETATM   17  C   UNK N   1      29.664  23.064  -4.949  0.00  0.00     0.049 A 
BRANCH  15  18
HETATM   18  C   UNK N   1      30.530  23.577  -2.700  0.00  0.00     0.177 C 
HETATM   19  O   UNK N   1      30.692  24.783  -2.802  0.00  0.00    -0.646 OA
BRANCH  18  20
HETATM   20  O   UNK N   1      30.341  23.047  -1.479  0.00  0.00    -0.773 OA
HETATM   21  H   UNK N   1      30.972  23.194  -0.801  0.00  0.00     0.167 HD
ENDBRANCH  18  20
ENDBRANCH  15  18
ENDBRANCH   9  11
ENDBRANCH   2   9
BRANCH   1  22
HETATM   22  C   UNK N   1      26.129  24.179  -6.899  0.00  0.00    -0.016 A 
HETATM   23  C   UNK N   1      25.822  25.222  -7.785  0.00  0.00     0.012 A 
HETATM   24  C   UNK N   1      25.676  26.530  -7.309  0.00  0.00     0.003 A 
HETATM   25  C   UNK N   1      25.837  26.806  -5.947  0.00  0.00     0.024 A 
HETATM   26  C   UNK N   1      26.144  25.771  -5.061  0.00  0.00     0.034 A 
HETATM   27  C   UNK N   1      26.287  24.471  -5.537  0.00  0.00     0.036 A 
HETATM   28 Cl   UNK N   1      26.349  26.094  -3.353  0.00  0.00    -0.084 Cl
ENDBRANCH   1  22
TORSDOF 5
ENDMDL
MODEL 6
REMARK VINA RESULT:      -7.4     14.907     17.210
REMARK  5 active torsions:
REMARK  status: ('A' for Active; 'I' for Inactive)
REMARK    1  A    between atoms: C_6  and  C_8 
REMARK    2  A    between atoms: C_9  and  N_15 
REMARK    3  A    between atoms: N_15  and  C_16 
REMARK    4  A    between atoms: C_20  and  C_23 
REMARK    5  A    between atoms: C_23  and  O_25 
ROOT
HETATM    1  C   UNK N   1      23.583  19.199   3.806  0.00  0.00     0.074 A 
HETATM    2  C   UNK N   1      22.719  18.221   4.109  0.00  0.00     0.118 A 
HETATM    3  C   UNK N   1      21.401  18.652   3.579  0.00  0.00     0.276 A 
HETATM    4  C   UNK N   1      22.803  20.228   3.094  0.00  0.00     0.261 A 
HETATM    5  O   UNK N   1      23.233  21.280   2.651  0.00  0.00    -0.267 OA
HETATM    6  O   UNK N   1      20.344  18.053   3.641  0.00  0.00    -0.266 OA
HETATM    7  N   UNK N   1      21.518  19.854   2.986  0.00  0.00    -0.288 N 
HETATM    8  H   UNK N   1      20.795  20.364   2.554  0.00  0.00     0.172 HD
ENDROOT
BRANCH   2   9
HETATM    9  N   UNK N   1      23.105  17.034   4.811  0.00  0.00    -0.351 N 
HETATM   10  H   UNK N   1      23.899  16.578   4.453  0.00  0.00     0.166 HD
BRANCH   9  11
HETATM   11  C   UNK N   1      22.517  16.417   5.942  0.00  0.00     0.033 A 
HETATM   12  C   UNK N   1      23.023  15.191   6.376  0.00  0.00     0.031 A 
HETATM   13  C   UNK N   1      22.468  14.555   7.487  0.00  0.00     0.027 A 
HETATM   14  C   UNK N   1      21.400  15.138   8.179  0.00  0.00     0.051 A 
HETATM   15  C   UNK N   1      20.881  16.384   7.743  0.00  0.00     0.061 A 
HETATM   16 Cl   UNK N   1      20.764  14.266   9.566  0.00  0.00    -0.083 Cl
HETATM   17  C   UNK N   1      21.458  16.996   6.628  0.00  0.00     0.049 A 
BRANCH  15  18
HETATM   18  C   UNK N   1      19.751  17.091   8.402  0.00  0.00     0.177 C 
HETATM   19  O   UNK N   1      19.949  18.156   8.965  0.00  0.00    -0.646 OA
BRANCH  18  20
HETATM   20  O   UNK N   1      18.506  16.582   8.394  0.00  0.00    -0.773 OA
HETATM   21  H   UNK N   1      17.767  17.153   8.320  0.00  0.00     0.167 HD
ENDBRANCH  18  20
ENDBRANCH  15  18
ENDBRANCH   9  11
ENDBRANCH   2   9
BRANCH   1  22
HETATM   22  C   UNK N   1      25.036  19.227   4.129  0.00  0.00    -0.016 A 
HETATM   23  C   UNK N   1      25.908  18.265   3.598  0.00  0.00     0.012 A 
HETATM   24  C   UNK N   1      27.272  18.303   3.910  0.00  0.00     0.003 A 
HETATM   25  C   UNK N   1      27.774  19.300   4.754  0.00  0.00     0.024 A 
HETATM   26  C   UNK N   1      26.909  20.259   5.286  0.00  0.00     0.034 A 
HETATM   27  C   UNK N   1      25.554  20.219   4.973  0.00  0.00     0.036 A 
HETATM   28 Cl   UNK N   1      27.516  21.514   6.344  0.00  0.00    -0.084 Cl
ENDBRANCH   1  22
TORSDOF 5
ENDMDL
MODEL 7
REMARK VINA RESULT:      -7.3     15.602     17.395
REMARK  5 active torsions:
REMARK  status: ('A' for Active; 'I' for Inactive)
REMARK    1  A    between atoms: C_6  and  C_8 
REMARK    2  A    between atoms: C_9  and  N_15 
REMARK    3  A    between atoms: N_15  and  C_16 
REMARK    4  A    between atoms: C_20  and  C_23 
REMARK    5  A    between atoms: C_23  and  O_25 
ROOT
HETATM    1  C   UNK N   1      20.598  15.001   7.773  0.00  0.00     0.074 A 
HETATM    2  C   UNK N   1      20.909  16.190   7.236  0.00  0.00     0.118 A 
HETATM    3  C   UNK N   1      20.267  17.214   8.097  0.00  0.00     0.276 A 
HETATM    4  C   UNK N   1      19.770  15.291   8.958  0.00  0.00     0.261 A 
HETATM    5  O   UNK N   1      19.287  14.469   9.718  0.00  0.00    -0.267 OA
HETATM    6  O   UNK N   1      20.302  18.423   7.964  0.00  0.00    -0.266 OA
HETATM    7  N   UNK N   1      19.605  16.616   9.104  0.00  0.00    -0.288 N 
HETATM    8  H   UNK N   1      19.095  17.067   9.816  0.00  0.00     0.172 HD
ENDROOT
BRANCH   2   9
HETATM    9  N   UNK N   1      21.711  16.323   6.058  0.00  0.00    -0.351 N 
HETATM   10  H   UNK N   1      22.683  16.296   6.210  0.00  0.00     0.166 HD
BRANCH   9  11
HETATM   11  C   UNK N   1      21.320  16.489   4.707  0.00  0.00     0.033 A 
HETATM   12  C   UNK N   1      21.694  15.520   3.776  0.00  0.00     0.031 A 
HETATM   13  C   UNK N   1      21.325  15.652   2.437  0.00  0.00     0.027 A 
HETATM   14  C   UNK N   1      20.576  16.755   2.012  0.00  0.00     0.051 A 
HETATM   15  C   UNK N   1      20.191  17.744   2.953  0.00  0.00     0.061 A 
HETATM   16 Cl   UNK N   1      20.156  16.838   0.307  0.00  0.00    -0.083 Cl
HETATM   17  C   UNK N   1      20.576  17.583   4.287  0.00  0.00     0.049 A 
BRANCH  15  18
HETATM   18  C   UNK N   1      19.397  18.953   2.612  0.00  0.00     0.177 C 
HETATM   19  O   UNK N   1      19.932  20.052   2.624  0.00  0.00    -0.646 OA
BRANCH  18  20
HETATM   20  O   UNK N   1      18.095  18.868   2.288  0.00  0.00    -0.773 OA
HETATM   21  H   UNK N   1      17.462  18.650   2.944  0.00  0.00     0.167 HD
ENDBRANCH  18  20
ENDBRANCH  15  18
ENDBRANCH   9  11
ENDBRANCH   2   9
BRANCH   1  22
HETATM   22  C   UNK N   1      21.013  13.666   7.264  0.00  0.00    -0.016 A 
HETATM   23  C   UNK N   1      20.378  13.092   6.153  0.00  0.00     0.012 A 
HETATM   24  C   UNK N   1      20.778  11.835   5.684  0.00  0.00     0.003 A 
HETATM   25  C   UNK N   1      21.813  11.143   6.322  0.00  0.00     0.024 A 
HETATM   26  C   UNK N   1      22.448  11.710   7.429  0.00  0.00     0.034 A 
HETATM   27  C   UNK N   1      22.049  12.960   7.892  0.00  0.00     0.036 A 
HETATM   28 Cl   UNK N   1      23.746  10.861   8.241  0.00  0.00    -0.084 Cl
ENDBRANCH   1  22
TORSDOF 5
ENDMDL
MODEL 8
REMARK VINA RESULT:      -7.3     21.074     25.395
REMARK  5 active torsions:
REMARK  status: ('A' for Active; 'I' for Inactive)
REMARK    1  A    between atoms: C_6  and  C_8 
REMARK    2  A    between atoms: C_9  and  N_15 
REMARK    3  A    between atoms: N_15  and  C_16 
REMARK    4  A    between atoms: C_20  and  C_23 
REMARK    5  A    between atoms: C_23  and  O_25 
ROOT
HETATM    1  C   UNK N   1      26.012  25.252  -7.718  0.00  0.00     0.074 A 
HETATM    2  C   UNK N   1      26.288  23.969  -7.444  0.00  0.00     0.118 A 
HETATM    3  C   UNK N   1      26.030  23.214  -8.696  0.00  0.00     0.276 A 
HETATM    4  C   UNK N   1      25.587  25.288  -9.129  0.00  0.00     0.261 A 
HETATM    5  O   UNK N   1      25.251  26.279  -9.756  0.00  0.00    -0.267 OA
HETATM    6  O   UNK N   1      26.158  22.018  -8.880  0.00  0.00    -0.266 OA
HETATM    7  N   UNK N   1      25.616  24.054  -9.661  0.00  0.00    -0.288 N 
HETATM    8  H   UNK N   1      25.379  23.810 -10.585  0.00  0.00     0.172 HD
ENDROOT
BRANCH   2   9
HETATM    9  N   UNK N   1      26.736  23.529  -6.158  0.00  0.00    -0.351 N 
HETATM   10  H   UNK N   1      26.042  23.501  -5.462  0.00  0.00     0.166 HD
BRANCH   9  11
HETATM   11  C   UNK N   1      28.027  23.129  -5.734  0.00  0.00     0.033 A 
HETATM   12  C   UNK N   1      28.731  22.205  -6.507  0.00  0.00     0.031 A 
HETATM   13  C   UNK N   1      30.005  21.790  -6.120  0.00  0.00     0.027 A 
HETATM   14  C   UNK N   1      30.592  22.293  -4.954  0.00  0.00     0.051 A 
HETATM   15  C   UNK N   1      29.882  23.233  -4.163  0.00  0.00     0.061 A 
HETATM   16 Cl   UNK N   1      32.199  21.713  -4.543  0.00  0.00    -0.083 Cl
HETATM   17  C   UNK N   1      28.609  23.630  -4.578  0.00  0.00     0.049 A 
BRANCH  15  18
HETATM   18  C   UNK N   1      30.410  23.831  -2.908  0.00  0.00     0.177 C 
HETATM   19  O   UNK N   1      30.737  25.008  -2.889  0.00  0.00    -0.646 OA
BRANCH  18  20
HETATM   20  O   UNK N   1      30.536  23.103  -1.784  0.00  0.00    -0.773 OA
HETATM   21  H   UNK N   1      31.127  23.379  -1.111  0.00  0.00     0.167 HD
ENDBRANCH  18  20
ENDBRANCH  15  18
ENDBRANCH   9  11
ENDBRANCH   2   9
BRANCH   1  22
HETATM   22  C   UNK N   1      26.119  26.399  -6.776  0.00  0.00    -0.016 A 
HETATM   23  C   UNK N   1      25.216  26.541  -5.712  0.00  0.00     0.012 A 
HETATM   24  C   UNK N   1      25.328  27.625  -4.833  0.00  0.00     0.003 A 
HETATM   25  C   UNK N   1      26.341  28.574  -5.011  0.00  0.00     0.024 A 
HETATM   26  C   UNK N   1      27.241  28.438  -6.070  0.00  0.00     0.034 A 
HETATM   27  C   UNK N   1      27.128  27.359  -6.941  0.00  0.00     0.036 A 
HETATM   28 Cl   UNK N   1      28.515  29.614  -6.311  0.00  0.00    -0.084 Cl
ENDBRANCH   1  22
TORSDOF 5
ENDMDL
MODEL 9
REMARK VINA RESULT:      -7.2     20.387     24.618
REMARK  5 active torsions:
REMARK  status: ('A' for Active; 'I' for Inactive)
REMARK    1  A    between atoms: C_6  and  C_8 
REMARK    2  A    between atoms: C_9  and  N_15 
REMARK    3  A    between atoms: N_15  and  C_16 
REMARK    4  A    between atoms: C_20  and  C_23 
REMARK    5  A    between atoms: C_23  and  O_25 
ROOT
HETATM    1  C   UNK N   1      26.268  26.406  -5.926  0.00  0.00     0.074 A 
HETATM    2  C   UNK N   1      27.465  26.818  -5.483  0.00  0.00     0.118 A 
HETATM    3  C   UNK N   1      27.215  28.055  -4.703  0.00  0.00     0.276 A 
HETATM    4  C   UNK N   1      25.287  27.384  -5.421  0.00  0.00     0.261 A 
HETATM    5  O   UNK N   1      24.082  27.358  -5.609  0.00  0.00    -0.267 OA
HETATM    6  O   UNK N   1      28.034  28.747  -4.127  0.00  0.00    -0.266 OA
HETATM    7  N   UNK N   1      25.900  28.339  -4.703  0.00  0.00    -0.288 N 
HETATM    8  H   UNK N   1      25.469  29.104  -4.258  0.00  0.00     0.172 HD
ENDROOT
BRANCH   2   9
HETATM    9  N   UNK N   1      28.681  26.119  -5.772  0.00  0.00    -0.351 N 
HETATM   10  H   UNK N   1      29.284  26.576  -6.401  0.00  0.00     0.166 HD
BRANCH   9  11
HETATM   11  C   UNK N   1      29.147  24.872  -5.291  0.00  0.00     0.033 A 
HETATM   12  C   UNK N   1      29.674  23.955  -6.202  0.00  0.00     0.031 A 
HETATM   13  C   UNK N   1      30.143  22.717  -5.762  0.00  0.00     0.027 A 
HETATM   14  C   UNK N   1      30.092  22.380  -4.405  0.00  0.00     0.051 A 
HETATM   15  C   UNK N   1      29.558  23.306  -3.473  0.00  0.00     0.061 A 
HETATM   16 Cl   UNK N   1      30.704  20.799  -3.942  0.00  0.00    -0.083 Cl
HETATM   17  C   UNK N   1      29.097  24.538  -3.944  0.00  0.00     0.049 A 
BRANCH  15  18
HETATM   18  C   UNK N   1      29.456  23.052  -2.012  0.00  0.00     0.177 C 
HETATM   19  O   UNK N   1      30.473  22.936  -1.345  0.00  0.00    -0.646 OA
BRANCH  18  20
HETATM   20  O   UNK N   1      28.262  22.945  -1.401  0.00  0.00    -0.773 OA
HETATM   21  H   UNK N   1      27.564  22.479  -1.817  0.00  0.00     0.167 HD
ENDBRANCH  18  20
ENDBRANCH  15  18
ENDBRANCH   9  11
ENDBRANCH   2   9
BRANCH   1  22
HETATM   22  C   UNK N   1      26.000  25.202  -6.758  0.00  0.00    -0.016 A 
HETATM   23  C   UNK N   1      25.847  23.940  -6.166  0.00  0.00     0.012 A 
HETATM   24  C   UNK N   1      25.595  22.815  -6.961  0.00  0.00     0.003 A 
HETATM   25  C   UNK N   1      25.495  22.944  -8.351  0.00  0.00     0.024 A 
HETATM   26  C   UNK N   1      25.647  24.198  -8.945  0.00  0.00     0.034 A 
HETATM   27  C   UNK N   1      25.896  25.314  -8.152  0.00  0.00     0.036 A 
HETATM   28 Cl   UNK N   1      25.525  24.381 -10.681  0.00  0.00    -0.084 Cl
ENDBRANCH   1  22
TORSDOF 5
ENDMDL
