MODEL 1
REMARK VINA RESULT:      -8.4      0.000      0.000
REMARK  10 active torsions:
REMARK  status: ('A' for Active; 'I' for Inactive)
REMARK    1  A    between atoms: C_1  and  C_7 
REMARK    2  A    between atoms: C_7  and  N_8 
REMARK    3  A    between atoms: C_7  and  N_9 
REMARK    4  A    between atoms: C_13  and  C_14 
REMARK    5  A    between atoms: C_16  and  C_17 
REMARK    6  A    between atoms: C_17  and  C_18 
REMARK    7  A    between atoms: C_17  and  C_21 
REMARK    8  A    between atoms: C_21  and  C_22 
REMARK    9  A    between atoms: C_26  and  C_30 
REMARK   10  A    between atoms: C_27  and  O_28 
ROOT
HETATM    1  C   UNK N   1      21.941  16.081   5.666  0.00  0.00     0.043 A 
HETATM    2  C   UNK N   1      20.919  16.292   4.723  0.00  0.00     0.026 A 
HETATM    3  C   UNK N   1      21.174  17.082   3.583  0.00  0.00    -0.041 A 
HETATM    4  C   UNK N   1      22.435  17.659   3.403  0.00  0.00     0.023 A 
HETATM    5  C   UNK N   1      23.463  17.493   4.338  0.00  0.00     0.012 A 
HETATM    6  C   UNK N   1      23.203  16.698   5.472  0.00  0.00     0.090 A 
ENDROOT
BRANCH   1   7
HETATM    7  C   UNK N   1      21.763  15.211   6.864  0.00  0.00     0.119 A 
HETATM    8  N   UNK N   1      20.601  14.924   7.518  0.00  0.00    -0.340 N 
HETATM    9  C   UNK N   1      21.014  14.166   8.567  0.00  0.00     0.060 A 
HETATM   10  H   UNK N   1      19.685  15.199   7.286  0.00  0.00     0.167 HD
HETATM   11  C   UNK N   1      20.280  13.622   9.622  0.00  0.00     0.033 A 
HETATM   12  C   UNK N   1      22.357  14.005   8.502  0.00  0.00     0.061 A 
HETATM   13  C   UNK N   1      21.000  12.906  10.619  0.00  0.00     0.017 A 
HETATM   14  C   UNK N   1      22.414  12.750  10.522  0.00  0.00     0.009 A 
HETATM   15  C   UNK N   1      23.093  13.309   9.436  0.00  0.00     0.047 A 
HETATM   16  N   UNK N   1      22.839  14.640   7.455  0.00  0.00    -0.340 N 
ATOM     17  HN  UNK N   1      23.813  14.691   7.154  1.00  0.00     0.167 HD
BRANCH  14  18
HETATM   18  C   UNK N   1      23.199  12.038  11.555  0.00  0.00     0.102 C 
BRANCH  18  19
HETATM   19  N   UNK N   1      24.610  12.029  11.504  0.00  0.00    -0.385 N 
HETATM   20  H   UNK N   1      25.144  11.277  11.847  0.00  0.00     0.157 HD
HETATM   21  H   UNK N   1      25.075  12.802  11.111  0.00  0.00     0.157 HD
ENDBRANCH  18  19
BRANCH  18  22
HETATM   22  N   UNK N   1      22.601  11.383  12.485  0.00  0.00    -0.385 N 
HETATM   23  H   UNK N   1      23.082  10.927  13.213  0.00  0.00     0.157 HD
HETATM   24  H   UNK N   1      21.618  11.333  12.468  0.00  0.00     0.157 HD
ENDBRANCH  18  22
ENDBRANCH  14  18
ENDBRANCH   1   7
BRANCH   6  25
HETATM   25  O   UNK N   1      24.169  16.525   6.392  0.00  0.00    -0.359 OA
ATOM     26  HO  UNK N   1      24.331  15.656   6.741  1.00  0.00     0.217 HD
ENDBRANCH   6  25
BRANCH   3  27
HETATM   27  C   UNK N   1      20.145  17.305   2.505  0.00  0.00     0.129 C 
BRANCH  27  28
HETATM   28  C   UNK N   1      20.460  16.712   1.155  0.00  0.00     0.182 C 
HETATM   29  O   UNK N   1      20.841  15.557   1.056  0.00  0.00    -0.647 OA
HETATM   30  O   UNK N   1      20.383  17.480   0.052  0.00  0.00    -0.647 OA
ENDBRANCH  27  28
BRANCH  27  31
HETATM   31  C   UNK N   1      19.324  18.598   2.581  0.00  0.00     0.133 C 
BRANCH  31  32
HETATM   32  C   UNK N   1      20.162  19.838   2.646  0.00  0.00     0.173 C 
HETATM   33  O   UNK N   1      20.787  20.195   1.662  0.00  0.00    -0.648 OA
HETATM   34  O   UNK N   1      20.267  20.533   3.793  0.00  0.00    -0.648 OA
ENDBRANCH  31  32
ENDBRANCH  27  31
ENDBRANCH   3  27
BRANCH   5  35
HETATM   35  C   UNK N   1      24.815  18.137   4.121  0.00  0.00     0.015 A 
HETATM   36  C   UNK N   1      25.966  17.387   3.780  0.00  0.00     0.127 A 
HETATM   37  C   UNK N   1      27.199  18.029   3.608  0.00  0.00     0.043 A 
HETATM   38  F   UNK N   1      25.913  16.042   3.624  0.00  0.00    -0.205 F 
HETATM   39  C   UNK N   1      27.311  19.410   3.765  0.00  0.00     0.003 A 
HETATM   40  C   UNK N   1      26.192  20.164   4.095  0.00  0.00     0.001 A 
HETATM   41  C   UNK N   1      24.965  19.532   4.271  0.00  0.00     0.015 A 
ENDBRANCH   5  35
TORSDOF 10
ENDMDL
MODEL 2
REMARK VINA RESULT:      -8.1      1.527      2.597
REMARK  10 active torsions:
REMARK  status: ('A' for Active; 'I' for Inactive)
REMARK    1  A    between atoms: C_1  and  C_7 
REMARK    2  A    between atoms: C_7  and  N_8 
REMARK    3  A    between atoms: C_7  and  N_9 
REMARK    4  A    between atoms: C_13  and  C_14 
REMARK    5  A    between atoms: C_16  and  C_17 
REMARK    6  A    between atoms: C_17  and  C_18 
REMARK    7  A    between atoms: C_17  and  C_21 
REMARK    8  A    between atoms: C_21  and  C_22 
REMARK    9  A    between atoms: C_26  and  C_30 
REMARK   10  A    between atoms: C_27  and  O_28 
ROOT
HETATM    1  C   UNK N   1      22.332  15.437   5.262  0.00  0.00     0.043 A 
HETATM    2  C   UNK N   1      21.554  15.194   4.115  0.00  0.00     0.026 A 
HETATM    3  C   UNK N   1      21.870  15.845   2.905  0.00  0.00    -0.041 A 
HETATM    4  C   UNK N   1      22.946  16.737   2.855  0.00  0.00     0.023 A 
HETATM    5  C   UNK N   1      23.720  17.024   3.986  0.00  0.00     0.012 A 
HETATM    6  C   UNK N   1      23.402  16.365   5.190  0.00  0.00     0.090 A 
ENDROOT
BRANCH   1   7
HETATM    7  C   UNK N   1      22.093  14.742   6.559  0.00  0.00     0.119 A 
HETATM    8  N   UNK N   1      20.913  14.623   7.234  0.00  0.00    -0.340 N 
HETATM    9  C   UNK N   1      21.272  13.977   8.375  0.00  0.00     0.060 A 
HETATM   10  H   UNK N   1      20.020  14.932   6.962  0.00  0.00     0.167 HD
HETATM   11  C   UNK N   1      20.502  13.625   9.484  0.00  0.00     0.033 A 
HETATM   12  C   UNK N   1      22.600  13.713   8.341  0.00  0.00     0.061 A 
HETATM   13  C   UNK N   1      21.170  12.992  10.569  0.00  0.00     0.017 A 
HETATM   14  C   UNK N   1      22.569  12.723  10.504  0.00  0.00     0.009 A 
HETATM   15  C   UNK N   1      23.285  13.090   9.362  0.00  0.00     0.047 A 
HETATM   16  N   UNK N   1      23.126  14.174   7.225  0.00  0.00    -0.340 N 
ATOM     17  HN  UNK N   1      24.101  14.117   6.929  1.00  0.00     0.167 HD
BRANCH  14  18
HETATM   18  C   UNK N   1      23.302  12.094  11.625  0.00  0.00     0.102 C 
BRANCH  18  19
HETATM   19  N   UNK N   1      24.713  12.059  11.629  0.00  0.00    -0.385 N 
HETATM   20  H   UNK N   1      25.255  12.753  12.070  0.00  0.00     0.157 HD
HETATM   21  H   UNK N   1      25.171  11.316  11.176  0.00  0.00     0.157 HD
ENDBRANCH  18  19
BRANCH  18  22
HETATM   22  N   UNK N   1      22.658  11.532  12.585  0.00  0.00    -0.385 N 
HETATM   23  H   UNK N   1      22.574  11.934  13.480  0.00  0.00     0.157 HD
HETATM   24  H   UNK N   1      22.229  10.662  12.418  0.00  0.00     0.157 HD
ENDBRANCH  18  22
ENDBRANCH  14  18
ENDBRANCH   1   7
BRANCH   6  25
HETATM   25  O   UNK N   1      24.124  16.625   6.295  0.00  0.00    -0.359 OA
ATOM     26  HO  UNK N   1      24.659  15.937   6.674  1.00  0.00     0.217 HD
ENDBRANCH   6  25
BRANCH   3  27
HETATM   27  C   UNK N   1      21.115  15.591   1.627  0.00  0.00     0.129 C 
BRANCH  27  28
HETATM   28  C   UNK N   1      20.272  16.734   1.118  0.00  0.00     0.182 C 
HETATM   29  O   UNK N   1      19.637  17.432   1.891  0.00  0.00    -0.647 OA
HETATM   30  O   UNK N   1      20.166  16.949  -0.207  0.00  0.00    -0.647 OA
ENDBRANCH  27  28
BRANCH  27  31
HETATM   31  C   UNK N   1      20.666  14.151   1.355  0.00  0.00     0.133 C 
BRANCH  31  32
HETATM   32  C   UNK N   1      19.186  13.952   1.469  0.00  0.00     0.173 C 
HETATM   33  O   UNK N   1      18.681  13.799   2.568  0.00  0.00    -0.648 OA
HETATM   34  O   UNK N   1      18.417  13.894   0.367  0.00  0.00    -0.648 OA
ENDBRANCH  31  32
ENDBRANCH  27  31
ENDBRANCH   3  27
BRANCH   5  35
HETATM   35  C   UNK N   1      24.873  18.000   3.904  0.00  0.00     0.015 A 
HETATM   36  C   UNK N   1      24.677  19.393   3.744  0.00  0.00     0.127 A 
HETATM   37  C   UNK N   1      25.779  20.254   3.656  0.00  0.00     0.043 A 
HETATM   38  F   UNK N   1      23.436  19.928   3.661  0.00  0.00    -0.205 F 
HETATM   39  C   UNK N   1      27.080  19.755   3.728  0.00  0.00     0.003 A 
HETATM   40  C   UNK N   1      27.292  18.392   3.889  0.00  0.00     0.001 A 
HETATM   41  C   UNK N   1      26.202  17.531   3.974  0.00  0.00     0.015 A 
ENDBRANCH   5  35
TORSDOF 10
ENDMDL
MODEL 3
REMARK VINA RESULT:      -8.1      3.328      6.880
REMARK  10 active torsions:
REMARK  status: ('A' for Active; 'I' for Inactive)
REMARK    1  A    between atoms: C_1  and  C_7 
REMARK    2  A    between atoms: C_7  and  N_8 
REMARK    3  A    between atoms: C_7  and  N_9 
REMARK    4  A    between atoms: C_13  and  C_14 
REMARK    5  A    between atoms: C_16  and  C_17 
REMARK    6  A    between atoms: C_17  and  C_18 
REMARK    7  A    between atoms: C_17  and  C_21 
REMARK    8  A    between atoms: C_21  and  C_22 
REMARK    9  A    between atoms: C_26  and  C_30 
REMARK   10  A    between atoms: C_27  and  O_28 
ROOT
HETATM    1  C   UNK N   1      24.212  17.340   4.595  0.00  0.00     0.043 A 
HETATM    2  C   UNK N   1      23.450  18.043   3.645  0.00  0.00     0.026 A 
HETATM    3  C   UNK N   1      22.047  18.095   3.774  0.00  0.00    -0.041 A 
HETATM    4  C   UNK N   1      21.421  17.436   4.837  0.00  0.00     0.023 A 
HETATM    5  C   UNK N   1      22.148  16.702   5.781  0.00  0.00     0.012 A 
HETATM    6  C   UNK N   1      23.550  16.661   5.650  0.00  0.00     0.090 A 
ENDROOT
BRANCH   1   7
HETATM    7  C   UNK N   1      25.702  17.291   4.556  0.00  0.00     0.119 A 
HETATM    8  N   UNK N   1      26.496  16.986   3.490  0.00  0.00    -0.340 N 
HETATM    9  C   UNK N   1      27.748  17.010   4.018  0.00  0.00     0.060 A 
HETATM   10  H   UNK N   1      26.228  16.795   2.563  0.00  0.00     0.167 HD
HETATM   11  C   UNK N   1      28.976  16.721   3.422  0.00  0.00     0.033 A 
HETATM   12  C   UNK N   1      27.674  17.341   5.329  0.00  0.00     0.061 A 
HETATM   13  C   UNK N   1      30.133  16.781   4.249  0.00  0.00     0.017 A 
HETATM   14  C   UNK N   1      30.026  17.135   5.625  0.00  0.00     0.009 A 
HETATM   15  C   UNK N   1      28.768  17.424   6.163  0.00  0.00     0.047 A 
HETATM   16  N   UNK N   1      26.418  17.522   5.681  0.00  0.00    -0.340 N 
ATOM     17  HN  UNK N   1      26.063  17.780   6.603  1.00  0.00     0.167 HD
BRANCH  14  18
HETATM   18  C   UNK N   1      31.203  17.178   6.521  0.00  0.00     0.102 C 
BRANCH  18  19
HETATM   19  N   UNK N   1      31.039  17.344   7.913  0.00  0.00    -0.385 N 
HETATM   20  H   UNK N   1      30.631  18.152   8.302  0.00  0.00     0.157 HD
HETATM   21  H   UNK N   1      31.343  16.629   8.516  0.00  0.00     0.157 HD
ENDBRANCH  18  19
BRANCH  18  22
HETATM   22  N   UNK N   1      32.390  17.108   6.033  0.00  0.00    -0.385 N 
HETATM   23  H   UNK N   1      32.654  17.565   5.201  0.00  0.00     0.157 HD
HETATM   24  H   UNK N   1      33.065  16.575   6.511  0.00  0.00     0.157 HD
ENDBRANCH  18  22
ENDBRANCH  14  18
ENDBRANCH   1   7
BRANCH   6  25
HETATM   25  O   UNK N   1      24.275  15.957   6.538  0.00  0.00    -0.359 OA
ATOM     26  HO  UNK N   1      25.224  16.020   6.519  1.00  0.00     0.217 HD
ENDBRANCH   6  25
BRANCH   3  27
HETATM   27  C   UNK N   1      21.174  18.874   2.826  0.00  0.00     0.129 C 
BRANCH  27  28
HETATM   28  C   UNK N   1      21.096  20.361   3.068  0.00  0.00     0.182 C 
HETATM   29  O   UNK N   1      21.948  21.111   2.621  0.00  0.00    -0.647 OA
HETATM   30  O   UNK N   1      20.112  20.862   3.840  0.00  0.00    -0.647 OA
ENDBRANCH  27  28
BRANCH  27  31
HETATM   31  C   UNK N   1      19.959  18.147   2.237  0.00  0.00     0.133 C 
BRANCH  31  32
HETATM   32  C   UNK N   1      20.309  17.170   1.159  0.00  0.00     0.173 C 
HETATM   33  O   UNK N   1      20.385  17.549   0.002  0.00  0.00    -0.648 OA
HETATM   34  O   UNK N   1      20.492  15.869   1.448  0.00  0.00    -0.648 OA
ENDBRANCH  31  32
ENDBRANCH  27  31
ENDBRANCH   3  27
BRANCH   5  35
HETATM   35  C   UNK N   1      21.443  15.993   6.916  0.00  0.00     0.015 A 
HETATM   36  C   UNK N   1      20.630  16.678   7.851  0.00  0.00     0.127 A 
HETATM   37  C   UNK N   1      20.013  15.978   8.895  0.00  0.00     0.043 A 
HETATM   38  F   UNK N   1      20.436  18.016   7.771  0.00  0.00    -0.205 F 
HETATM   39  C   UNK N   1      20.185  14.599   9.028  0.00  0.00     0.003 A 
HETATM   40  C   UNK N   1      20.976  13.909   8.119  0.00  0.00     0.001 A 
HETATM   41  C   UNK N   1      21.594  14.599   7.081  0.00  0.00     0.015 A 
ENDBRANCH   5  35
TORSDOF 10
ENDMDL
MODEL 4
REMARK VINA RESULT:      -8.0      6.116     10.213
REMARK  10 active torsions:
REMARK  status: ('A' for Active; 'I' for Inactive)
REMARK    1  A    between atoms: C_1  and  C_7 
REMARK    2  A    between atoms: C_7  and  N_8 
REMARK    3  A    between atoms: C_7  and  N_9 
REMARK    4  A    between atoms: C_13  and  C_14 
REMARK    5  A    between atoms: C_16  and  C_17 
REMARK    6  A    between atoms: C_17  and  C_18 
REMARK    7  A    between atoms: C_17  and  C_21 
REMARK    8  A    between atoms: C_21  and  C_22 
REMARK    9  A    between atoms: C_26  and  C_30 
REMARK   10  A    between atoms: C_27  and  O_28 
ROOT
HETATM    1  C   UNK N   1      28.928  17.730   5.159  0.00  0.00     0.043 A 
HETATM    2  C   UNK N   1      29.295  17.945   6.500  0.00  0.00     0.026 A 
HETATM    3  C   UNK N   1      30.486  17.377   6.997  0.00  0.00    -0.041 A 
HETATM    4  C   UNK N   1      31.287  16.593   6.160  0.00  0.00     0.023 A 
HETATM    5  C   UNK N   1      30.933  16.334   4.831  0.00  0.00     0.012 A 
HETATM    6  C   UNK N   1      29.745  16.911   4.339  0.00  0.00     0.090 A 
ENDROOT
BRANCH   1   7
HETATM    7  C   UNK N   1      27.716  18.345   4.548  0.00  0.00     0.119 A 
HETATM    8  N   UNK N   1      27.658  19.438   3.733  0.00  0.00    -0.340 N 
HETATM    9  C   UNK N   1      26.325  19.609   3.536  0.00  0.00     0.060 A 
HETATM   10  H   UNK N   1      28.402  19.973   3.375  0.00  0.00     0.167 HD
HETATM   11  C   UNK N   1      25.645  20.604   2.833  0.00  0.00     0.033 A 
HETATM   12  C   UNK N   1      25.647  18.637   4.192  0.00  0.00     0.061 A 
HETATM   13  C   UNK N   1      24.222  20.556   2.843  0.00  0.00     0.017 A 
HETATM   14  C   UNK N   1      23.535  19.518   3.539  0.00  0.00     0.009 A 
HETATM   15  C   UNK N   1      24.272  18.543   4.217  0.00  0.00     0.047 A 
HETATM   16  N   UNK N   1      26.488  17.843   4.820  0.00  0.00    -0.340 N 
ATOM     17  HN  UNK N   1      26.263  17.027   5.390  1.00  0.00     0.167 HD
BRANCH  14  18
HETATM   18  C   UNK N   1      22.058  19.453   3.596  0.00  0.00     0.102 C 
BRANCH  18  19
HETATM   19  N   UNK N   1      21.410  18.807   4.671  0.00  0.00    -0.385 N 
HETATM   20  H   UNK N   1      20.982  19.306   5.404  0.00  0.00     0.157 HD
HETATM   21  H   UNK N   1      21.385  17.824   4.688  0.00  0.00     0.157 HD
ENDBRANCH  18  19
BRANCH  18  22
HETATM   22  N   UNK N   1      21.352  19.947   2.642  0.00  0.00    -0.385 N 
HETATM   23  H   UNK N   1      20.969  19.397   1.921  0.00  0.00     0.157 HD
HETATM   24  H   UNK N   1      21.188  20.917   2.632  0.00  0.00     0.157 HD
ENDBRANCH  18  22
ENDBRANCH  14  18
ENDBRANCH   1   7
BRANCH   6  25
HETATM   25  O   UNK N   1      29.375  16.675   3.067  0.00  0.00    -0.359 OA
ATOM     26  HO  UNK N   1      28.940  17.361   2.573  1.00  0.00     0.217 HD
ENDBRANCH   6  25
BRANCH   3  27
HETATM   27  C   UNK N   1      30.969  17.610   8.405  0.00  0.00     0.129 C 
BRANCH  27  28
HETATM   28  C   UNK N   1      29.906  17.939   9.423  0.00  0.00     0.182 C 
HETATM   29  O   UNK N   1      29.822  19.059   9.897  0.00  0.00    -0.647 OA
HETATM   30  O   UNK N   1      29.079  16.970   9.863  0.00  0.00    -0.647 OA
ENDBRANCH  27  28
BRANCH  27  31
HETATM   31  C   UNK N   1      32.374  18.201   8.572  0.00  0.00     0.133 C 
BRANCH  31  32
HETATM   32  C   UNK N   1      33.403  17.195   8.985  0.00  0.00     0.173 C 
HETATM   33  O   UNK N   1      34.536  17.563   9.243  0.00  0.00    -0.648 OA
HETATM   34  O   UNK N   1      33.100  15.885   9.027  0.00  0.00    -0.648 OA
ENDBRANCH  31  32
ENDBRANCH  27  31
ENDBRANCH   3  27
BRANCH   5  35
HETATM   35  C   UNK N   1      31.814  15.476   3.951  0.00  0.00     0.015 A 
HETATM   36  C   UNK N   1      32.937  15.996   3.264  0.00  0.00     0.127 A 
HETATM   37  C   UNK N   1      33.712  15.163   2.447  0.00  0.00     0.043 A 
HETATM   38  F   UNK N   1      33.286  17.301   3.366  0.00  0.00    -0.205 F 
HETATM   39  C   UNK N   1      33.392  13.812   2.300  0.00  0.00     0.003 A 
HETATM   40  C   UNK N   1      32.297  13.282   2.969  0.00  0.00     0.001 A 
HETATM   41  C   UNK N   1      31.521  14.106   3.780  0.00  0.00     0.015 A 
ENDBRANCH   5  35
TORSDOF 10
ENDMDL
MODEL 5
REMARK VINA RESULT:      -8.0      0.994      2.219
REMARK  10 active torsions:
REMARK  status: ('A' for Active; 'I' for Inactive)
REMARK    1  A    between atoms: C_1  and  C_7 
REMARK    2  A    between atoms: C_7  and  N_8 
REMARK    3  A    between atoms: C_7  and  N_9 
REMARK    4  A    between atoms: C_13  and  C_14 
REMARK    5  A    between atoms: C_16  and  C_17 
REMARK    6  A    between atoms: C_17  and  C_18 
REMARK    7  A    between atoms: C_17  and  C_21 
REMARK    8  A    between atoms: C_21  and  C_22 
REMARK    9  A    between atoms: C_26  and  C_30 
REMARK   10  A    between atoms: C_27  and  O_28 
ROOT
HETATM    1  C   UNK N   1      22.531  16.589   5.691  0.00  0.00     0.043 A 
HETATM    2  C   UNK N   1      21.659  17.317   4.862  0.00  0.00     0.026 A 
HETATM    3  C   UNK N   1      22.179  18.052   3.776  0.00  0.00    -0.041 A 
HETATM    4  C   UNK N   1      23.557  18.063   3.539  0.00  0.00     0.023 A 
HETATM    5  C   UNK N   1      24.454  17.374   4.364  0.00  0.00     0.012 A 
HETATM    6  C   UNK N   1      23.926  16.636   5.442  0.00  0.00     0.090 A 
ENDROOT
BRANCH   1   7
HETATM    7  C   UNK N   1      22.050  15.743   6.821  0.00  0.00     0.119 A 
HETATM    8  N   UNK N   1      20.790  15.691   7.342  0.00  0.00    -0.340 N 
HETATM    9  C   UNK N   1      20.922  14.832   8.387  0.00  0.00     0.060 A 
HETATM   10  H   UNK N   1      19.982  16.162   7.037  0.00  0.00     0.167 HD
HETATM   11  C   UNK N   1      19.983  14.428   9.337  0.00  0.00     0.033 A 
HETATM   12  C   UNK N   1      22.201  14.391   8.445  0.00  0.00     0.061 A 
HETATM   13  C   UNK N   1      20.428  13.546  10.361  0.00  0.00     0.017 A 
HETATM   14  C   UNK N   1      21.780  13.095  10.395  0.00  0.00     0.009 A 
HETATM   15  C   UNK N   1      22.672  13.527   9.410  0.00  0.00     0.047 A 
HETATM   16  N   UNK N   1      22.914  14.939   7.484  0.00  0.00    -0.340 N 
ATOM     17  HN  UNK N   1      23.903  14.790   7.282  1.00  0.00     0.167 HD
BRANCH  14  18
HETATM   18  C   UNK N   1      22.285  12.202  11.462  0.00  0.00     0.102 C 
BRANCH  18  19
HETATM   19  N   UNK N   1      23.671  11.994  11.626  0.00  0.00    -0.385 N 
HETATM   20  H   UNK N   1      24.227  12.578  12.192  0.00  0.00     0.157 HD
HETATM   21  H   UNK N   1      24.097  11.240  11.160  0.00  0.00     0.157 HD
ENDBRANCH  18  19
BRANCH  18  22
HETATM   22  N   UNK N   1      21.461  11.572  12.222  0.00  0.00    -0.385 N 
HETATM   23  H   UNK N   1      21.645  11.385  13.171  0.00  0.00     0.157 HD
HETATM   24  H   UNK N   1      20.609  11.263  11.838  0.00  0.00     0.157 HD
ENDBRANCH  18  22
ENDBRANCH  14  18
ENDBRANCH   1   7
BRANCH   6  25
HETATM   25  O   UNK N   1      24.764  15.969   6.257  0.00  0.00    -0.359 OA
ATOM     26  HO  UNK N   1      24.597  15.962   7.192  1.00  0.00     0.217 HD
ENDBRANCH   6  25
BRANCH   3  27
HETATM   27  C   UNK N   1      21.299  18.810   2.816  0.00  0.00     0.129 C 
BRANCH  27  28
HETATM   28  C   UNK N   1      21.222  20.301   3.026  0.00  0.00     0.182 C 
HETATM   29  O   UNK N   1      22.083  21.039   2.578  0.00  0.00    -0.647 OA
HETATM   30  O   UNK N   1      20.227  20.821   3.771  0.00  0.00    -0.647 OA
ENDBRANCH  27  28
BRANCH  27  31
HETATM   31  C   UNK N   1      20.082  18.069   2.251  0.00  0.00     0.133 C 
BRANCH  31  32
HETATM   32  C   UNK N   1      20.412  17.151   1.115  0.00  0.00     0.173 C 
HETATM   33  O   UNK N   1      20.396  17.576  -0.028  0.00  0.00    -0.648 OA
HETATM   34  O   UNK N   1      20.678  15.852   1.341  0.00  0.00    -0.648 OA
ENDBRANCH  31  32
ENDBRANCH  27  31
ENDBRANCH   3  27
BRANCH   5  35
HETATM   35  C   UNK N   1      25.940  17.410   4.087  0.00  0.00     0.015 A 
HETATM   36  C   UNK N   1      26.593  16.417   3.318  0.00  0.00     0.127 A 
HETATM   37  C   UNK N   1      27.976  16.486   3.106  0.00  0.00     0.043 A 
HETATM   38  F   UNK N   1      25.912  15.376   2.782  0.00  0.00    -0.205 F 
HETATM   39  C   UNK N   1      28.728  17.532   3.642  0.00  0.00     0.003 A 
HETATM   40  C   UNK N   1      28.104  18.519   4.395  0.00  0.00     0.001 A 
HETATM   41  C   UNK N   1      26.731  18.454   4.612  0.00  0.00     0.015 A 
ENDBRANCH   5  35
TORSDOF 10
ENDMDL
MODEL 6
REMARK VINA RESULT:      -8.0      4.267      6.560
REMARK  10 active torsions:
REMARK  status: ('A' for Active; 'I' for Inactive)
REMARK    1  A    between atoms: C_1  and  C_7 
REMARK    2  A    between atoms: C_7  and  N_8 
REMARK    3  A    between atoms: C_7  and  N_9 
REMARK    4  A    between atoms: C_13  and  C_14 
REMARK    5  A    between atoms: C_16  and  C_17 
REMARK    6  A    between atoms: C_17  and  C_18 
REMARK    7  A    between atoms: C_17  and  C_21 
REMARK    8  A    between atoms: C_21  and  C_22 
REMARK    9  A    between atoms: C_26  and  C_30 
REMARK   10  A    between atoms: C_27  and  O_28 
ROOT
HETATM    1  C   UNK N   1      25.114  16.677   4.399  0.00  0.00     0.043 A 
HETATM    2  C   UNK N   1      24.021  17.495   4.739  0.00  0.00     0.026 A 
HETATM    3  C   UNK N   1      22.738  17.187   4.242  0.00  0.00    -0.041 A 
HETATM    4  C   UNK N   1      22.562  16.081   3.404  0.00  0.00     0.023 A 
HETATM    5  C   UNK N   1      23.635  15.266   3.022  0.00  0.00     0.012 A 
HETATM    6  C   UNK N   1      24.912  15.576   3.529  0.00  0.00     0.090 A 
ENDROOT
BRANCH   1   7
HETATM    7  C   UNK N   1      26.487  16.906   4.932  0.00  0.00     0.119 A 
HETATM    8  N   UNK N   1      27.672  16.751   4.274  0.00  0.00    -0.340 N 
HETATM    9  C   UNK N   1      28.598  17.010   5.235  0.00  0.00     0.060 A 
HETATM   10  H   UNK N   1      27.821  16.510   3.332  0.00  0.00     0.167 HD
HETATM   11  C   UNK N   1      29.990  16.953   5.174  0.00  0.00     0.033 A 
HETATM   12  C   UNK N   1      27.966  17.326   6.391  0.00  0.00     0.061 A 
HETATM   13  C   UNK N   1      30.708  17.230   6.372  0.00  0.00     0.017 A 
HETATM   14  C   UNK N   1      30.017  17.563   7.573  0.00  0.00     0.009 A 
HETATM   15  C   UNK N   1      28.620  17.614   7.569  0.00  0.00     0.047 A 
HETATM   16  N   UNK N   1      26.661  17.271   6.224  0.00  0.00    -0.340 N 
ATOM     17  HN  UNK N   1      25.939  17.461   6.919  1.00  0.00     0.167 HD
BRANCH  14  18
HETATM   18  C   UNK N   1      30.730  17.827   8.843  0.00  0.00     0.102 C 
BRANCH  18  19
HETATM   19  N   UNK N   1      32.065  17.406   9.017  0.00  0.00    -0.385 N 
HETATM   20  H   UNK N   1      32.328  16.458   8.972  0.00  0.00     0.157 HD
HETATM   21  H   UNK N   1      32.758  18.083   9.190  0.00  0.00     0.157 HD
ENDBRANCH  18  19
BRANCH  18  22
HETATM   22  N   UNK N   1      30.122  18.406   9.817  0.00  0.00    -0.385 N 
HETATM   23  H   UNK N   1      29.421  17.963  10.348  0.00  0.00     0.157 HD
HETATM   24  H   UNK N   1      30.368  19.332  10.041  0.00  0.00     0.157 HD
ENDBRANCH  18  22
ENDBRANCH  14  18
ENDBRANCH   1   7
BRANCH   6  25
HETATM   25  O   UNK N   1      25.964  14.815   3.173  0.00  0.00    -0.359 OA
ATOM     26  HO  UNK N   1      26.401  14.982   2.345  1.00  0.00     0.217 HD
ENDBRANCH   6  25
BRANCH   3  27
HETATM   27  C   UNK N   1      21.514  17.985   4.609  0.00  0.00     0.129 C 
BRANCH  27  28
HETATM   28  C   UNK N   1      20.992  17.790   6.010  0.00  0.00     0.182 C 
HETATM   29  O   UNK N   1      20.439  16.751   6.331  0.00  0.00    -0.647 OA
HETATM   30  O   UNK N   1      21.080  18.795   6.903  0.00  0.00    -0.647 OA
ENDBRANCH  27  28
BRANCH  27  31
HETATM   31  C   UNK N   1      20.526  18.307   3.481  0.00  0.00     0.133 C 
BRANCH  31  32
HETATM   32  C   UNK N   1      20.541  19.745   3.063  0.00  0.00     0.173 C 
HETATM   33  O   UNK N   1      20.335  20.616   3.892  0.00  0.00    -0.648 OA
HETATM   34  O   UNK N   1      20.732  20.081   1.774  0.00  0.00    -0.648 OA
ENDBRANCH  31  32
ENDBRANCH  27  31
ENDBRANCH   3  27
BRANCH   5  35
HETATM   35  C   UNK N   1      23.416  14.081   2.109  0.00  0.00     0.015 A 
HETATM   36  C   UNK N   1      22.982  12.822   2.589  0.00  0.00     0.127 A 
HETATM   37  C   UNK N   1      22.811  11.750   1.704  0.00  0.00     0.043 A 
HETATM   38  F   UNK N   1      22.733  12.616   3.905  0.00  0.00    -0.205 F 
HETATM   39  C   UNK N   1      23.061  11.906   0.340  0.00  0.00     0.003 A 
HETATM   40  C   UNK N   1      23.484  13.134  -0.151  0.00  0.00     0.001 A 
HETATM   41  C   UNK N   1      23.658  14.202   0.724  0.00  0.00     0.015 A 
ENDBRANCH   5  35
TORSDOF 10
ENDMDL
MODEL 7
REMARK VINA RESULT:      -7.8     11.798     14.946
REMARK  10 active torsions:
REMARK  status: ('A' for Active; 'I' for Inactive)
REMARK    1  A    between atoms: C_1  and  C_7 
REMARK    2  A    between atoms: C_7  and  N_8 
REMARK    3  A    between atoms: C_7  and  N_9 
REMARK    4  A    between atoms: C_13  and  C_14 
REMARK    5  A    between atoms: C_16  and  C_17 
REMARK    6  A    between atoms: C_17  and  C_18 
REMARK    7  A    between atoms: C_17  and  C_21 
REMARK    8  A    between atoms: C_21  and  C_22 
REMARK    9  A    between atoms: C_26  and  C_30 
REMARK   10  A    between atoms: C_27  and  O_28 
ROOT
HETATM    1  C   UNK N   1      35.384  13.506  10.939  0.00  0.00     0.043 A 
HETATM    2  C   UNK N   1      36.423  13.116  10.075  0.00  0.00     0.026 A 
HETATM    3  C   UNK N   1      36.508  13.681   8.785  0.00  0.00    -0.041 A 
HETATM    4  C   UNK N   1      35.553  14.614   8.370  0.00  0.00     0.023 A 
HETATM    5  C   UNK N   1      34.490  15.000   9.195  0.00  0.00     0.012 A 
HETATM    6  C   UNK N   1      34.416  14.436  10.484  0.00  0.00     0.090 A 
ENDROOT
BRANCH   1   7
HETATM    7  C   UNK N   1      35.265  12.996  12.335  0.00  0.00     0.119 A 
HETATM    8  N   UNK N   1      34.731  11.808  12.743  0.00  0.00    -0.340 N 
HETATM    9  C   UNK N   1      34.800  11.887  14.098  0.00  0.00     0.060 A 
HETATM   10  H   UNK N   1      34.381  11.073  12.191  0.00  0.00     0.167 HD
HETATM   11  C   UNK N   1      34.351  10.992  15.070  0.00  0.00     0.033 A 
HETATM   12  C   UNK N   1      35.374  13.062  14.450  0.00  0.00     0.061 A 
HETATM   13  C   UNK N   1      34.515  11.370  16.432  0.00  0.00     0.017 A 
HETATM   14  C   UNK N   1      35.126  12.612  16.773  0.00  0.00     0.009 A 
HETATM   15  C   UNK N   1      35.564  13.463  15.755  0.00  0.00     0.047 A 
HETATM   16  N   UNK N   1      35.672  13.761  13.375  0.00  0.00    -0.340 N 
ATOM     17  HN  UNK N   1      36.113  14.680  13.335  1.00  0.00     0.167 HD
BRANCH  14  18
HETATM   18  C   UNK N   1      35.285  13.052  18.177  0.00  0.00     0.102 C 
BRANCH  18  19
HETATM   19  N   UNK N   1      35.347  12.104  19.222  0.00  0.00    -0.385 N 
HETATM   20  H   UNK N   1      34.959  11.203  19.139  0.00  0.00     0.157 HD
HETATM   21  H   UNK N   1      35.793  12.354  20.063  0.00  0.00     0.157 HD
ENDBRANCH  18  19
BRANCH  18  22
HETATM   22  N   UNK N   1      35.324  14.305  18.463  0.00  0.00    -0.385 N 
HETATM   23  H   UNK N   1      34.538  14.806  18.777  0.00  0.00     0.157 HD
HETATM   24  H   UNK N   1      36.178  14.784  18.361  0.00  0.00     0.157 HD
ENDBRANCH  18  22
ENDBRANCH  14  18
ENDBRANCH   1   7
BRANCH   6  25
HETATM   25  O   UNK N   1      33.401  14.782  11.297  0.00  0.00    -0.359 OA
ATOM     26  HO  UNK N   1      33.307  15.689  11.564  1.00  0.00     0.217 HD
ENDBRANCH   6  25
BRANCH   3  27
HETATM   27  C   UNK N   1      37.624  13.351   7.828  0.00  0.00     0.129 C 
BRANCH  27  28
HETATM   28  C   UNK N   1      37.301  12.335   6.761  0.00  0.00     0.182 C 
HETATM   29  O   UNK N   1      37.498  11.147   6.952  0.00  0.00    -0.647 OA
HETATM   30  O   UNK N   1      36.851  12.746   5.560  0.00  0.00    -0.647 OA
ENDBRANCH  27  28
BRANCH  27  31
HETATM   31  C   UNK N   1      39.056  13.442   8.367  0.00  0.00     0.133 C 
BRANCH  31  32
HETATM   32  C   UNK N   1      40.084  13.675   7.303  0.00  0.00     0.173 C 
HETATM   33  O   UNK N   1      40.836  12.771   6.982  0.00  0.00    -0.648 OA
HETATM   34  O   UNK N   1      40.216  14.887   6.734  0.00  0.00    -0.648 OA
ENDBRANCH  31  32
ENDBRANCH  27  31
ENDBRANCH   3  27
BRANCH   5  35
HETATM   35  C   UNK N   1      33.467  16.006   8.715  0.00  0.00     0.015 A 
HETATM   36  C   UNK N   1      33.736  17.394   8.661  0.00  0.00     0.127 A 
HETATM   37  C   UNK N   1      32.748  18.287   8.226  0.00  0.00     0.043 A 
HETATM   38  F   UNK N   1      34.938  17.897   9.033  0.00  0.00    -0.205 F 
HETATM   39  C   UNK N   1      31.491  17.824   7.838  0.00  0.00     0.003 A 
HETATM   40  C   UNK N   1      31.209  16.465   7.881  0.00  0.00     0.001 A 
HETATM   41  C   UNK N   1      32.185  15.573   8.315  0.00  0.00     0.015 A 
ENDBRANCH   5  35
TORSDOF 10
ENDMDL
MODEL 8
REMARK VINA RESULT:      -7.7     14.211     15.645
REMARK  10 active torsions:
REMARK  status: ('A' for Active; 'I' for Inactive)
REMARK    1  A    between atoms: C_1  and  C_7 
REMARK    2  A    between atoms: C_7  and  N_8 
REMARK    3  A    between atoms: C_7  and  N_9 
REMARK    4  A    between atoms: C_13  and  C_14 
REMARK    5  A    between atoms: C_16  and  C_17 
REMARK    6  A    between atoms: C_17  and  C_18 
REMARK    7  A    between atoms: C_17  and  C_21 
REMARK    8  A    between atoms: C_21  and  C_22 
REMARK    9  A    between atoms: C_26  and  C_30 
REMARK   10  A    between atoms: C_27  and  O_28 
ROOT
HETATM    1  C   UNK N   1      28.614  23.369  -5.480  0.00  0.00     0.043 A 
HETATM    2  C   UNK N   1      27.755  22.817  -6.448  0.00  0.00     0.026 A 
HETATM    3  C   UNK N   1      26.693  23.590  -6.961  0.00  0.00    -0.041 A 
HETATM    4  C   UNK N   1      26.492  24.893  -6.495  0.00  0.00     0.023 A 
HETATM    5  C   UNK N   1      27.310  25.460  -5.511  0.00  0.00     0.012 A 
HETATM    6  C   UNK N   1      28.374  24.684  -5.008  0.00  0.00     0.090 A 
ENDROOT
BRANCH   1   7
HETATM    7  C   UNK N   1      29.792  22.633  -4.936  0.00  0.00     0.119 A 
HETATM    8  N   UNK N   1      30.252  22.635  -3.651  0.00  0.00    -0.340 N 
HETATM    9  C   UNK N   1      31.377  21.876  -3.724  0.00  0.00     0.060 A 
HETATM   10  H   UNK N   1      29.864  23.078  -2.864  0.00  0.00     0.167 HD
HETATM   11  C   UNK N   1      32.311  21.564  -2.736  0.00  0.00     0.033 A 
HETATM   12  C   UNK N   1      31.539  21.436  -4.995  0.00  0.00     0.061 A 
HETATM   13  C   UNK N   1      33.434  20.779  -3.122  0.00  0.00     0.017 A 
HETATM   14  C   UNK N   1      33.577  20.328  -4.467  0.00  0.00     0.009 A 
HETATM   15  C   UNK N   1      32.602  20.664  -5.410  0.00  0.00     0.047 A 
HETATM   16  N   UNK N   1      30.568  21.890  -5.759  0.00  0.00    -0.340 N 
ATOM     17  HN  UNK N   1      30.431  21.720  -6.756  1.00  0.00     0.167 HD
BRANCH  14  18
HETATM   18  C   UNK N   1      34.746  19.535  -4.911  0.00  0.00     0.102 C 
BRANCH  18  19
HETATM   19  N   UNK N   1      36.054  19.925  -4.551  0.00  0.00    -0.385 N 
HETATM   20  H   UNK N   1      36.854  19.532  -4.970  0.00  0.00     0.157 HD
HETATM   21  H   UNK N   1      36.170  20.613  -3.857  0.00  0.00     0.157 HD
ENDBRANCH  18  19
BRANCH  18  22
HETATM   22  N   UNK N   1      34.581  18.509  -5.666  0.00  0.00    -0.385 N 
HETATM   23  H   UNK N   1      33.696  18.126  -5.863  0.00  0.00     0.157 HD
HETATM   24  H   UNK N   1      35.376  18.086  -6.065  0.00  0.00     0.157 HD
ENDBRANCH  18  22
ENDBRANCH  14  18
ENDBRANCH   1   7
BRANCH   6  25
HETATM   25  O   UNK N   1      29.173  25.199  -4.056  0.00  0.00    -0.359 OA
ATOM     26  HO  UNK N   1      29.060  26.106  -3.794  1.00  0.00     0.217 HD
ENDBRANCH   6  25
BRANCH   3  27
HETATM   27  C   UNK N   1      25.768  23.084  -8.037  0.00  0.00     0.129 C 
BRANCH  27  28
HETATM   28  C   UNK N   1      25.084  21.769  -7.756  0.00  0.00     0.182 C 
HETATM   29  O   UNK N   1      25.404  20.758  -8.358  0.00  0.00    -0.647 OA
HETATM   30  O   UNK N   1      24.063  21.721  -6.878  0.00  0.00    -0.647 OA
ENDBRANCH  27  28
BRANCH  27  31
HETATM   31  C   UNK N   1      26.112  23.455  -9.484  0.00  0.00     0.133 C 
BRANCH  31  32
HETATM   32  C   UNK N   1      25.505  24.748  -9.932  0.00  0.00     0.173 C 
HETATM   33  O   UNK N   1      24.453  24.739 -10.548  0.00  0.00    -0.648 OA
HETATM   34  O   UNK N   1      26.136  25.914  -9.703  0.00  0.00    -0.648 OA
ENDBRANCH  31  32
ENDBRANCH  27  31
ENDBRANCH   3  27
BRANCH   5  35
HETATM   35  C   UNK N   1      27.064  26.870  -5.021  0.00  0.00     0.015 A 
HETATM   36  C   UNK N   1      26.469  27.143  -3.766  0.00  0.00     0.127 A 
HETATM   37  C   UNK N   1      26.246  28.467  -3.366  0.00  0.00     0.043 A 
HETATM   38  F   UNK N   1      26.090  26.147  -2.930  0.00  0.00    -0.205 F 
HETATM   39  C   UNK N   1      26.609  29.532  -4.191  0.00  0.00     0.003 A 
HETATM   40  C   UNK N   1      27.198  29.283  -5.424  0.00  0.00     0.001 A 
HETATM   41  C   UNK N   1      27.420  27.970  -5.829  0.00  0.00     0.015 A 
ENDBRANCH   5  35
TORSDOF 10
ENDMDL
MODEL 9
REMARK VINA RESULT:      -7.7      3.716      6.863
REMARK  10 active torsions:
REMARK  status: ('A' for Active; 'I' for Inactive)
REMARK    1  A    between atoms: C_1  and  C_7 
REMARK    2  A    between atoms: C_7  and  N_8 
REMARK    3  A    between atoms: C_7  and  N_9 
REMARK    4  A    between atoms: C_13  and  C_14 
REMARK    5  A    between atoms: C_16  and  C_17 
REMARK    6  A    between atoms: C_17  and  C_18 
REMARK    7  A    between atoms: C_17  and  C_21 
REMARK    8  A    between atoms: C_21  and  C_22 
REMARK    9  A    between atoms: C_26  and  C_30 
REMARK   10  A    between atoms: C_27  and  O_28 
ROOT
HETATM    1  C   UNK N   1      24.944  16.709   5.438  0.00  0.00     0.043 A 
HETATM    2  C   UNK N   1      24.133  17.491   4.595  0.00  0.00     0.026 A 
HETATM    3  C   UNK N   1      22.730  17.366   4.665  0.00  0.00    -0.041 A 
HETATM    4  C   UNK N   1      22.155  16.458   5.560  0.00  0.00     0.023 A 
HETATM    5  C   UNK N   1      22.936  15.644   6.389  0.00  0.00     0.012 A 
HETATM    6  C   UNK N   1      24.336  15.779   6.319  0.00  0.00     0.090 A 
ENDROOT
BRANCH   1   7
HETATM    7  C   UNK N   1      26.430  16.828   5.461  0.00  0.00     0.119 A 
HETATM    8  N   UNK N   1      27.301  16.578   4.440  0.00  0.00    -0.340 N 
HETATM    9  C   UNK N   1      28.517  16.764   5.017  0.00  0.00     0.060 A 
HETATM   10  H   UNK N   1      27.097  16.325   3.512  0.00  0.00     0.167 HD
HETATM   11  C   UNK N   1      29.795  16.595   4.484  0.00  0.00     0.033 A 
HETATM   12  C   UNK N   1      28.348  17.130   6.310  0.00  0.00     0.061 A 
HETATM   13  C   UNK N   1      30.901  16.816   5.353  0.00  0.00     0.017 A 
HETATM   14  C   UNK N   1      30.692  17.204   6.709  0.00  0.00     0.009 A 
HETATM   15  C   UNK N   1      29.388  17.367   7.183  0.00  0.00     0.047 A 
HETATM   16  N   UNK N   1      27.066  17.180   6.603  0.00  0.00    -0.340 N 
ATOM     17  HN  UNK N   1      26.643  17.429   7.498  1.00  0.00     0.167 HD
BRANCH  14  18
HETATM   18  C   UNK N   1      31.816  17.413   7.649  0.00  0.00     0.102 C 
BRANCH  18  19
HETATM   19  N   UNK N   1      33.117  17.669   7.165  0.00  0.00    -0.385 N 
HETATM   20  H   UNK N   1      33.925  17.439   7.679  0.00  0.00     0.157 HD
HETATM   21  H   UNK N   1      33.221  18.093   6.283  0.00  0.00     0.157 HD
ENDBRANCH  18  19
BRANCH  18  22
HETATM   22  N   UNK N   1      31.625  17.319   8.917  0.00  0.00    -0.385 N 
HETATM   23  H   UNK N   1      31.997  17.962   9.563  0.00  0.00     0.157 HD
HETATM   24  H   UNK N   1      31.084  16.570   9.256  0.00  0.00     0.157 HD
ENDBRANCH  18  22
ENDBRANCH  14  18
ENDBRANCH   1   7
BRANCH   6  25
HETATM   25  O   UNK N   1      25.114  15.005   7.098  0.00  0.00    -0.359 OA
ATOM     26  HO  UNK N   1      26.015  15.261   7.257  1.00  0.00     0.217 HD
ENDBRANCH   6  25
BRANCH   3  27
HETATM   27  C   UNK N   1      21.799  18.209   3.834  0.00  0.00     0.129 C 
BRANCH  27  28
HETATM   28  C   UNK N   1      20.711  17.466   3.100  0.00  0.00     0.182 C 
HETATM   29  O   UNK N   1      19.541  17.602   3.415  0.00  0.00    -0.647 OA
HETATM   30  O   UNK N   1      21.037  16.593   2.127  0.00  0.00    -0.647 OA
ENDBRANCH  27  28
BRANCH  27  31
HETATM   31  C   UNK N   1      22.377  19.489   3.219  0.00  0.00     0.133 C 
BRANCH  31  32
HETATM   32  C   UNK N   1      21.334  20.446   2.732  0.00  0.00     0.173 C 
HETATM   33  O   UNK N   1      20.504  20.882   3.512  0.00  0.00    -0.648 OA
HETATM   34  O   UNK N   1      21.275  20.790   1.432  0.00  0.00    -0.648 OA
ENDBRANCH  31  32
ENDBRANCH  27  31
ENDBRANCH   3  27
BRANCH   5  35
HETATM   35  C   UNK N   1      22.287  14.665   7.342  0.00  0.00     0.015 A 
HETATM   36  C   UNK N   1      21.408  15.078   8.372  0.00  0.00     0.127 A 
HETATM   37  C   UNK N   1      20.846  14.134   9.241  0.00  0.00     0.043 A 
HETATM   38  F   UNK N   1      21.097  16.384   8.555  0.00  0.00    -0.205 F 
HETATM   39  C   UNK N   1      21.139  12.776   9.103  0.00  0.00     0.003 A 
HETATM   40  C   UNK N   1      21.995  12.351   8.096  0.00  0.00     0.001 A 
HETATM   41  C   UNK N   1      22.559  13.285   7.232  0.00  0.00     0.015 A 
ENDBRANCH   5  35
TORSDOF 10
ENDMDL
