MODEL 1
REMARK VINA RESULT:      -7.9      0.000      0.000
REMARK  5 active torsions:
REMARK  status: ('A' for Active; 'I' for Inactive)
REMARK    1  A    between atoms: C_1  and  C_7 
REMARK    2  A    between atoms: C_7  and  N_8 
REMARK    3  A    between atoms: C_12  and  C_13 
REMARK    4  A    between atoms: C_17  and  C_21 
REMARK    5  A    between atoms: C_18  and  O_19 
ROOT
HETATM    1  C   UNK N   1      35.261  13.268  16.771  0.00  0.00     0.008 A 
HETATM    2  C   UNK N   1      34.343  12.222  16.467  0.00  0.00     0.017 A 
HETATM    3  C   UNK N   1      34.141  11.801  15.127  0.00  0.00     0.031 A 
HETATM    4  C   UNK N   1      34.862  12.460  14.126  0.00  0.00     0.043 A 
HETATM    5  C   UNK N   1      35.741  13.448  14.450  0.00  0.00    -0.006 A 
HETATM    6  C   UNK N   1      35.979  13.873  15.733  0.00  0.00     0.029 A 
HETATM    7  N   UNK N   1      34.753  12.329  12.788  0.00  0.00    -0.355 N 
HETATM    8  C   UNK N   1      36.214  13.981  13.309  0.00  0.00     0.044 A 
HETATM    9  C   UNK N   1      35.575  13.296  12.287  0.00  0.00     0.046 A 
HETATM   10  H   UNK N   1      34.207  11.682  12.286  0.00  0.00     0.166 HD
ENDROOT
BRANCH   9  11
HETATM   11  C   UNK N   1      35.621  13.764  10.879  0.00  0.00     0.025 A 
HETATM   12  C   UNK N   1      36.640  13.383  10.001  0.00  0.00     0.016 A 
HETATM   13  C   UNK N   1      36.634  13.853   8.680  0.00  0.00     0.002 A 
HETATM   14  C   UNK N   1      35.592  14.672   8.220  0.00  0.00     0.015 A 
HETATM   15  C   UNK N   1      34.531  15.027   9.069  0.00  0.00     0.008 A 
HETATM   16  C   UNK N   1      34.562  14.576  10.403  0.00  0.00     0.089 A 
BRANCH  15  17
HETATM   17  C   UNK N   1      33.384  15.854   8.561  0.00  0.00    -0.023 A 
HETATM   18  C   UNK N   1      33.375  17.248   8.719  0.00  0.00     0.012 A 
HETATM   19  C   UNK N   1      32.296  18.009   8.249  0.00  0.00     0.001 A 
HETATM   20  C   UNK N   1      31.221  17.389   7.604  0.00  0.00     0.000 A 
HETATM   21  C   UNK N   1      31.220  16.008   7.427  0.00  0.00     0.001 A 
HETATM   22  C   UNK N   1      32.289  15.254   7.903  0.00  0.00     0.012 A 
ENDBRANCH  15  17
BRANCH  16  23
HETATM   23  O   UNK N   1      33.549  14.894  11.229  0.00  0.00    -0.359 OA
ATOM     24  HO  UNK N   1      32.863  14.258  11.394  1.00  0.00     0.217 HD
ENDBRANCH  16  23
ENDBRANCH   9  11
BRANCH   1  25
HETATM   25  C   UNK N   1      35.428  13.788  18.143  0.00  0.00     0.102 C 
HETATM   26  N   UNK N   1      35.303  13.002  19.152  0.00  0.00    -0.385 N 
HETATM   27  H   UNK N   1      35.002  13.276  20.048  0.00  0.00     0.157 HD
HETATM   28  H   UNK N   1      35.526  12.052  19.018  0.00  0.00     0.157 HD
BRANCH  25  29
HETATM   29  N   UNK N   1      35.835  15.123  18.354  0.00  0.00    -0.385 N 
HETATM   30  H   UNK N   1      36.520  15.458  18.978  0.00  0.00     0.157 HD
HETATM   31  H   UNK N   1      35.376  15.804  17.812  0.00  0.00     0.157 HD
ENDBRANCH  25  29
ENDBRANCH   1  25
TORSDOF 5
ENDMDL
MODEL 2
REMARK VINA RESULT:      -7.7      7.658     11.885
REMARK  5 active torsions:
REMARK  status: ('A' for Active; 'I' for Inactive)
REMARK    1  A    between atoms: C_1  and  C_7 
REMARK    2  A    between atoms: C_7  and  N_8 
REMARK    3  A    between atoms: C_12  and  C_13 
REMARK    4  A    between atoms: C_17  and  C_21 
REMARK    5  A    between atoms: C_18  and  O_19 
ROOT
HETATM    1  C   UNK N   1      30.769  17.275   8.002  0.00  0.00     0.008 A 
HETATM    2  C   UNK N   1      30.118  17.995   9.045  0.00  0.00     0.017 A 
HETATM    3  C   UNK N   1      28.863  18.617   8.823  0.00  0.00     0.031 A 
HETATM    4  C   UNK N   1      28.305  18.509   7.545  0.00  0.00     0.043 A 
HETATM    5  C   UNK N   1      28.946  17.804   6.572  0.00  0.00    -0.006 A 
HETATM    6  C   UNK N   1      30.152  17.173   6.751  0.00  0.00     0.029 A 
HETATM    7  N   UNK N   1      27.199  19.109   7.058  0.00  0.00    -0.355 N 
HETATM    8  C   UNK N   1      28.258  17.947   5.425  0.00  0.00     0.044 A 
HETATM    9  C   UNK N   1      27.192  18.778   5.734  0.00  0.00     0.046 A 
HETATM   10  H   UNK N   1      26.545  19.659   7.545  0.00  0.00     0.166 HD
ENDROOT
BRANCH   9  11
HETATM   11  C   UNK N   1      26.346  19.394   4.681  0.00  0.00     0.025 A 
HETATM   12  C   UNK N   1      26.866  20.282   3.733  0.00  0.00     0.016 A 
HETATM   13  C   UNK N   1      26.023  20.833   2.759  0.00  0.00     0.002 A 
HETATM   14  C   UNK N   1      24.667  20.473   2.702  0.00  0.00     0.015 A 
HETATM   15  C   UNK N   1      24.133  19.547   3.613  0.00  0.00     0.008 A 
HETATM   16  C   UNK N   1      24.981  19.021   4.607  0.00  0.00     0.089 A 
BRANCH  15  17
HETATM   17  C   UNK N   1      22.697  19.115   3.517  0.00  0.00    -0.023 A 
HETATM   18  C   UNK N   1      21.681  20.045   3.250  0.00  0.00     0.012 A 
HETATM   19  C   UNK N   1      20.344  19.633   3.170  0.00  0.00     0.001 A 
HETATM   20  C   UNK N   1      20.008  18.285   3.343  0.00  0.00     0.000 A 
HETATM   21  C   UNK N   1      21.005  17.348   3.596  0.00  0.00     0.001 A 
HETATM   22  C   UNK N   1      22.331  17.762   3.683  0.00  0.00     0.012 A 
ENDBRANCH  15  17
BRANCH  16  23
HETATM   23  O   UNK N   1      24.492  18.122   5.481  0.00  0.00    -0.359 OA
ATOM     24  HO  UNK N   1      25.064  17.764   6.150  1.00  0.00     0.217 HD
ENDBRANCH  16  23
ENDBRANCH   9  11
BRANCH   1  25
HETATM   25  C   UNK N   1      32.115  16.692   8.177  0.00  0.00     0.102 C 
HETATM   26  N   UNK N   1      32.549  15.809   7.350  0.00  0.00    -0.385 N 
HETATM   27  H   UNK N   1      33.195  15.100   7.567  0.00  0.00     0.157 HD
HETATM   28  H   UNK N   1      32.209  15.846   6.426  0.00  0.00     0.157 HD
BRANCH  25  29
HETATM   29  N   UNK N   1      32.977  17.176   9.184  0.00  0.00    -0.385 N 
HETATM   30  H   UNK N   1      33.542  16.657   9.801  0.00  0.00     0.157 HD
HETATM   31  H   UNK N   1      33.017  18.155   9.283  0.00  0.00     0.157 HD
ENDBRANCH  25  29
ENDBRANCH   1  25
TORSDOF 5
ENDMDL
MODEL 3
REMARK VINA RESULT:      -7.6      3.704      8.494
REMARK  5 active torsions:
REMARK  status: ('A' for Active; 'I' for Inactive)
REMARK    1  A    between atoms: C_1  and  C_7 
REMARK    2  A    between atoms: C_7  and  N_8 
REMARK    3  A    between atoms: C_12  and  C_13 
REMARK    4  A    between atoms: C_17  and  C_21 
REMARK    5  A    between atoms: C_18  and  O_19 
ROOT
HETATM    1  C   UNK N   1      28.883  17.596   7.346  0.00  0.00     0.008 A 
HETATM    2  C   UNK N   1      29.171  18.519   8.392  0.00  0.00     0.017 A 
HETATM    3  C   UNK N   1      30.430  18.506   9.046  0.00  0.00     0.031 A 
HETATM    4  C   UNK N   1      31.362  17.547   8.634  0.00  0.00     0.043 A 
HETATM    5  C   UNK N   1      31.061  16.686   7.623  0.00  0.00    -0.006 A 
HETATM    6  C   UNK N   1      29.863  16.678   6.954  0.00  0.00     0.029 A 
HETATM    7  N   UNK N   1      32.562  17.256   9.177  0.00  0.00    -0.355 N 
HETATM    8  C   UNK N   1      32.075  15.810   7.501  0.00  0.00     0.044 A 
HETATM    9  C   UNK N   1      32.986  16.159   8.486  0.00  0.00     0.046 A 
HETATM   10  H   UNK N   1      33.028  17.728   9.904  0.00  0.00     0.166 HD
ENDROOT
BRANCH   9  11
HETATM   11  C   UNK N   1      34.118  15.273   8.857  0.00  0.00     0.025 A 
HETATM   12  C   UNK N   1      35.112  14.911   7.943  0.00  0.00     0.016 A 
HETATM   13  C   UNK N   1      36.160  14.073   8.347  0.00  0.00     0.002 A 
HETATM   14  C   UNK N   1      36.242  13.624   9.674  0.00  0.00     0.015 A 
HETATM   15  C   UNK N   1      35.283  14.014  10.623  0.00  0.00     0.008 A 
HETATM   16  C   UNK N   1      34.217  14.831  10.200  0.00  0.00     0.089 A 
BRANCH  15  17
HETATM   17  C   UNK N   1      35.402  13.583  12.058  0.00  0.00    -0.023 A 
HETATM   18  C   UNK N   1      36.100  14.366  12.990  0.00  0.00     0.012 A 
HETATM   19  C   UNK N   1      36.211  13.950  14.324  0.00  0.00     0.001 A 
HETATM   20  C   UNK N   1      35.616  12.756  14.745  0.00  0.00     0.000 A 
HETATM   21  C   UNK N   1      34.908  11.975  13.836  0.00  0.00     0.001 A 
HETATM   22  C   UNK N   1      34.807  12.386  12.510  0.00  0.00     0.012 A 
ENDBRANCH  15  17
BRANCH  16  23
HETATM   23  O   UNK N   1      33.294  15.227  11.097  0.00  0.00    -0.359 OA
ATOM     24  HO  UNK N   1      32.560  15.755  10.807  1.00  0.00     0.217 HD
ENDBRANCH  16  23
ENDBRANCH   9  11
BRANCH   1  25
HETATM   25  C   UNK N   1      27.553  17.527   6.707  0.00  0.00     0.102 C 
HETATM   26  N   UNK N   1      26.836  16.467   6.820  0.00  0.00    -0.385 N 
HETATM   27  H   UNK N   1      26.176  16.158   6.159  0.00  0.00     0.157 HD
HETATM   28  H   UNK N   1      26.956  15.922   7.632  0.00  0.00     0.157 HD
BRANCH  25  29
HETATM   29  N   UNK N   1      27.013  18.660   6.062  0.00  0.00    -0.385 N 
HETATM   30  H   UNK N   1      26.070  18.940   6.015  0.00  0.00     0.157 HD
HETATM   31  H   UNK N   1      27.658  19.243   5.602  0.00  0.00     0.157 HD
ENDBRANCH  25  29
ENDBRANCH   1  25
TORSDOF 5
ENDMDL
MODEL 4
REMARK VINA RESULT:      -7.4      3.487      8.582
REMARK  5 active torsions:
REMARK  status: ('A' for Active; 'I' for Inactive)
REMARK    1  A    between atoms: C_1  and  C_7 
REMARK    2  A    between atoms: C_7  and  N_8 
REMARK    3  A    between atoms: C_12  and  C_13 
REMARK    4  A    between atoms: C_17  and  C_21 
REMARK    5  A    between atoms: C_18  and  O_19 
ROOT
HETATM    1  C   UNK N   1      32.303  17.212   5.873  0.00  0.00     0.008 A 
HETATM    2  C   UNK N   1      31.489  17.563   6.988  0.00  0.00     0.017 A 
HETATM    3  C   UNK N   1      31.917  17.292   8.313  0.00  0.00     0.031 A 
HETATM    4  C   UNK N   1      33.152  16.656   8.476  0.00  0.00     0.043 A 
HETATM    5  C   UNK N   1      33.913  16.343   7.390  0.00  0.00    -0.006 A 
HETATM    6  C   UNK N   1      33.543  16.605   6.094  0.00  0.00     0.029 A 
HETATM    7  N   UNK N   1      33.712  16.187   9.610  0.00  0.00    -0.355 N 
HETATM    8  C   UNK N   1      34.986  15.652   7.813  0.00  0.00     0.044 A 
HETATM    9  C   UNK N   1      34.837  15.540   9.187  0.00  0.00     0.046 A 
HETATM   10  H   UNK N   1      33.385  16.289  10.533  0.00  0.00     0.166 HD
ENDROOT
BRANCH   9  11
HETATM   11  C   UNK N   1      35.673  14.618   9.996  0.00  0.00     0.025 A 
HETATM   12  C   UNK N   1      37.032  14.419   9.730  0.00  0.00     0.016 A 
HETATM   13  C   UNK N   1      37.775  13.537  10.526  0.00  0.00     0.002 A 
HETATM   14  C   UNK N   1      37.177  12.881  11.614  0.00  0.00     0.015 A 
HETATM   15  C   UNK N   1      35.827  13.103  11.930  0.00  0.00     0.008 A 
HETATM   16  C   UNK N   1      35.080  13.966  11.106  0.00  0.00     0.089 A 
BRANCH  15  17
HETATM   17  C   UNK N   1      35.201  12.448  13.129  0.00  0.00    -0.023 A 
HETATM   18  C   UNK N   1      34.516  11.229  13.008  0.00  0.00     0.012 A 
HETATM   19  C   UNK N   1      33.929  10.631  14.131  0.00  0.00     0.001 A 
HETATM   20  C   UNK N   1      34.030  11.235  15.389  0.00  0.00     0.000 A 
HETATM   21  C   UNK N   1      34.717  12.438  15.528  0.00  0.00     0.001 A 
HETATM   22  C   UNK N   1      35.292  13.034  14.409  0.00  0.00     0.012 A 
ENDBRANCH  15  17
BRANCH  16  23
HETATM   23  O   UNK N   1      33.788  14.203  11.399  0.00  0.00    -0.359 OA
ATOM     24  HO  UNK N   1      33.560  14.557  12.250  1.00  0.00     0.217 HD
ENDBRANCH  16  23
ENDBRANCH   9  11
BRANCH   1  25
HETATM   25  C   UNK N   1      31.847  17.401   4.481  0.00  0.00     0.102 C 
HETATM   26  N   UNK N   1      32.660  17.218   3.503  0.00  0.00    -0.385 N 
HETATM   27  H   UNK N   1      32.609  17.672   2.633  0.00  0.00     0.157 HD
HETATM   28  H   UNK N   1      33.391  16.570   3.636  0.00  0.00     0.157 HD
BRANCH  25  29
HETATM   29  N   UNK N   1      30.490  17.676   4.207  0.00  0.00    -0.385 N 
HETATM   30  H   UNK N   1      29.693  17.220   4.564  0.00  0.00     0.157 HD
HETATM   31  H   UNK N   1      30.318  18.416   3.580  0.00  0.00     0.157 HD
ENDBRANCH  25  29
ENDBRANCH   1  25
TORSDOF 5
ENDMDL
MODEL 5
REMARK VINA RESULT:      -7.4      1.971      3.570
REMARK  5 active torsions:
REMARK  status: ('A' for Active; 'I' for Inactive)
REMARK    1  A    between atoms: C_1  and  C_7 
REMARK    2  A    between atoms: C_7  and  N_8 
REMARK    3  A    between atoms: C_12  and  C_13 
REMARK    4  A    between atoms: C_17  and  C_21 
REMARK    5  A    between atoms: C_18  and  O_19 
ROOT
HETATM    1  C   UNK N   1      36.035  13.498  13.658  0.00  0.00     0.008 A 
HETATM    2  C   UNK N   1      35.453  12.304  13.140  0.00  0.00     0.017 A 
HETATM    3  C   UNK N   1      34.928  12.265  11.823  0.00  0.00     0.031 A 
HETATM    4  C   UNK N   1      34.990  13.441  11.068  0.00  0.00     0.043 A 
HETATM    5  C   UNK N   1      35.563  14.563  11.586  0.00  0.00    -0.006 A 
HETATM    6  C   UNK N   1      36.098  14.637  12.848  0.00  0.00     0.029 A 
HETATM    7  N   UNK N   1      34.454  13.688   9.854  0.00  0.00    -0.355 N 
HETATM    8  C   UNK N   1      35.396  15.566  10.706  0.00  0.00     0.044 A 
HETATM    9  C   UNK N   1      34.686  15.017   9.648  0.00  0.00     0.046 A 
HETATM   10  H   UNK N   1      34.000  13.055   9.253  0.00  0.00     0.166 HD
ENDROOT
BRANCH   9  11
HETATM   11  C   UNK N   1      34.070  15.861   8.594  0.00  0.00     0.025 A 
HETATM   12  C   UNK N   1      34.764  16.233   7.438  0.00  0.00     0.016 A 
HETATM   13  C   UNK N   1      34.134  17.030   6.473  0.00  0.00     0.002 A 
HETATM   14  C   UNK N   1      32.798  17.427   6.638  0.00  0.00     0.015 A 
HETATM   15  C   UNK N   1      32.065  17.025   7.767  0.00  0.00     0.008 A 
HETATM   16  C   UNK N   1      32.716  16.250   8.746  0.00  0.00     0.089 A 
BRANCH  15  17
HETATM   17  C   UNK N   1      30.617  17.399   7.917  0.00  0.00    -0.023 A 
HETATM   18  C   UNK N   1      29.647  16.889   7.041  0.00  0.00     0.012 A 
HETATM   19  C   UNK N   1      28.301  17.251   7.185  0.00  0.00     0.001 A 
HETATM   20  C   UNK N   1      27.906  18.114   8.213  0.00  0.00     0.000 A 
HETATM   21  C   UNK N   1      28.854  18.619   9.098  0.00  0.00     0.001 A 
HETATM   22  C   UNK N   1      30.192  18.264   8.947  0.00  0.00     0.012 A 
ENDBRANCH  15  17
BRANCH  16  23
HETATM   23  O   UNK N   1      32.028  15.843   9.829  0.00  0.00    -0.359 OA
ATOM     24  HO  UNK N   1      31.922  14.914   9.992  1.00  0.00     0.217 HD
ENDBRANCH  16  23
ENDBRANCH   9  11
BRANCH   1  25
HETATM   25  C   UNK N   1      36.510  13.595  15.053  0.00  0.00     0.102 C 
HETATM   26  N   UNK N   1      37.292  14.553  15.405  0.00  0.00    -0.385 N 
HETATM   27  H   UNK N   1      37.955  14.504  16.129  0.00  0.00     0.157 HD
HETATM   28  H   UNK N   1      37.220  15.402  14.911  0.00  0.00     0.157 HD
BRANCH  25  29
HETATM   29  N   UNK N   1      36.024  12.705  16.035  0.00  0.00    -0.385 N 
HETATM   30  H   UNK N   1      36.480  11.925  16.427  0.00  0.00     0.157 HD
HETATM   31  H   UNK N   1      35.116  12.886  16.369  0.00  0.00     0.157 HD
ENDBRANCH  25  29
ENDBRANCH   1  25
TORSDOF 5
ENDMDL
MODEL 6
REMARK VINA RESULT:      -7.3     17.577     21.201
REMARK  5 active torsions:
REMARK  status: ('A' for Active; 'I' for Inactive)
REMARK    1  A    between atoms: C_1  and  C_7 
REMARK    2  A    between atoms: C_7  and  N_8 
REMARK    3  A    between atoms: C_12  and  C_13 
REMARK    4  A    between atoms: C_17  and  C_21 
REMARK    5  A    between atoms: C_18  and  O_19 
ROOT
HETATM    1  C   UNK N   1      32.043  20.905  -4.220  0.00  0.00     0.008 A 
HETATM    2  C   UNK N   1      32.015  21.529  -2.939  0.00  0.00     0.017 A 
HETATM    3  C   UNK N   1      30.985  22.443  -2.601  0.00  0.00     0.031 A 
HETATM    4  C   UNK N   1      30.017  22.716  -3.574  0.00  0.00     0.043 A 
HETATM    5  C   UNK N   1      30.065  22.095  -4.785  0.00  0.00    -0.006 A 
HETATM    6  C   UNK N   1      31.033  21.191  -5.145  0.00  0.00     0.029 A 
HETATM    7  N   UNK N   1      29.024  23.629  -3.538  0.00  0.00    -0.355 N 
HETATM    8  C   UNK N   1      29.095  22.610  -5.561  0.00  0.00     0.044 A 
HETATM    9  C   UNK N   1      28.474  23.577  -4.785  0.00  0.00     0.046 A 
HETATM   10  H   UNK N   1      28.757  24.202  -2.783  0.00  0.00     0.166 HD
ENDROOT
BRANCH   9  11
HETATM   11  C   UNK N   1      27.526  24.561  -5.366  0.00  0.00     0.025 A 
HETATM   12  C   UNK N   1      26.455  24.173  -6.179  0.00  0.00     0.016 A 
HETATM   13  C   UNK N   1      25.589  25.143  -6.700  0.00  0.00     0.002 A 
HETATM   14  C   UNK N   1      25.763  26.499  -6.382  0.00  0.00     0.015 A 
HETATM   15  C   UNK N   1      26.800  26.908  -5.528  0.00  0.00     0.008 A 
HETATM   16  C   UNK N   1      27.685  25.929  -5.034  0.00  0.00     0.089 A 
BRANCH  15  17
HETATM   17  C   UNK N   1      26.952  28.351  -5.139  0.00  0.00    -0.023 A 
HETATM   18  C   UNK N   1      26.211  28.893  -4.078  0.00  0.00     0.012 A 
HETATM   19  C   UNK N   1      26.355  30.242  -3.729  0.00  0.00     0.001 A 
HETATM   20  C   UNK N   1      27.249  31.062  -4.425  0.00  0.00     0.000 A 
HETATM   21  C   UNK N   1      28.002  30.537  -5.472  0.00  0.00     0.001 A 
HETATM   22  C   UNK N   1      27.850  29.199  -5.822  0.00  0.00     0.012 A 
ENDBRANCH  15  17
BRANCH  16  23
HETATM   23  O   UNK N   1      28.678  26.298  -4.204  0.00  0.00    -0.359 OA
ATOM     24  HO  UNK N   1      29.580  26.208  -4.488  1.00  0.00     0.217 HD
ENDBRANCH  16  23
ENDBRANCH   9  11
BRANCH   1  25
HETATM   25  C   UNK N   1      33.149  20.017  -4.633  0.00  0.00     0.102 C 
HETATM   26  N   UNK N   1      33.614  20.077  -5.829  0.00  0.00    -0.385 N 
HETATM   27  H   UNK N   1      34.025  19.327  -6.315  0.00  0.00     0.157 HD
HETATM   28  H   UNK N   1      33.555  20.943  -6.296  0.00  0.00     0.157 HD
BRANCH  25  29
HETATM   29  N   UNK N   1      33.777  19.174  -3.691  0.00  0.00    -0.385 N 
HETATM   30  H   UNK N   1      33.630  19.137  -2.717  0.00  0.00     0.157 HD
HETATM   31  H   UNK N   1      34.444  18.547  -4.050  0.00  0.00     0.157 HD
ENDBRANCH  25  29
ENDBRANCH   1  25
TORSDOF 5
ENDMDL
MODEL 7
REMARK VINA RESULT:      -7.2     11.188     12.439
REMARK  5 active torsions:
REMARK  status: ('A' for Active; 'I' for Inactive)
REMARK    1  A    between atoms: C_1  and  C_7 
REMARK    2  A    between atoms: C_7  and  N_8 
REMARK    3  A    between atoms: C_12  and  C_13 
REMARK    4  A    between atoms: C_17  and  C_21 
REMARK    5  A    between atoms: C_18  and  O_19 
ROOT
HETATM    1  C   UNK N   1      22.399  12.849  10.097  0.00  0.00     0.008 A 
HETATM    2  C   UNK N   1      21.312  13.738   9.855  0.00  0.00     0.017 A 
HETATM    3  C   UNK N   1      21.165  14.379   8.598  0.00  0.00     0.031 A 
HETATM    4  C   UNK N   1      22.131  14.115   7.621  0.00  0.00     0.043 A 
HETATM    5  C   UNK N   1      23.152  13.251   7.879  0.00  0.00    -0.006 A 
HETATM    6  C   UNK N   1      23.320  12.598   9.075  0.00  0.00     0.029 A 
HETATM    7  N   UNK N   1      22.278  14.689   6.409  0.00  0.00    -0.355 N 
HETATM    8  C   UNK N   1      23.988  13.261   6.825  0.00  0.00     0.044 A 
HETATM    9  C   UNK N   1      23.448  14.174   5.933  0.00  0.00     0.046 A 
HETATM   10  H   UNK N   1      21.678  15.332   5.968  0.00  0.00     0.166 HD
ENDROOT
BRANCH   9  11
HETATM   11  C   UNK N   1      24.212  14.672   4.761  0.00  0.00     0.025 A 
HETATM   12  C   UNK N   1      24.355  13.920   3.591  0.00  0.00     0.016 A 
HETATM   13  C   UNK N   1      25.085  14.439   2.514  0.00  0.00     0.002 A 
HETATM   14  C   UNK N   1      25.642  15.725   2.583  0.00  0.00     0.015 A 
HETATM   15  C   UNK N   1      25.470  16.520   3.728  0.00  0.00     0.008 A 
HETATM   16  C   UNK N   1      24.761  15.978   4.818  0.00  0.00     0.089 A 
BRANCH  15  17
HETATM   17  C   UNK N   1      26.014  17.919   3.783  0.00  0.00    -0.023 A 
HETATM   18  C   UNK N   1      27.301  18.173   4.279  0.00  0.00     0.012 A 
HETATM   19  C   UNK N   1      27.795  19.483   4.333  0.00  0.00     0.001 A 
HETATM   20  C   UNK N   1      27.016  20.553   3.878  0.00  0.00     0.000 A 
HETATM   21  C   UNK N   1      25.742  20.317   3.370  0.00  0.00     0.001 A 
HETATM   22  C   UNK N   1      25.250  19.015   3.327  0.00  0.00     0.012 A 
ENDBRANCH  15  17
BRANCH  16  23
HETATM   23  O   UNK N   1      24.573  16.727   5.920  0.00  0.00    -0.359 OA
ATOM     24  HO  UNK N   1      24.055  16.380   6.637  1.00  0.00     0.217 HD
ENDBRANCH  16  23
ENDBRANCH   9  11
BRANCH   1  25
HETATM   25  C   UNK N   1      22.628  12.236  11.421  0.00  0.00     0.102 C 
HETATM   26  N   UNK N   1      21.661  11.667  12.047  0.00  0.00    -0.385 N 
HETATM   27  H   UNK N   1      21.584  11.596  13.025  0.00  0.00     0.157 HD
HETATM   28  H   UNK N   1      20.941  11.270  11.505  0.00  0.00     0.157 HD
BRANCH  25  29
HETATM   29  N   UNK N   1      23.931  12.173  11.961  0.00  0.00    -0.385 N 
HETATM   30  H   UNK N   1      24.729  11.744  11.574  0.00  0.00     0.157 HD
HETATM   31  H   UNK N   1      24.058  12.611  12.834  0.00  0.00     0.157 HD
ENDBRANCH  25  29
ENDBRANCH   1  25
TORSDOF 5
ENDMDL
MODEL 8
REMARK VINA RESULT:      -7.2      1.735      2.567
REMARK  5 active torsions:
REMARK  status: ('A' for Active; 'I' for Inactive)
REMARK    1  A    between atoms: C_1  and  C_7 
REMARK    2  A    between atoms: C_7  and  N_8 
REMARK    3  A    between atoms: C_12  and  C_13 
REMARK    4  A    between atoms: C_17  and  C_21 
REMARK    5  A    between atoms: C_18  and  O_19 
ROOT
HETATM    1  C   UNK N   1      34.894  10.591  16.856  0.00  0.00     0.008 A 
HETATM    2  C   UNK N   1      35.345  11.870  17.295  0.00  0.00     0.017 A 
HETATM    3  C   UNK N   1      35.473  12.947  16.381  0.00  0.00     0.031 A 
HETATM    4  C   UNK N   1      35.157  12.698  15.040  0.00  0.00     0.043 A 
HETATM    5  C   UNK N   1      34.718  11.469  14.654  0.00  0.00    -0.006 A 
HETATM    6  C   UNK N   1      34.563  10.406  15.509  0.00  0.00     0.029 A 
HETATM    7  N   UNK N   1      35.315  13.512  13.976  0.00  0.00    -0.355 N 
HETATM    8  C   UNK N   1      34.591  11.469  13.315  0.00  0.00     0.044 A 
HETATM    9  C   UNK N   1      34.988  12.733  12.905  0.00  0.00     0.046 A 
HETATM   10  H   UNK N   1      35.600  14.455  13.972  0.00  0.00     0.166 HD
ENDROOT
BRANCH   9  11
HETATM   11  C   UNK N   1      35.247  13.050  11.479  0.00  0.00     0.025 A 
HETATM   12  C   UNK N   1      36.044  12.236  10.668  0.00  0.00     0.016 A 
HETATM   13  C   UNK N   1      36.256  12.581   9.326  0.00  0.00     0.002 A 
HETATM   14  C   UNK N   1      35.641  13.718   8.777  0.00  0.00     0.015 A 
HETATM   15  C   UNK N   1      34.797  14.524   9.558  0.00  0.00     0.008 A 
HETATM   16  C   UNK N   1      34.616  14.186  10.913  0.00  0.00     0.089 A 
BRANCH  15  17
HETATM   17  C   UNK N   1      34.091  15.707   8.957  0.00  0.00    -0.023 A 
HETATM   18  C   UNK N   1      32.777  15.595   8.480  0.00  0.00     0.012 A 
HETATM   19  C   UNK N   1      32.132  16.703   7.914  0.00  0.00     0.001 A 
HETATM   20  C   UNK N   1      32.786  17.937   7.831  0.00  0.00     0.000 A 
HETATM   21  C   UNK N   1      34.085  18.068   8.313  0.00  0.00     0.001 A 
HETATM   22  C   UNK N   1      34.727  16.963   8.866  0.00  0.00     0.012 A 
ENDBRANCH  15  17
BRANCH  16  23
HETATM   23  O   UNK N   1      33.800  14.938  11.676  0.00  0.00    -0.359 OA
ATOM     24  HO  UNK N   1      33.323  15.657  11.280  1.00  0.00     0.217 HD
ENDBRANCH  16  23
ENDBRANCH   9  11
BRANCH   1  25
HETATM   25  C   UNK N   1      34.834   9.428  17.764  0.00  0.00     0.102 C 
HETATM   26  N   UNK N   1      35.456   8.343  17.468  0.00  0.00    -0.385 N 
HETATM   27  H   UNK N   1      35.184   7.441  17.749  0.00  0.00     0.157 HD
HETATM   28  H   UNK N   1      36.269   8.422  16.917  0.00  0.00     0.157 HD
BRANCH  25  29
HETATM   29  N   UNK N   1      34.188   9.534  19.015  0.00  0.00    -0.385 N 
HETATM   30  H   UNK N   1      34.172  10.305  19.627  0.00  0.00     0.157 HD
HETATM   31  H   UNK N   1      33.692   8.737  19.312  0.00  0.00     0.157 HD
ENDBRANCH  25  29
ENDBRANCH   1  25
TORSDOF 5
ENDMDL
MODEL 9
REMARK VINA RESULT:      -7.1      1.892      3.287
REMARK  5 active torsions:
REMARK  status: ('A' for Active; 'I' for Inactive)
REMARK    1  A    between atoms: C_1  and  C_7 
REMARK    2  A    between atoms: C_7  and  N_8 
REMARK    3  A    between atoms: C_12  and  C_13 
REMARK    4  A    between atoms: C_17  and  C_21 
REMARK    5  A    between atoms: C_18  and  O_19 
ROOT
HETATM    1  C   UNK N   1      35.474  11.649  18.940  0.00  0.00     0.008 A 
HETATM    2  C   UNK N   1      35.197  13.047  18.922  0.00  0.00     0.017 A 
HETATM    3  C   UNK N   1      35.110  13.753  17.695  0.00  0.00     0.031 A 
HETATM    4  C   UNK N   1      35.320  13.029  16.516  0.00  0.00     0.043 A 
HETATM    5  C   UNK N   1      35.571  11.692  16.565  0.00  0.00    -0.006 A 
HETATM    6  C   UNK N   1      35.647  10.969  17.729  0.00  0.00     0.029 A 
HETATM    7  N   UNK N   1      35.412  13.492  15.252  0.00  0.00    -0.355 N 
HETATM    8  C   UNK N   1      35.839  11.268  15.317  0.00  0.00     0.044 A 
HETATM    9  C   UNK N   1      35.762  12.397  14.517  0.00  0.00     0.046 A 
HETATM   10  H   UNK N   1      35.259  14.410  14.931  0.00  0.00     0.166 HD
ENDROOT
BRANCH   9  11
HETATM   11  C   UNK N   1      36.253  12.402  13.117  0.00  0.00     0.025 A 
HETATM   12  C   UNK N   1      37.419  11.731  12.734  0.00  0.00     0.016 A 
HETATM   13  C   UNK N   1      37.837  11.767  11.397  0.00  0.00     0.002 A 
HETATM   14  C   UNK N   1      37.074  12.439  10.429  0.00  0.00     0.015 A 
HETATM   15  C   UNK N   1      35.874  13.079  10.780  0.00  0.00     0.008 A 
HETATM   16  C   UNK N   1      35.478  13.064  12.131  0.00  0.00     0.089 A 
BRANCH  15  17
HETATM   17  C   UNK N   1      35.025  13.748   9.735  0.00  0.00    -0.023 A 
HETATM   18  C   UNK N   1      34.002  13.046   9.081  0.00  0.00     0.012 A 
HETATM   19  C   UNK N   1      33.222  13.678   8.103  0.00  0.00     0.001 A 
HETATM   20  C   UNK N   1      33.446  15.020   7.777  0.00  0.00     0.000 A 
HETATM   21  C   UNK N   1      34.449  15.734   8.426  0.00  0.00     0.001 A 
HETATM   22  C   UNK N   1      35.228  15.101   9.391  0.00  0.00     0.012 A 
ENDBRANCH  15  17
BRANCH  16  23
HETATM   23  O   UNK N   1      34.325  13.660  12.487  0.00  0.00    -0.359 OA
ATOM     24  HO  UNK N   1      33.644  13.146  12.903  1.00  0.00     0.217 HD
ENDBRANCH  16  23
ENDBRANCH   9  11
BRANCH   1  25
HETATM   25  C   UNK N   1      35.658  10.904  20.202  0.00  0.00     0.102 C 
HETATM   26  N   UNK N   1      36.822  10.472  20.534  0.00  0.00    -0.385 N 
HETATM   27  H   UNK N   1      36.993   9.676  21.086  0.00  0.00     0.157 HD
HETATM   28  H   UNK N   1      37.603  10.977  20.210  0.00  0.00     0.157 HD
BRANCH  25  29
HETATM   29  N   UNK N   1      34.584  10.757  21.106  0.00  0.00    -0.385 N 
HETATM   30  H   UNK N   1      34.136  11.455  21.635  0.00  0.00     0.157 HD
HETATM   31  H   UNK N   1      34.241   9.841  21.222  0.00  0.00     0.157 HD
ENDBRANCH  25  29
ENDBRANCH   1  25
TORSDOF 5
ENDMDL
