REMARK  5 active torsions:
REMARK  status: ('A' for Active; 'I' for Inactive)
REMARK    1  A    between atoms: C_1  and  C_7 
REMARK    2  A    between atoms: C_7  and  N_8 
REMARK    3  A    between atoms: C_12  and  C_13 
REMARK    4  A    between atoms: C_17  and  C_21 
REMARK    5  A    between atoms: C_18  and  O_19 
ROOT
HETATM    1  C   UNK N   1       4.777  -0.331   0.194  0.00  0.00     0.008 A 
HETATM    2  C   UNK N   1       4.870  -1.633   0.765  0.00  0.00     0.017 A 
HETATM    3  C   UNK N   1       3.746  -2.498   0.786  0.00  0.00     0.031 A 
HETATM    4  C   UNK N   1       2.550  -2.017   0.242  0.00  0.00     0.043 A 
HETATM    5  C   UNK N   1       2.496  -0.772  -0.307  0.00  0.00    -0.006 A 
HETATM    6  C   UNK N   1       3.564   0.088  -0.363  0.00  0.00     0.029 A 
HETATM    7  N   UNK N   1       1.330  -2.593   0.256  0.00  0.00    -0.355 N 
HETATM    8  C   UNK N   1       1.221  -0.520  -0.654  0.00  0.00     0.044 A 
HETATM    9  C   UNK N   1       0.505  -1.646  -0.277  0.00  0.00     0.046 A 
HETATM   10  H   UNK N   1       1.089  -3.492   0.576  0.00  0.00     0.166 HD
ENDROOT
BRANCH   9  11
HETATM   11  C   UNK N   1      -0.979  -1.658  -0.244  0.00  0.00     0.025 A 
HETATM   12  C   UNK N   1      -1.714  -2.848  -0.229  0.00  0.00     0.016 A 
HETATM   13  C   UNK N   1      -3.114  -2.802  -0.196  0.00  0.00     0.002 A 
HETATM   14  C   UNK N   1      -3.786  -1.571  -0.138  0.00  0.00     0.015 A 
HETATM   15  C   UNK N   1      -3.069  -0.364  -0.102  0.00  0.00     0.008 A 
HETATM   16  C   UNK N   1      -1.663  -0.419  -0.167  0.00  0.00     0.089 A 
BRANCH  15  17
HETATM   17  C   UNK N   1      -3.784   0.952   0.020  0.00  0.00    -0.023 A 
HETATM   18  C   UNK N   1      -5.182   1.023  -0.070  0.00  0.00     0.012 A 
HETATM   19  C   UNK N   1      -5.838   2.257   0.037  0.00  0.00     0.001 A 
HETATM   20  C   UNK N   1      -5.107   3.431   0.249  0.00  0.00     0.000 A 
HETATM   21  C   UNK N   1      -3.720   3.376   0.354  0.00  0.00     0.001 A 
HETATM   22  C   UNK N   1      -3.071   2.150   0.238  0.00  0.00     0.012 A 
ENDBRANCH  15  17
BRANCH  16  23
HETATM   23  O   UNK N   1      -0.956   0.725  -0.121  0.00  0.00    -0.359 OA
ATOM     24  HO  UNK N   1      -1.415   1.555  -0.069  1.00  0.00     0.217 HD
ENDBRANCH  16  23
ENDBRANCH   9  11
BRANCH   1  25
HETATM   25  C   UNK N   1       5.903   0.624   0.236  0.00  0.00     0.102 C 
HETATM   26  N   UNK N   1       5.771   1.802  -0.260  0.00  0.00    -0.385 N 
HETATM   27  H   UNK N   1       6.501   2.341  -0.639  0.00  0.00     0.157 HD
HETATM   28  H   UNK N   1       4.868   2.196  -0.260  0.00  0.00     0.157 HD
BRANCH  25  29
HETATM   29  N   UNK N   1       7.094   0.292   0.917  0.00  0.00    -0.385 N 
HETATM   30  H   UNK N   1       7.309  -0.543   1.393  0.00  0.00     0.157 HD
HETATM   31  H   UNK N   1       7.797   0.981   0.917  0.00  0.00     0.157 HD
ENDBRANCH  25  29
ENDBRANCH   1  25
TORSDOF 5
