MODEL 1
REMARK VINA RESULT:      -6.9      0.000      0.000
REMARK  10 active torsions:
REMARK  status: ('A' for Active; 'I' for Inactive)
REMARK    1  A    between atoms: C_1  and  O_22 
REMARK    2  A    between atoms: N_7  and  C_10 
REMARK    3  A    between atoms: C_9  and  C_18 
REMARK    4  A    between atoms: C_10  and  C_11 
REMARK    5  A    between atoms: C_18  and  C_19 
REMARK       I    between atoms: C_19  and  N_20 
REMARK    6  A    between atoms: O_22  and  C_23 
REMARK    7  A    between atoms: C_23  and  C_24 
REMARK    8  A    between atoms: C_24  and  C_25 
REMARK    9  A    between atoms: C_25  and  C_26 
REMARK   10  A    between atoms: C_26  and  O_27 
ROOT
HETATM    1  C   UNK N   1      23.848  20.243   3.149  0.00  0.00     0.069 A 
HETATM    2  C   UNK N   1      25.192  20.681   3.128  0.00  0.00     0.039 A 
HETATM    3  C   UNK N   1      26.213  19.889   3.688  0.00  0.00     0.033 A 
HETATM    4  C   UNK N   1      25.858  18.655   4.235  0.00  0.00     0.046 A 
HETATM    5  C   UNK N   1      24.567  18.215   4.223  0.00  0.00     0.002 A 
HETATM    6  C   UNK N   1      23.538  18.982   3.696  0.00  0.00     0.051 A 
HETATM    7  N   UNK N   1      26.664  17.754   4.836  0.00  0.00    -0.345 N 
HETATM    8  C   UNK N   1      25.858  16.710   5.201  0.00  0.00     0.016 A 
HETATM    9  C   UNK N   1      24.533  16.974   4.808  0.00  0.00    -0.015 A 
HETATM   10  C   UNK N   1      26.309  15.487   5.923  0.00  0.00     0.069 C 
ENDROOT
BRANCH   1  11
HETATM   11  O   UNK N   1      22.882  21.049   2.639  0.00  0.00    -0.351 OA
BRANCH  11  12
HETATM   12  C   UNK N   1      21.513  20.852   2.770  0.00  0.00     0.176 C 
BRANCH  12  13
HETATM   13  C   UNK N   1      20.808  20.285   1.537  0.00  0.00     0.037 C 
BRANCH  13  14
HETATM   14  C   UNK N   1      20.596  18.783   1.608  0.00  0.00     0.112 C 
BRANCH  14  15
HETATM   15  C   UNK N   1      19.581  18.443   2.647  0.00  0.00     0.139 C 
HETATM   16  O   UNK N   1      19.920  17.880   3.675  0.00  0.00    -0.650 OA
BRANCH  15  17
HETATM   17  O   UNK N   1      18.290  18.764   2.450  0.00  0.00    -0.776 OA
HETATM   18  H   UNK N   1      17.759  18.241   1.883  0.00  0.00     0.167 HD
ENDBRANCH  15  17
ENDBRANCH  14  15
ENDBRANCH  13  14
ENDBRANCH  12  13
ENDBRANCH  11  12
ENDBRANCH   1  11
BRANCH   9  19
HETATM   19  C   UNK N   1      23.256  16.178   4.938  0.00  0.00     0.144 C 
BRANCH  19  20
HETATM   20  C   UNK N   1      22.454  16.336   6.188  0.00  0.00     0.219 C 
HETATM   21  N   UNK N   1      21.664  17.414   6.362  0.00  0.00    -0.370 N 
HETATM   22  H   UNK N   1      21.545  18.294   6.788  0.00  0.00     0.159 HD
HETATM   23  H   UNK N   1      20.850  17.250   5.834  0.00  0.00     0.159 HD
HETATM   24  O   UNK N   1      22.588  15.529   7.093  0.00  0.00    -0.273 OA
ENDBRANCH  19  20
ENDBRANCH   9  19
BRANCH   7  25
HETATM   25  C   UNK N   1      28.107  18.012   4.998  0.00  0.00     0.167 C 
BRANCH  25  26
HETATM   26  C   UNK N   1      28.674  18.063   6.380  0.00  0.00    -0.040 A 
HETATM   27  C   UNK N   1      29.824  17.315   6.663  0.00  0.00     0.009 A 
HETATM   28  C   UNK N   1      30.324  17.259   7.967  0.00  0.00     0.001 A 
HETATM   29  C   UNK N   1      29.670  17.943   8.995  0.00  0.00     0.000 A 
HETATM   30  C   UNK N   1      28.511  18.676   8.720  0.00  0.00     0.001 A 
HETATM   31  C   UNK N   1      28.004  18.724   7.417  0.00  0.00     0.009 A 
ENDBRANCH  25  26
ENDBRANCH   7  25
TORSDOF 10
ENDMDL
MODEL 2
REMARK VINA RESULT:      -6.8      4.042      6.264
REMARK  10 active torsions:
REMARK  status: ('A' for Active; 'I' for Inactive)
REMARK    1  A    between atoms: C_1  and  O_22 
REMARK    2  A    between atoms: N_7  and  C_10 
REMARK    3  A    between atoms: C_9  and  C_18 
REMARK    4  A    between atoms: C_10  and  C_11 
REMARK    5  A    between atoms: C_18  and  C_19 
REMARK       I    between atoms: C_19  and  N_20 
REMARK    6  A    between atoms: O_22  and  C_23 
REMARK    7  A    between atoms: C_23  and  C_24 
REMARK    8  A    between atoms: C_24  and  C_25 
REMARK    9  A    between atoms: C_25  and  C_26 
REMARK   10  A    between atoms: C_26  and  O_27 
ROOT
HETATM    1  C   UNK N   1      22.746  16.616   5.272  0.00  0.00     0.069 A 
HETATM    2  C   UNK N   1      23.241  15.292   5.257  0.00  0.00     0.039 A 
HETATM    3  C   UNK N   1      22.800  14.350   6.206  0.00  0.00     0.033 A 
HETATM    4  C   UNK N   1      21.844  14.758   7.138  0.00  0.00     0.046 A 
HETATM    5  C   UNK N   1      21.339  16.026   7.131  0.00  0.00     0.002 A 
HETATM    6  C   UNK N   1      21.769  16.980   6.220  0.00  0.00     0.051 A 
HETATM    7  N   UNK N   1      21.302  14.033   8.139  0.00  0.00    -0.345 N 
HETATM    8  C   UNK N   1      20.420  14.865   8.773  0.00  0.00     0.016 A 
HETATM    9  C   UNK N   1      20.416  16.123   8.141  0.00  0.00    -0.015 A 
HETATM   10  C   UNK N   1      19.601  14.503   9.964  0.00  0.00     0.069 C 
ENDROOT
BRANCH   1  11
HETATM   11  O   UNK N   1      23.223  17.510   4.370  0.00  0.00    -0.351 OA
BRANCH  11  12
HETATM   12  C   UNK N   1      23.369  18.875   4.584  0.00  0.00     0.176 C 
BRANCH  12  13
HETATM   13  C   UNK N   1      23.209  19.758   3.346  0.00  0.00     0.037 C 
BRANCH  13  14
HETATM   14  C   UNK N   1      21.886  19.550   2.631  0.00  0.00     0.112 C 
BRANCH  14  15
HETATM   15  C   UNK N   1      20.973  20.706   2.864  0.00  0.00     0.139 C 
HETATM   16  O   UNK N   1      20.291  20.756   3.875  0.00  0.00    -0.650 OA
BRANCH  15  17
HETATM   17  O   UNK N   1      20.909  21.700   1.960  0.00  0.00    -0.776 OA
HETATM   18  H   UNK N   1      20.221  21.710   1.324  0.00  0.00     0.167 HD
ENDBRANCH  15  17
ENDBRANCH  14  15
ENDBRANCH  13  14
ENDBRANCH  12  13
ENDBRANCH  11  12
ENDBRANCH   1  11
BRANCH   9  19
HETATM   19  C   UNK N   1      19.637  17.390   8.404  0.00  0.00     0.144 C 
BRANCH  19  20
HETATM   20  C   UNK N   1      18.159  17.281   8.588  0.00  0.00     0.219 C 
HETATM   21  N   UNK N   1      17.555  17.872   9.637  0.00  0.00    -0.370 N 
HETATM   22  H   UNK N   1      17.155  17.766  10.530  0.00  0.00     0.159 HD
HETATM   23  H   UNK N   1      17.479  18.828   9.411  0.00  0.00     0.159 HD
HETATM   24  O   UNK N   1      17.511  16.576   7.832  0.00  0.00    -0.273 OA
ENDBRANCH  19  20
ENDBRANCH   9  19
BRANCH   7  25
HETATM   25  C   UNK N   1      21.708  12.635   8.372  0.00  0.00     0.167 C 
BRANCH  25  26
HETATM   26  C   UNK N   1      22.644  12.340   9.500  0.00  0.00    -0.040 A 
HETATM   27  C   UNK N   1      22.107  12.049  10.761  0.00  0.00     0.009 A 
HETATM   28  C   UNK N   1      22.950  11.868  11.860  0.00  0.00     0.001 A 
HETATM   29  C   UNK N   1      24.334  11.986  11.705  0.00  0.00     0.000 A 
HETATM   30  C   UNK N   1      24.873  12.295  10.452  0.00  0.00     0.001 A 
HETATM   31  C   UNK N   1      24.028  12.487   9.353  0.00  0.00     0.009 A 
ENDBRANCH  25  26
ENDBRANCH   7  25
TORSDOF 10
ENDMDL
MODEL 3
REMARK VINA RESULT:      -6.8      6.341     10.181
REMARK  10 active torsions:
REMARK  status: ('A' for Active; 'I' for Inactive)
REMARK    1  A    between atoms: C_1  and  O_22 
REMARK    2  A    between atoms: N_7  and  C_10 
REMARK    3  A    between atoms: C_9  and  C_18 
REMARK    4  A    between atoms: C_10  and  C_11 
REMARK    5  A    between atoms: C_18  and  C_19 
REMARK       I    between atoms: C_19  and  N_20 
REMARK    6  A    between atoms: O_22  and  C_23 
REMARK    7  A    between atoms: C_23  and  C_24 
REMARK    8  A    between atoms: C_24  and  C_25 
REMARK    9  A    between atoms: C_25  and  C_26 
REMARK   10  A    between atoms: C_26  and  O_27 
ROOT
HETATM    1  C   UNK N   1      33.282  17.530   7.776  0.00  0.00     0.069 A 
HETATM    2  C   UNK N   1      32.007  17.630   8.380  0.00  0.00     0.039 A 
HETATM    3  C   UNK N   1      30.836  17.471   7.614  0.00  0.00     0.033 A 
HETATM    4  C   UNK N   1      30.977  17.186   6.255  0.00  0.00     0.046 A 
HETATM    5  C   UNK N   1      32.206  17.052   5.679  0.00  0.00     0.002 A 
HETATM    6  C   UNK N   1      33.376  17.223   6.404  0.00  0.00     0.051 A 
HETATM    7  N   UNK N   1      29.999  17.016   5.340  0.00  0.00    -0.345 N 
HETATM    8  C   UNK N   1      30.631  16.755   4.155  0.00  0.00     0.016 A 
HETATM    9  C   UNK N   1      32.025  16.757   4.351  0.00  0.00    -0.015 A 
HETATM   10  C   UNK N   1      29.952  16.523   2.850  0.00  0.00     0.069 C 
ENDROOT
BRANCH   1  11
HETATM   11  O   UNK N   1      34.389  17.731   8.534  0.00  0.00    -0.351 OA
BRANCH  11  12
HETATM   12  C   UNK N   1      34.839  16.892   9.545  0.00  0.00     0.176 C 
BRANCH  12  13
HETATM   13  C   UNK N   1      35.251  15.487   9.103  0.00  0.00     0.037 C 
BRANCH  13  14
HETATM   14  C   UNK N   1      34.200  14.433   9.404  0.00  0.00     0.112 C 
BRANCH  14  15
HETATM   15  C   UNK N   1      33.480  14.037   8.159  0.00  0.00     0.139 C 
HETATM   16  O   UNK N   1      32.262  13.961   8.151  0.00  0.00    -0.650 OA
BRANCH  15  17
HETATM   17  O   UNK N   1      34.178  13.770   7.040  0.00  0.00    -0.776 OA
HETATM   18  H   UNK N   1      33.728  13.573   6.243  0.00  0.00     0.167 HD
ENDBRANCH  15  17
ENDBRANCH  14  15
ENDBRANCH  13  14
ENDBRANCH  12  13
ENDBRANCH  11  12
ENDBRANCH   1  11
BRANCH   9  19
HETATM   19  C   UNK N   1      33.184  16.516   3.413  0.00  0.00     0.144 C 
BRANCH  19  20
HETATM   20  C   UNK N   1      33.714  15.125   3.294  0.00  0.00     0.219 C 
HETATM   21  N   UNK N   1      33.315  14.325   2.286  0.00  0.00    -0.370 N 
HETATM   22  H   UNK N   1      32.740  13.580   1.997  0.00  0.00     0.159 HD
HETATM   23  H   UNK N   1      33.819  14.609   1.489  0.00  0.00     0.159 HD
HETATM   24  O   UNK N   1      34.442  14.683   4.167  0.00  0.00    -0.273 OA
ENDBRANCH  19  20
ENDBRANCH   9  19
BRANCH   7  25
HETATM   25  C   UNK N   1      28.577  17.138   5.713  0.00  0.00     0.167 C 
BRANCH  25  26
HETATM   26  C   UNK N   1      27.921  18.477   5.605  0.00  0.00    -0.040 A 
HETATM   27  C   UNK N   1      27.576  18.956   4.336  0.00  0.00     0.009 A 
HETATM   28  C   UNK N   1      27.055  20.244   4.187  0.00  0.00     0.001 A 
HETATM   29  C   UNK N   1      26.885  21.062   5.308  0.00  0.00     0.000 A 
HETATM   30  C   UNK N   1      27.246  20.594   6.575  0.00  0.00     0.001 A 
HETATM   31  C   UNK N   1      27.778  19.308   6.723  0.00  0.00     0.009 A 
ENDBRANCH  25  26
ENDBRANCH   7  25
TORSDOF 10
ENDMDL
MODEL 4
REMARK VINA RESULT:      -6.7     10.049     13.866
REMARK  10 active torsions:
REMARK  status: ('A' for Active; 'I' for Inactive)
REMARK    1  A    between atoms: C_1  and  O_22 
REMARK    2  A    between atoms: N_7  and  C_10 
REMARK    3  A    between atoms: C_9  and  C_18 
REMARK    4  A    between atoms: C_10  and  C_11 
REMARK    5  A    between atoms: C_18  and  C_19 
REMARK       I    between atoms: C_19  and  N_20 
REMARK    6  A    between atoms: O_22  and  C_23 
REMARK    7  A    between atoms: C_23  and  C_24 
REMARK    8  A    between atoms: C_24  and  C_25 
REMARK    9  A    between atoms: C_25  and  C_26 
REMARK   10  A    between atoms: C_26  and  O_27 
ROOT
HETATM    1  C   UNK N   1      34.599  14.933  10.634  0.00  0.00     0.069 A 
HETATM    2  C   UNK N   1      35.362  15.388  11.734  0.00  0.00     0.039 A 
HETATM    3  C   UNK N   1      36.033  14.474  12.569  0.00  0.00     0.033 A 
HETATM    4  C   UNK N   1      35.941  13.117  12.259  0.00  0.00     0.046 A 
HETATM    5  C   UNK N   1      35.235  12.679  11.177  0.00  0.00     0.002 A 
HETATM    6  C   UNK N   1      34.549  13.555  10.348  0.00  0.00     0.051 A 
HETATM    7  N   UNK N   1      36.482  12.077  12.929  0.00  0.00    -0.345 N 
HETATM    8  C   UNK N   1      36.116  10.952  12.241  0.00  0.00     0.016 A 
HETATM    9  C   UNK N   1      35.343  11.312  11.121  0.00  0.00    -0.015 A 
HETATM   10  C   UNK N   1      36.466   9.556  12.626  0.00  0.00     0.069 C 
ENDROOT
BRANCH   1  11
HETATM   11  O   UNK N   1      33.931  15.838   9.874  0.00  0.00    -0.351 OA
BRANCH  11  12
HETATM   12  C   UNK N   1      32.800  15.574   9.111  0.00  0.00     0.176 C 
BRANCH  12  13
HETATM   13  C   UNK N   1      32.507  16.579   7.998  0.00  0.00     0.037 C 
BRANCH  13  14
HETATM   14  C   UNK N   1      32.906  18.001   8.354  0.00  0.00     0.112 C 
BRANCH  14  15
HETATM   15  C   UNK N   1      34.225  18.345   7.749  0.00  0.00     0.139 C 
HETATM   16  O   UNK N   1      34.527  17.913   6.648  0.00  0.00    -0.650 OA
BRANCH  15  17
HETATM   17  O   UNK N   1      35.080  19.139   8.418  0.00  0.00    -0.776 OA
HETATM   18  H   UNK N   1      34.751  19.801   8.993  0.00  0.00     0.167 HD
ENDBRANCH  15  17
ENDBRANCH  14  15
ENDBRANCH  13  14
ENDBRANCH  12  13
ENDBRANCH  11  12
ENDBRANCH   1  11
BRANCH   9  19
HETATM   19  C   UNK N   1      34.700  10.496  10.024  0.00  0.00     0.144 C 
BRANCH  19  20
HETATM   20  C   UNK N   1      33.256  10.144  10.166  0.00  0.00     0.219 C 
HETATM   21  N   UNK N   1      32.308  10.891   9.567  0.00  0.00    -0.370 N 
HETATM   22  H   UNK N   1      31.617  11.586   9.663  0.00  0.00     0.159 HD
HETATM   23  H   UNK N   1      32.303  10.625   8.619  0.00  0.00     0.159 HD
HETATM   24  O   UNK N   1      32.931   9.229  10.904  0.00  0.00    -0.273 OA
ENDBRANCH  19  20
ENDBRANCH   9  19
BRANCH   7  25
HETATM   25  C   UNK N   1      37.272  12.290  14.156  0.00  0.00     0.167 C 
BRANCH  25  26
HETATM   26  C   UNK N   1      36.592  12.143  15.480  0.00  0.00    -0.040 A 
HETATM   27  C   UNK N   1      36.589  10.886  16.098  0.00  0.00     0.009 A 
HETATM   28  C   UNK N   1      35.878  10.687  17.285  0.00  0.00     0.001 A 
HETATM   29  C   UNK N   1      35.161  11.742  17.853  0.00  0.00     0.000 A 
HETATM   30  C   UNK N   1      35.147  12.994  17.230  0.00  0.00     0.001 A 
HETATM   31  C   UNK N   1      35.849  13.191  16.036  0.00  0.00     0.009 A 
ENDBRANCH  25  26
ENDBRANCH   7  25
TORSDOF 10
ENDMDL
MODEL 5
REMARK VINA RESULT:      -6.7      4.304      8.773
REMARK  10 active torsions:
REMARK  status: ('A' for Active; 'I' for Inactive)
REMARK    1  A    between atoms: C_1  and  O_22 
REMARK    2  A    between atoms: N_7  and  C_10 
REMARK    3  A    between atoms: C_9  and  C_18 
REMARK    4  A    between atoms: C_10  and  C_11 
REMARK    5  A    between atoms: C_18  and  C_19 
REMARK       I    between atoms: C_19  and  N_20 
REMARK    6  A    between atoms: O_22  and  C_23 
REMARK    7  A    between atoms: C_23  and  C_24 
REMARK    8  A    between atoms: C_24  and  C_25 
REMARK    9  A    between atoms: C_25  and  C_26 
REMARK   10  A    between atoms: C_26  and  O_27 
ROOT
HETATM    1  C   UNK N   1      30.327  16.066   5.517  0.00  0.00     0.069 A 
HETATM    2  C   UNK N   1      29.873  16.357   4.210  0.00  0.00     0.039 A 
HETATM    3  C   UNK N   1      28.981  17.422   3.981  0.00  0.00     0.033 A 
HETATM    4  C   UNK N   1      28.585  18.191   5.076  0.00  0.00     0.046 A 
HETATM    5  C   UNK N   1      29.051  17.934   6.333  0.00  0.00     0.002 A 
HETATM    6  C   UNK N   1      29.915  16.880   6.591  0.00  0.00     0.051 A 
HETATM    7  N   UNK N   1      27.730  19.235   5.088  0.00  0.00    -0.345 N 
HETATM    8  C   UNK N   1      27.666  19.656   6.388  0.00  0.00     0.016 A 
HETATM    9  C   UNK N   1      28.506  18.859   7.187  0.00  0.00    -0.015 A 
HETATM   10  C   UNK N   1      26.821  20.777   6.889  0.00  0.00     0.069 C 
ENDROOT
BRANCH   1  11
HETATM   11  O   UNK N   1      31.153  15.007   5.709  0.00  0.00    -0.351 OA
BRANCH  11  12
HETATM   12  C   UNK N   1      32.210  14.645   4.882  0.00  0.00     0.176 C 
BRANCH  12  13
HETATM   13  C   UNK N   1      33.599  15.061   5.367  0.00  0.00     0.037 C 
BRANCH  13  14
HETATM   14  C   UNK N   1      33.562  15.936   6.608  0.00  0.00     0.112 C 
BRANCH  14  15
HETATM   15  C   UNK N   1      33.873  17.353   6.263  0.00  0.00     0.139 C 
HETATM   16  O   UNK N   1      33.499  17.823   5.201  0.00  0.00    -0.650 OA
BRANCH  15  17
HETATM   17  O   UNK N   1      34.564  18.116   7.130  0.00  0.00    -0.776 OA
HETATM   18  H   UNK N   1      34.790  18.996   6.903  0.00  0.00     0.167 HD
ENDBRANCH  15  17
ENDBRANCH  14  15
ENDBRANCH  13  14
ENDBRANCH  12  13
ENDBRANCH  11  12
ENDBRANCH   1  11
BRANCH   9  19
HETATM   19  C   UNK N   1      28.831  18.884   8.663  0.00  0.00     0.144 C 
BRANCH  19  20
HETATM   20  C   UNK N   1      28.581  17.644   9.457  0.00  0.00     0.219 C 
HETATM   21  N   UNK N   1      29.554  17.115  10.224  0.00  0.00    -0.370 N 
HETATM   22  H   UNK N   1      30.245  16.421  10.324  0.00  0.00     0.159 HD
HETATM   23  H   UNK N   1      29.589  17.661  11.044  0.00  0.00     0.159 HD
HETATM   24  O   UNK N   1      27.517  17.059   9.338  0.00  0.00    -0.273 OA
ENDBRANCH  19  20
ENDBRANCH   9  19
BRANCH   7  25
HETATM   25  C   UNK N   1      27.069  19.692   3.851  0.00  0.00     0.167 C 
BRANCH  25  26
HETATM   26  C   UNK N   1      25.594  19.497   3.715  0.00  0.00    -0.040 A 
HETATM   27  C   UNK N   1      24.845  20.473   3.044  0.00  0.00     0.009 A 
HETATM   28  C   UNK N   1      23.452  20.375   2.985  0.00  0.00     0.001 A 
HETATM   29  C   UNK N   1      22.802  19.304   3.604  0.00  0.00     0.000 A 
HETATM   30  C   UNK N   1      23.544  18.337   4.290  0.00  0.00     0.001 A 
HETATM   31  C   UNK N   1      24.937  18.441   4.359  0.00  0.00     0.009 A 
ENDBRANCH  25  26
ENDBRANCH   7  25
TORSDOF 10
ENDMDL
MODEL 6
REMARK VINA RESULT:      -6.6      4.045      6.720
REMARK  10 active torsions:
REMARK  status: ('A' for Active; 'I' for Inactive)
REMARK    1  A    between atoms: C_1  and  O_22 
REMARK    2  A    between atoms: N_7  and  C_10 
REMARK    3  A    between atoms: C_9  and  C_18 
REMARK    4  A    between atoms: C_10  and  C_11 
REMARK    5  A    between atoms: C_18  and  C_19 
REMARK       I    between atoms: C_19  and  N_20 
REMARK    6  A    between atoms: O_22  and  C_23 
REMARK    7  A    between atoms: C_23  and  C_24 
REMARK    8  A    between atoms: C_24  and  C_25 
REMARK    9  A    between atoms: C_25  and  C_26 
REMARK   10  A    between atoms: C_26  and  O_27 
ROOT
HETATM    1  C   UNK N   1      27.840  17.057   4.799  0.00  0.00     0.069 A 
HETATM    2  C   UNK N   1      28.801  17.086   3.763  0.00  0.00     0.039 A 
HETATM    3  C   UNK N   1      30.176  17.157   4.061  0.00  0.00     0.033 A 
HETATM    4  C   UNK N   1      30.554  17.169   5.404  0.00  0.00     0.046 A 
HETATM    5  C   UNK N   1      29.629  17.104   6.405  0.00  0.00     0.002 A 
HETATM    6  C   UNK N   1      28.268  17.053   6.141  0.00  0.00     0.051 A 
HETATM    7  N   UNK N   1      31.802  17.252   5.912  0.00  0.00    -0.345 N 
HETATM    8  C   UNK N   1      31.659  17.226   7.272  0.00  0.00     0.016 A 
HETATM    9  C   UNK N   1      30.296  17.115   7.604  0.00  0.00    -0.015 A 
HETATM   10  C   UNK N   1      32.774  17.320   8.256  0.00  0.00     0.069 C 
ENDROOT
BRANCH   1  11
HETATM   11  O   UNK N   1      26.522  17.031   4.477  0.00  0.00    -0.351 OA
BRANCH  11  12
HETATM   12  C   UNK N   1      25.858  17.982   3.712  0.00  0.00     0.176 C 
BRANCH  12  13
HETATM   13  C   UNK N   1      25.388  19.225   4.469  0.00  0.00     0.037 C 
BRANCH  13  14
HETATM   14  C   UNK N   1      26.399  20.358   4.446  0.00  0.00     0.112 C 
BRANCH  14  15
HETATM   15  C   UNK N   1      26.738  20.788   5.834  0.00  0.00     0.139 C 
HETATM   16  O   UNK N   1      27.263  21.872   6.030  0.00  0.00    -0.650 OA
BRANCH  15  17
HETATM   17  O   UNK N   1      26.457  19.979   6.871  0.00  0.00    -0.776 OA
HETATM   18  H   UNK N   1      26.157  20.342   7.681  0.00  0.00     0.167 HD
ENDBRANCH  15  17
ENDBRANCH  14  15
ENDBRANCH  13  14
ENDBRANCH  12  13
ENDBRANCH  11  12
ENDBRANCH   1  11
BRANCH   9  19
HETATM   19  C   UNK N   1      29.576  17.028   8.929  0.00  0.00     0.144 C 
BRANCH  19  20
HETATM   20  C   UNK N   1      29.003  18.283   9.500  0.00  0.00     0.219 C 
HETATM   21  N   UNK N   1      27.755  18.675   9.176  0.00  0.00    -0.370 N 
HETATM   22  H   UNK N   1      27.189  19.273   8.636  0.00  0.00     0.159 HD
HETATM   23  H   UNK N   1      27.142  18.124   9.714  0.00  0.00     0.159 HD
HETATM   24  O   UNK N   1      29.704  19.002  10.193  0.00  0.00    -0.273 OA
ENDBRANCH  19  20
ENDBRANCH   9  19
BRANCH   7  25
HETATM   25  C   UNK N   1      32.977  17.361   5.028  0.00  0.00     0.167 C 
BRANCH  25  26
HETATM   26  C   UNK N   1      33.574  16.108   4.473  0.00  0.00    -0.040 A 
HETATM   27  C   UNK N   1      34.433  15.356   5.284  0.00  0.00     0.009 A 
HETATM   28  C   UNK N   1      35.088  14.234   4.767  0.00  0.00     0.001 A 
HETATM   29  C   UNK N   1      34.894  13.867   3.433  0.00  0.00     0.000 A 
HETATM   30  C   UNK N   1      34.051  14.625   2.615  0.00  0.00     0.001 A 
HETATM   31  C   UNK N   1      33.404  15.754   3.129  0.00  0.00     0.009 A 
ENDBRANCH  25  26
ENDBRANCH   7  25
TORSDOF 10
ENDMDL
MODEL 7
REMARK VINA RESULT:      -6.5      2.840      5.142
REMARK  10 active torsions:
REMARK  status: ('A' for Active; 'I' for Inactive)
REMARK    1  A    between atoms: C_1  and  O_22 
REMARK    2  A    between atoms: N_7  and  C_10 
REMARK    3  A    between atoms: C_9  and  C_18 
REMARK    4  A    between atoms: C_10  and  C_11 
REMARK    5  A    between atoms: C_18  and  C_19 
REMARK       I    between atoms: C_19  and  N_20 
REMARK    6  A    between atoms: O_22  and  C_23 
REMARK    7  A    between atoms: C_23  and  C_24 
REMARK    8  A    between atoms: C_24  and  C_25 
REMARK    9  A    between atoms: C_25  and  C_26 
REMARK   10  A    between atoms: C_26  and  O_27 
ROOT
HETATM    1  C   UNK N   1      21.066  16.618   5.113  0.00  0.00     0.069 A 
HETATM    2  C   UNK N   1      22.320  16.090   5.498  0.00  0.00     0.039 A 
HETATM    3  C   UNK N   1      23.516  16.730   5.116  0.00  0.00     0.033 A 
HETATM    4  C   UNK N   1      23.419  17.908   4.375  0.00  0.00     0.046 A 
HETATM    5  C   UNK N   1      22.209  18.439   4.034  0.00  0.00     0.002 A 
HETATM    6  C   UNK N   1      21.016  17.820   4.379  0.00  0.00     0.051 A 
HETATM    7  N   UNK N   1      24.426  18.666   3.892  0.00  0.00    -0.345 N 
HETATM    8  C   UNK N   1      23.832  19.712   3.239  0.00  0.00     0.016 A 
HETATM    9  C   UNK N   1      22.433  19.596   3.331  0.00  0.00    -0.015 A 
HETATM   10  C   UNK N   1      24.554  20.799   2.521  0.00  0.00     0.069 C 
ENDROOT
BRANCH   1  11
HETATM   11  O   UNK N   1      19.935  15.954   5.460  0.00  0.00    -0.351 OA
BRANCH  11  12
HETATM   12  C   UNK N   1      19.561  15.618   6.755  0.00  0.00     0.176 C 
BRANCH  12  13
HETATM   13  C   UNK N   1      19.013  16.767   7.603  0.00  0.00     0.037 C 
BRANCH  13  14
HETATM   14  C   UNK N   1      19.940  17.169   8.736  0.00  0.00     0.112 C 
BRANCH  14  15
HETATM   15  C   UNK N   1      19.394  18.346   9.471  0.00  0.00     0.139 C 
HETATM   16  O   UNK N   1      20.107  19.307   9.709  0.00  0.00    -0.650 OA
BRANCH  15  17
HETATM   17  O   UNK N   1      18.108  18.349   9.866  0.00  0.00    -0.776 OA
HETATM   18  H   UNK N   1      17.897  18.278  10.776  0.00  0.00     0.167 HD
ENDBRANCH  15  17
ENDBRANCH  14  15
ENDBRANCH  13  14
ENDBRANCH  12  13
ENDBRANCH  11  12
ENDBRANCH   1  11
BRANCH   9  19
HETATM   19  C   UNK N   1      21.304  20.460   2.819  0.00  0.00     0.144 C 
BRANCH  19  20
HETATM   20  C   UNK N   1      20.844  20.252   1.414  0.00  0.00     0.219 C 
HETATM   21  N   UNK N   1      20.344  21.279   0.699  0.00  0.00    -0.370 N 
HETATM   22  H   UNK N   1      19.543  21.732   0.349  0.00  0.00     0.159 HD
HETATM   23  H   UNK N   1      21.117  21.805   0.391  0.00  0.00     0.159 HD
HETATM   24  O   UNK N   1      20.837  19.126   0.945  0.00  0.00    -0.273 OA
ENDBRANCH  19  20
ENDBRANCH   9  19
BRANCH   7  25
HETATM   25  C   UNK N   1      25.835  18.287   4.105  0.00  0.00     0.167 C 
BRANCH  25  26
HETATM   26  C   UNK N   1      26.583  18.916   5.236  0.00  0.00    -0.040 A 
HETATM   27  C   UNK N   1      27.503  18.138   5.950  0.00  0.00     0.009 A 
HETATM   28  C   UNK N   1      28.145  18.662   7.076  0.00  0.00     0.001 A 
HETATM   29  C   UNK N   1      27.863  19.965   7.496  0.00  0.00     0.000 A 
HETATM   30  C   UNK N   1      26.932  20.739   6.796  0.00  0.00     0.001 A 
HETATM   31  C   UNK N   1      26.280  20.211   5.677  0.00  0.00     0.009 A 
ENDBRANCH  25  26
ENDBRANCH   7  25
TORSDOF 10
ENDMDL
MODEL 8
REMARK VINA RESULT:      -6.5      6.612     10.334
REMARK  10 active torsions:
REMARK  status: ('A' for Active; 'I' for Inactive)
REMARK    1  A    between atoms: C_1  and  O_22 
REMARK    2  A    between atoms: N_7  and  C_10 
REMARK    3  A    between atoms: C_9  and  C_18 
REMARK    4  A    between atoms: C_10  and  C_11 
REMARK    5  A    between atoms: C_18  and  C_19 
REMARK       I    between atoms: C_19  and  N_20 
REMARK    6  A    between atoms: O_22  and  C_23 
REMARK    7  A    between atoms: C_23  and  C_24 
REMARK    8  A    between atoms: C_24  and  C_25 
REMARK    9  A    between atoms: C_25  and  C_26 
REMARK   10  A    between atoms: C_26  and  O_27 
ROOT
HETATM    1  C   UNK N   1      32.969  16.006   3.471  0.00  0.00     0.069 A 
HETATM    2  C   UNK N   1      31.581  15.946   3.205  0.00  0.00     0.039 A 
HETATM    3  C   UNK N   1      30.647  16.366   4.171  0.00  0.00     0.033 A 
HETATM    4  C   UNK N   1      31.134  16.865   5.379  0.00  0.00     0.046 A 
HETATM    5  C   UNK N   1      32.474  16.958   5.623  0.00  0.00     0.002 A 
HETATM    6  C   UNK N   1      33.416  16.534   4.699  0.00  0.00     0.051 A 
HETATM    7  N   UNK N   1      30.424  17.300   6.442  0.00  0.00    -0.345 N 
HETATM    8  C   UNK N   1      31.343  17.690   7.377  0.00  0.00     0.016 A 
HETATM    9  C   UNK N   1      32.643  17.498   6.874  0.00  0.00    -0.015 A 
HETATM   10  C   UNK N   1      31.021  18.219   8.732  0.00  0.00     0.069 C 
ENDROOT
BRANCH   1  11
HETATM   11  O   UNK N   1      33.841  15.554   2.535  0.00  0.00    -0.351 OA
BRANCH  11  12
HETATM   12  C   UNK N   1      34.052  14.221   2.204  0.00  0.00     0.176 C 
BRANCH  12  13
HETATM   13  C   UNK N   1      34.462  13.310   3.362  0.00  0.00     0.037 C 
BRANCH  13  14
HETATM   14  C   UNK N   1      35.826  13.649   3.935  0.00  0.00     0.112 C 
BRANCH  14  15
HETATM   15  C   UNK N   1      35.709  14.067   5.362  0.00  0.00     0.139 C 
HETATM   16  O   UNK N   1      36.349  15.019   5.778  0.00  0.00    -0.650 OA
BRANCH  15  17
HETATM   17  O   UNK N   1      34.889  13.394   6.190  0.00  0.00    -0.776 OA
HETATM   18  H   UNK N   1      34.816  13.651   7.087  0.00  0.00     0.167 HD
ENDBRANCH  15  17
ENDBRANCH  14  15
ENDBRANCH  13  14
ENDBRANCH  12  13
ENDBRANCH  11  12
ENDBRANCH   1  11
BRANCH   9  19
HETATM   19  C   UNK N   1      34.011  17.766   7.458  0.00  0.00     0.144 C 
BRANCH  19  20
HETATM   20  C   UNK N   1      34.484  16.887   8.568  0.00  0.00     0.219 C 
HETATM   21  N   UNK N   1      34.598  15.557   8.387  0.00  0.00    -0.370 N 
HETATM   22  H   UNK N   1      34.211  14.664   8.536  0.00  0.00     0.159 HD
HETATM   23  H   UNK N   1      35.435  15.415   7.888  0.00  0.00     0.159 HD
HETATM   24  O   UNK N   1      34.681  17.368   9.672  0.00  0.00    -0.273 OA
ENDBRANCH  19  20
ENDBRANCH   9  19
BRANCH   7  25
HETATM   25  C   UNK N   1      28.949  17.275   6.434  0.00  0.00     0.167 C 
BRANCH  25  26
HETATM   26  C   UNK N   1      28.214  18.529   6.085  0.00  0.00    -0.040 A 
HETATM   27  C   UNK N   1      28.007  18.833   4.734  0.00  0.00     0.009 A 
HETATM   28  C   UNK N   1      27.414  20.045   4.368  0.00  0.00     0.001 A 
HETATM   29  C   UNK N   1      27.033  20.960   5.353  0.00  0.00     0.000 A 
HETATM   30  C   UNK N   1      27.255  20.668   6.703  0.00  0.00     0.001 A 
HETATM   31  C   UNK N   1      27.859  19.460   7.069  0.00  0.00     0.009 A 
ENDBRANCH  25  26
ENDBRANCH   7  25
TORSDOF 10
ENDMDL
MODEL 9
REMARK VINA RESULT:      -6.4      4.943      8.281
REMARK  10 active torsions:
REMARK  status: ('A' for Active; 'I' for Inactive)
REMARK    1  A    between atoms: C_1  and  O_22 
REMARK    2  A    between atoms: N_7  and  C_10 
REMARK    3  A    between atoms: C_9  and  C_18 
REMARK    4  A    between atoms: C_10  and  C_11 
REMARK    5  A    between atoms: C_18  and  C_19 
REMARK       I    between atoms: C_19  and  N_20 
REMARK    6  A    between atoms: O_22  and  C_23 
REMARK    7  A    between atoms: C_23  and  C_24 
REMARK    8  A    between atoms: C_24  and  C_25 
REMARK    9  A    between atoms: C_25  and  C_26 
REMARK   10  A    between atoms: C_26  and  O_27 
ROOT
HETATM    1  C   UNK N   1      29.696  17.871   7.312  0.00  0.00     0.069 A 
HETATM    2  C   UNK N   1      30.423  18.315   8.441  0.00  0.00     0.039 A 
HETATM    3  C   UNK N   1      31.785  17.990   8.591  0.00  0.00     0.033 A 
HETATM    4  C   UNK N   1      32.394  17.244   7.581  0.00  0.00     0.046 A 
HETATM    5  C   UNK N   1      31.703  16.846   6.473  0.00  0.00     0.002 A 
HETATM    6  C   UNK N   1      30.356  17.135   6.309  0.00  0.00     0.051 A 
HETATM    7  N   UNK N   1      33.670  16.808   7.529  0.00  0.00    -0.345 N 
HETATM    8  C   UNK N   1      33.790  16.126   6.349  0.00  0.00     0.016 A 
HETATM    9  C   UNK N   1      32.564  16.153   5.659  0.00  0.00    -0.015 A 
HETATM   10  C   UNK N   1      35.024  15.441   5.872  0.00  0.00     0.069 C 
ENDROOT
BRANCH   1  11
HETATM   11  O   UNK N   1      28.375  18.166   7.219  0.00  0.00    -0.351 OA
BRANCH  11  12
HETATM   12  C   UNK N   1      27.763  19.304   7.730  0.00  0.00     0.176 C 
BRANCH  12  13
HETATM   13  C   UNK N   1      27.358  20.356   6.697  0.00  0.00     0.037 C 
BRANCH  13  14
HETATM   14  C   UNK N   1      26.580  19.777   5.528  0.00  0.00     0.112 C 
BRANCH  14  15
HETATM   15  C   UNK N   1      27.383  19.853   4.272  0.00  0.00     0.139 C 
HETATM   16  O   UNK N   1      26.897  20.332   3.261  0.00  0.00    -0.650 OA
BRANCH  15  17
HETATM   17  O   UNK N   1      28.648  19.397   4.260  0.00  0.00    -0.776 OA
HETATM   18  H   UNK N   1      29.234  19.660   3.579  0.00  0.00     0.167 HD
ENDBRANCH  15  17
ENDBRANCH  14  15
ENDBRANCH  13  14
ENDBRANCH  12  13
ENDBRANCH  11  12
ENDBRANCH   1  11
BRANCH   9  19
HETATM   19  C   UNK N   1      32.134  15.587   4.326  0.00  0.00     0.144 C 
BRANCH  19  20
HETATM   20  C   UNK N   1      32.519  16.332   3.091  0.00  0.00     0.219 C 
HETATM   21  N   UNK N   1      31.735  17.318   2.613  0.00  0.00    -0.370 N 
HETATM   22  H   UNK N   1      31.062  17.593   1.948  0.00  0.00     0.159 HD
HETATM   23  H   UNK N   1      31.912  18.109   3.172  0.00  0.00     0.159 HD
HETATM   24  O   UNK N   1      33.504  15.981   2.462  0.00  0.00    -0.273 OA
ENDBRANCH  19  20
ENDBRANCH   9  19
BRANCH   7  25
HETATM   25  C   UNK N   1      34.615  17.087   8.627  0.00  0.00     0.167 C 
BRANCH  25  26
HETATM   26  C   UNK N   1      34.767  16.075   9.716  0.00  0.00    -0.040 A 
HETATM   27  C   UNK N   1      35.477  16.430  10.870  0.00  0.00     0.009 A 
HETATM   28  C   UNK N   1      35.726  15.480  11.864  0.00  0.00     0.001 A 
HETATM   29  C   UNK N   1      35.272  14.168  11.704  0.00  0.00     0.000 A 
HETATM   30  C   UNK N   1      34.578  13.805  10.545  0.00  0.00     0.001 A 
HETATM   31  C   UNK N   1      34.339  14.753   9.545  0.00  0.00     0.009 A 
ENDBRANCH  25  26
ENDBRANCH   7  25
TORSDOF 10
ENDMDL
