REMARK  10 active torsions:
REMARK  status: ('A' for Active; 'I' for Inactive)
REMARK    1  A    between atoms: C_1  and  O_22 
REMARK    2  A    between atoms: N_7  and  C_10 
REMARK    3  A    between atoms: C_9  and  C_18 
REMARK    4  A    between atoms: C_10  and  C_11 
REMARK    5  A    between atoms: C_18  and  C_19 
REMARK       I    between atoms: C_19  and  N_20 
REMARK    6  A    between atoms: O_22  and  C_23 
REMARK    7  A    between atoms: C_23  and  C_24 
REMARK    8  A    between atoms: C_24  and  C_25 
REMARK    9  A    between atoms: C_25  and  C_26 
REMARK   10  A    between atoms: C_26  and  O_27 
ROOT
HETATM    1  C   UNK N   1       1.779  -2.714   0.086  0.00  0.00     0.069 A 
HETATM    2  C   UNK N   1       0.529  -3.353  -0.082  0.00  0.00     0.039 A 
HETATM    3  C   UNK N   1      -0.658  -2.599  -0.158  0.00  0.00     0.033 A 
HETATM    4  C   UNK N   1      -0.555  -1.209  -0.090  0.00  0.00     0.046 A 
HETATM    5  C   UNK N   1       0.654  -0.589   0.035  0.00  0.00     0.002 A 
HETATM    6  C   UNK N   1       1.837  -1.307   0.132  0.00  0.00     0.051 A 
HETATM    7  N   UNK N   1      -1.555  -0.303  -0.122  0.00  0.00    -0.345 N 
HETATM    8  C   UNK N   1      -0.957   0.924  -0.027  0.00  0.00     0.016 A 
HETATM    9  C   UNK N   1       0.439   0.766   0.056  0.00  0.00    -0.015 A 
HETATM   10  C   UNK N   1      -1.673   2.230   0.004  0.00  0.00     0.069 C 
ENDROOT
BRANCH   1  11
HETATM   11  O   UNK N   1       2.899  -3.472   0.198  0.00  0.00    -0.351 OA
BRANCH  11  12
HETATM   12  C   UNK N   1       3.975  -3.205   1.035  0.00  0.00     0.176 C 
BRANCH  12  13
HETATM   13  C   UNK N   1       4.516  -1.776   0.978  0.00  0.00     0.037 C 
BRANCH  13  14
HETATM   14  C   UNK N   1       5.130  -1.422  -0.365  0.00  0.00     0.112 C 
BRANCH  14  15
HETATM   15  C   UNK N   1       6.505  -1.989  -0.481  0.00  0.00     0.139 C 
HETATM   16  O   UNK N   1       6.665  -3.193  -0.597  0.00  0.00    -0.650 OA
BRANCH  15  17
HETATM   17  O   UNK N   1       7.570  -1.167  -0.464  0.00  0.00    -0.776 OA
HETATM   18  H   UNK N   1       8.436  -1.523  -0.452  0.00  0.00     0.167 HD
ENDBRANCH  15  17
ENDBRANCH  14  15
ENDBRANCH  13  14
ENDBRANCH  12  13
ENDBRANCH  11  12
ENDBRANCH   1  11
BRANCH   9  19
HETATM   19  C   UNK N   1       1.571   1.761   0.159  0.00  0.00     0.144 C 
BRANCH  19  20
HETATM   20  C   UNK N   1       1.234   3.215   0.111  0.00  0.00     0.219 C 
HETATM   21  N   UNK N   1       0.703   3.758  -1.002  0.00  0.00    -0.370 N 
HETATM   22  H   UNK N   1       0.852   4.293  -1.815  0.00  0.00     0.159 HD
HETATM   23  H   UNK N   1      -0.251   3.514  -1.002  0.00  0.00     0.159 HD
HETATM   24  O   UNK N   1       1.527   3.930   1.055  0.00  0.00    -0.273 OA
ENDBRANCH  19  20
ENDBRANCH   9  19
BRANCH   7  25
HETATM   25  C   UNK N   1      -2.964  -0.727  -0.226  0.00  0.00     0.167 C 
BRANCH  25  26
HETATM   26  C   UNK N   1      -4.033   0.314  -0.139  0.00  0.00    -0.040 A 
HETATM   27  C   UNK N   1      -4.955   0.245   0.913  0.00  0.00     0.009 A 
HETATM   28  C   UNK N   1      -6.027   1.140   0.970  0.00  0.00     0.001 A 
HETATM   29  C   UNK N   1      -6.186   2.102  -0.031  0.00  0.00     0.000 A 
HETATM   30  C   UNK N   1      -5.278   2.163  -1.093  0.00  0.00     0.001 A 
HETATM   31  C   UNK N   1      -4.211   1.260  -1.156  0.00  0.00     0.009 A 
ENDBRANCH  25  26
ENDBRANCH   7  25
TORSDOF 10
