MODEL 1
REMARK VINA RESULT:      -4.5      0.000      0.000
REMARK  14 active torsions:
REMARK  status: ('A' for Active; 'I' for Inactive)
REMARK    1  A    between atoms: C_2  and  O_3 
REMARK    2  A    between atoms: O_3  and  C_4 
REMARK    3  A    between atoms: C_4  and  C_5 
REMARK    4  A    between atoms: C_5  and  O_6 
REMARK    5  A    between atoms: O_6  and  C_7 
REMARK    6  A    between atoms: C_7  and  C_8 
REMARK    7  A    between atoms: C_8  and  O_9 
REMARK    8  A    between atoms: O_9  and  C_10 
REMARK    9  A    between atoms: C_10  and  C_11 
REMARK   10  A    between atoms: C_11  and  O_12 
REMARK   11  A    between atoms: O_12  and  C_13 
REMARK   12  A    between atoms: C_13  and  C_14 
REMARK   13  A    between atoms: C_14  and  O_15 
REMARK   14  A    between atoms: O_15  and  C_16 
ROOT
HETATM    1  O   UNK N   1      34.560  14.421  11.936  0.00  0.00    -0.387 OA
ENDROOT
BRANCH   1   2
HETATM    2  C   UNK N   1      34.486  15.292  10.855  0.00  0.00     0.193 C 
BRANCH   2   3
HETATM    3  C   UNK N   1      35.714  16.167  10.881  0.00  0.00     0.193 C 
BRANCH   3   4
HETATM    4  O   UNK N   1      35.420  17.400  10.311  0.00  0.00    -0.387 OA
BRANCH   4   5
HETATM    5  C   UNK N   1      34.770  17.067   9.126  0.00  0.00     0.193 C 
BRANCH   5   6
HETATM    6  C   UNK N   1      34.482  18.327   8.348  0.00  0.00     0.193 C 
BRANCH   6   7
HETATM    7  O   UNK N   1      34.675  18.081   6.992  0.00  0.00    -0.389 OA
BRANCH   7   8
HETATM    8  C   UNK N   1      33.855  16.990   6.721  0.00  0.00     0.163 C 
HETATM    9  C   UNK N   1      33.133  17.217   5.411  0.00  0.00     0.033 C 
ENDBRANCH   7   8
ENDBRANCH   6   7
ENDBRANCH   5   6
ENDBRANCH   4   5
ENDBRANCH   3   4
ENDBRANCH   2   3
ENDBRANCH   1   2
BRANCH   1  10
HETATM   10  C   UNK N   1      35.800  14.669  12.512  0.00  0.00     0.193 C 
BRANCH  10  11
HETATM   11  C   UNK N   1      35.923  13.791  13.732  0.00  0.00     0.193 C 
BRANCH  11  12
HETATM   12  O   UNK N   1      34.680  13.258  14.054  0.00  0.00    -0.387 OA
BRANCH  12  13
HETATM   13  C   UNK N   1      34.946  12.473  15.172  0.00  0.00     0.193 C 
BRANCH  13  14
HETATM   14  C   UNK N   1      34.699  13.281  16.422  0.00  0.00     0.193 C 
BRANCH  14  15
HETATM   15  O   UNK N   1      35.055  12.518  17.531  0.00  0.00    -0.389 OA
BRANCH  15  16
HETATM   16  C   UNK N   1      35.600  11.356  16.990  0.00  0.00     0.163 C 
HETATM   17  C   UNK N   1      35.635  10.278  18.051  0.00  0.00     0.033 C 
ENDBRANCH  15  16
ENDBRANCH  14  15
ENDBRANCH  13  14
ENDBRANCH  12  13
ENDBRANCH  11  12
ENDBRANCH  10  11
ENDBRANCH   1  10
TORSDOF 14
ENDMDL
MODEL 2
REMARK VINA RESULT:      -4.2      1.727      2.195
REMARK  14 active torsions:
REMARK  status: ('A' for Active; 'I' for Inactive)
REMARK    1  A    between atoms: C_2  and  O_3 
REMARK    2  A    between atoms: O_3  and  C_4 
REMARK    3  A    between atoms: C_4  and  C_5 
REMARK    4  A    between atoms: C_5  and  O_6 
REMARK    5  A    between atoms: O_6  and  C_7 
REMARK    6  A    between atoms: C_7  and  C_8 
REMARK    7  A    between atoms: C_8  and  O_9 
REMARK    8  A    between atoms: O_9  and  C_10 
REMARK    9  A    between atoms: C_10  and  C_11 
REMARK   10  A    between atoms: C_11  and  O_12 
REMARK   11  A    between atoms: O_12  and  C_13 
REMARK   12  A    between atoms: C_13  and  C_14 
REMARK   13  A    between atoms: C_14  and  O_15 
REMARK   14  A    between atoms: O_15  and  C_16 
ROOT
HETATM    1  O   UNK N   1      34.715  14.254  11.993  0.00  0.00    -0.387 OA
ENDROOT
BRANCH   1   2
HETATM    2  C   UNK N   1      34.515  15.268  11.062  0.00  0.00     0.193 C 
BRANCH   2   3
HETATM    3  C   UNK N   1      35.766  16.109  11.017  0.00  0.00     0.193 C 
BRANCH   3   4
HETATM    4  O   UNK N   1      35.494  17.313  10.379  0.00  0.00    -0.387 OA
BRANCH   4   5
HETATM    5  C   UNK N   1      34.566  16.965   9.403  0.00  0.00     0.193 C 
BRANCH   5   6
HETATM    6  C   UNK N   1      34.597  17.995   8.301  0.00  0.00     0.193 C 
BRANCH   6   7
HETATM    7  O   UNK N   1      33.314  18.500   8.111  0.00  0.00    -0.389 OA
BRANCH   7   8
HETATM    8  C   UNK N   1      32.475  17.440   8.443  0.00  0.00     0.163 C 
HETATM    9  C   UNK N   1      31.068  17.957   8.646  0.00  0.00     0.033 C 
ENDBRANCH   7   8
ENDBRANCH   6   7
ENDBRANCH   5   6
ENDBRANCH   4   5
ENDBRANCH   3   4
ENDBRANCH   2   3
ENDBRANCH   1   2
BRANCH   1  10
HETATM   10  C   UNK N   1      35.886  14.602  12.656  0.00  0.00     0.193 C 
BRANCH  10  11
HETATM   11  C   UNK N   1      35.928  13.829  13.949  0.00  0.00     0.193 C 
BRANCH  11  12
HETATM   12  O   UNK N   1      34.650  13.387  14.274  0.00  0.00    -0.387 OA
BRANCH  12  13
HETATM   13  C   UNK N   1      34.819  12.801  15.525  0.00  0.00     0.193 C 
BRANCH  13  14
HETATM   14  C   UNK N   1      35.464  11.447  15.360  0.00  0.00     0.193 C 
BRANCH  14  15
HETATM   15  O   UNK N   1      34.471  10.500  15.125  0.00  0.00    -0.389 OA
BRANCH  15  16
HETATM   16  C   UNK N   1      34.862   9.877  13.942  0.00  0.00     0.163 C 
HETATM   17  C   UNK N   1      33.896  10.249  12.837  0.00  0.00     0.033 C 
ENDBRANCH  15  16
ENDBRANCH  14  15
ENDBRANCH  13  14
ENDBRANCH  12  13
ENDBRANCH  11  12
ENDBRANCH  10  11
ENDBRANCH   1  10
TORSDOF 14
ENDMDL
MODEL 3
REMARK VINA RESULT:      -4.2      1.276      8.799
REMARK  14 active torsions:
REMARK  status: ('A' for Active; 'I' for Inactive)
REMARK    1  A    between atoms: C_2  and  O_3 
REMARK    2  A    between atoms: O_3  and  C_4 
REMARK    3  A    between atoms: C_4  and  C_5 
REMARK    4  A    between atoms: C_5  and  O_6 
REMARK    5  A    between atoms: O_6  and  C_7 
REMARK    6  A    between atoms: C_7  and  C_8 
REMARK    7  A    between atoms: C_8  and  O_9 
REMARK    8  A    between atoms: O_9  and  C_10 
REMARK    9  A    between atoms: C_10  and  C_11 
REMARK   10  A    between atoms: C_11  and  O_12 
REMARK   11  A    between atoms: O_12  and  C_13 
REMARK   12  A    between atoms: C_13  and  C_14 
REMARK   13  A    between atoms: C_14  and  O_15 
REMARK   14  A    between atoms: O_15  and  C_16 
ROOT
HETATM    1  O   UNK N   1      35.516  14.196  10.758  0.00  0.00    -0.387 OA
ENDROOT
BRANCH   1   2
HETATM    2  C   UNK N   1      35.350  14.709  12.040  0.00  0.00     0.193 C 
BRANCH   2   3
HETATM    3  C   UNK N   1      35.610  13.594  13.022  0.00  0.00     0.193 C 
BRANCH   3   4
HETATM    4  O   UNK N   1      36.761  12.907  12.653  0.00  0.00    -0.387 OA
BRANCH   4   5
HETATM    5  C   UNK N   1      36.880  11.921  13.626  0.00  0.00     0.193 C 
BRANCH   5   6
HETATM    6  C   UNK N   1      36.828  12.562  14.991  0.00  0.00     0.193 C 
BRANCH   6   7
HETATM    7  O   UNK N   1      36.600  11.579  15.950  0.00  0.00    -0.389 OA
BRANCH   7   8
HETATM    8  C   UNK N   1      35.245  11.700  16.248  0.00  0.00     0.163 C 
HETATM    9  C   UNK N   1      35.008  13.000  16.986  0.00  0.00     0.033 C 
ENDBRANCH   7   8
ENDBRANCH   6   7
ENDBRANCH   5   6
ENDBRANCH   4   5
ENDBRANCH   3   4
ENDBRANCH   2   3
ENDBRANCH   1   2
BRANCH   1  10
HETATM   10  C   UNK N   1      35.330  15.281   9.910  0.00  0.00     0.193 C 
BRANCH  10  11
HETATM   11  C   UNK N   1      35.617  16.534  10.699  0.00  0.00     0.193 C 
BRANCH  11  12
HETATM   12  O   UNK N   1      35.382  17.652   9.906  0.00  0.00    -0.387 OA
BRANCH  12  13
HETATM   13  C   UNK N   1      34.386  17.225   9.033  0.00  0.00     0.193 C 
BRANCH  13  14
HETATM   14  C   UNK N   1      34.041  18.344   8.082  0.00  0.00     0.193 C 
BRANCH  14  15
HETATM   15  O   UNK N   1      34.616  18.078   6.842  0.00  0.00    -0.389 OA
BRANCH  15  16
HETATM   16  C   UNK N   1      33.879  17.007   6.343  0.00  0.00     0.163 C 
HETATM   17  C   UNK N   1      33.138  17.446   5.098  0.00  0.00     0.033 C 
ENDBRANCH  15  16
ENDBRANCH  14  15
ENDBRANCH  13  14
ENDBRANCH  12  13
ENDBRANCH  11  12
ENDBRANCH  10  11
ENDBRANCH   1  10
TORSDOF 14
ENDMDL
MODEL 4
REMARK VINA RESULT:      -4.0      1.885      8.232
REMARK  14 active torsions:
REMARK  status: ('A' for Active; 'I' for Inactive)
REMARK    1  A    between atoms: C_2  and  O_3 
REMARK    2  A    between atoms: O_3  and  C_4 
REMARK    3  A    between atoms: C_4  and  C_5 
REMARK    4  A    between atoms: C_5  and  O_6 
REMARK    5  A    between atoms: O_6  and  C_7 
REMARK    6  A    between atoms: C_7  and  C_8 
REMARK    7  A    between atoms: C_8  and  O_9 
REMARK    8  A    between atoms: O_9  and  C_10 
REMARK    9  A    between atoms: C_10  and  C_11 
REMARK   10  A    between atoms: C_11  and  O_12 
REMARK   11  A    between atoms: O_12  and  C_13 
REMARK   12  A    between atoms: C_13  and  C_14 
REMARK   13  A    between atoms: C_14  and  O_15 
REMARK   14  A    between atoms: O_15  and  C_16 
ROOT
HETATM    1  O   UNK N   1      38.020  13.237  10.733  0.00  0.00    -0.387 OA
ENDROOT
BRANCH   1   2
HETATM    2  C   UNK N   1      37.152  13.072  11.806  0.00  0.00     0.193 C 
BRANCH   2   3
HETATM    3  C   UNK N   1      37.514  11.783  12.500  0.00  0.00     0.193 C 
BRANCH   3   4
HETATM    4  O   UNK N   1      36.356  11.141  12.924  0.00  0.00    -0.387 OA
BRANCH   4   5
HETATM    5  C   UNK N   1      36.091  11.725  14.159  0.00  0.00     0.193 C 
BRANCH   5   6
HETATM    6  C   UNK N   1      34.607  11.967  14.283  0.00  0.00     0.193 C 
BRANCH   6   7
HETATM    7  O   UNK N   1      34.391  13.083  15.086  0.00  0.00    -0.389 OA
BRANCH   7   8
HETATM    8  C   UNK N   1      35.508  13.129  15.916  0.00  0.00     0.163 C 
HETATM    9  C   UNK N   1      35.061  13.308  17.350  0.00  0.00     0.033 C 
ENDBRANCH   7   8
ENDBRANCH   6   7
ENDBRANCH   5   6
ENDBRANCH   4   5
ENDBRANCH   3   4
ENDBRANCH   2   3
ENDBRANCH   1   2
BRANCH   1  10
HETATM   10  C   UNK N   1      37.456  14.252   9.969  0.00  0.00     0.193 C 
BRANCH  10  11
HETATM   11  C   UNK N   1      36.423  14.947  10.819  0.00  0.00     0.193 C 
BRANCH  11  12
HETATM   12  O   UNK N   1      36.568  16.325  10.702  0.00  0.00    -0.387 OA
BRANCH  12  13
HETATM   13  C   UNK N   1      35.257  16.791  10.729  0.00  0.00     0.193 C 
BRANCH  13  14
HETATM   14  C   UNK N   1      34.715  16.841   9.322  0.00  0.00     0.193 C 
BRANCH  14  15
HETATM   15  O   UNK N   1      34.813  18.146   8.847  0.00  0.00    -0.389 OA
BRANCH  15  16
HETATM   16  C   UNK N   1      33.700  18.298   8.024  0.00  0.00     0.163 C 
HETATM   17  C   UNK N   1      33.892  17.480   6.766  0.00  0.00     0.033 C 
ENDBRANCH  15  16
ENDBRANCH  14  15
ENDBRANCH  13  14
ENDBRANCH  12  13
ENDBRANCH  11  12
ENDBRANCH  10  11
ENDBRANCH   1  10
TORSDOF 14
ENDMDL
MODEL 5
REMARK VINA RESULT:      -3.9     12.791     14.502
REMARK  14 active torsions:
REMARK  status: ('A' for Active; 'I' for Inactive)
REMARK    1  A    between atoms: C_2  and  O_3 
REMARK    2  A    between atoms: O_3  and  C_4 
REMARK    3  A    between atoms: C_4  and  C_5 
REMARK    4  A    between atoms: C_5  and  O_6 
REMARK    5  A    between atoms: O_6  and  C_7 
REMARK    6  A    between atoms: C_7  and  C_8 
REMARK    7  A    between atoms: C_8  and  O_9 
REMARK    8  A    between atoms: O_9  and  C_10 
REMARK    9  A    between atoms: C_10  and  C_11 
REMARK   10  A    between atoms: C_11  and  O_12 
REMARK   11  A    between atoms: O_12  and  C_13 
REMARK   12  A    between atoms: C_13  and  C_14 
REMARK   13  A    between atoms: C_14  and  O_15 
REMARK   14  A    between atoms: O_15  and  C_16 
ROOT
HETATM    1  O   UNK N   1      21.206  16.841   7.735  0.00  0.00    -0.387 OA
ENDROOT
BRANCH   1   2
HETATM    2  C   UNK N   1      21.169  16.872   6.346  0.00  0.00     0.193 C 
BRANCH   2   3
HETATM    3  C   UNK N   1      22.589  16.949   5.845  0.00  0.00     0.193 C 
BRANCH   3   4
HETATM    4  O   UNK N   1      22.846  18.229   5.368  0.00  0.00    -0.387 OA
BRANCH   4   5
HETATM    5  C   UNK N   1      22.550  18.139   4.012  0.00  0.00     0.193 C 
BRANCH   5   6
HETATM    6  C   UNK N   1      22.368  19.528   3.452  0.00  0.00     0.193 C 
BRANCH   6   7
HETATM    7  O   UNK N   1      21.164  20.053   3.914  0.00  0.00    -0.389 OA
BRANCH   7   8
HETATM    8  C   UNK N   1      20.239  19.704   2.934  0.00  0.00     0.163 C 
HETATM    9  C   UNK N   1      20.674  20.282   1.605  0.00  0.00     0.033 C 
ENDBRANCH   7   8
ENDBRANCH   6   7
ENDBRANCH   5   6
ENDBRANCH   4   5
ENDBRANCH   3   4
ENDBRANCH   2   3
ENDBRANCH   1   2
BRANCH   1  10
HETATM   10  C   UNK N   1      20.060  16.150   8.110  0.00  0.00     0.193 C 
BRANCH  10  11
HETATM   11  C   UNK N   1      20.473  14.754   8.500  0.00  0.00     0.193 C 
BRANCH  11  12
HETATM   12  O   UNK N   1      19.628  14.274   9.495  0.00  0.00    -0.387 OA
BRANCH  12  13
HETATM   13  C   UNK N   1      20.444  13.415  10.225  0.00  0.00     0.193 C 
BRANCH  13  14
HETATM   14  C   UNK N   1      21.483  12.815   9.311  0.00  0.00     0.193 C 
BRANCH  14  15
HETATM   15  O   UNK N   1      22.616  12.503  10.058  0.00  0.00    -0.389 OA
BRANCH  15  16
HETATM   16  C   UNK N   1      22.113  12.047  11.274  0.00  0.00     0.163 C 
HETATM   17  C   UNK N   1      23.246  11.914  12.267  0.00  0.00     0.033 C 
ENDBRANCH  15  16
ENDBRANCH  14  15
ENDBRANCH  13  14
ENDBRANCH  12  13
ENDBRANCH  11  12
ENDBRANCH  10  11
ENDBRANCH   1  10
TORSDOF 14
ENDMDL
MODEL 6
REMARK VINA RESULT:      -3.9      9.160     12.916
REMARK  14 active torsions:
REMARK  status: ('A' for Active; 'I' for Inactive)
REMARK    1  A    between atoms: C_2  and  O_3 
REMARK    2  A    between atoms: O_3  and  C_4 
REMARK    3  A    between atoms: C_4  and  C_5 
REMARK    4  A    between atoms: C_5  and  O_6 
REMARK    5  A    between atoms: O_6  and  C_7 
REMARK    6  A    between atoms: C_7  and  C_8 
REMARK    7  A    between atoms: C_8  and  O_9 
REMARK    8  A    between atoms: O_9  and  C_10 
REMARK    9  A    between atoms: C_10  and  C_11 
REMARK   10  A    between atoms: C_11  and  O_12 
REMARK   11  A    between atoms: O_12  and  C_13 
REMARK   12  A    between atoms: C_13  and  C_14 
REMARK   13  A    between atoms: C_14  and  O_15 
REMARK   14  A    between atoms: O_15  and  C_16 
ROOT
HETATM    1  O   UNK N   1      26.422  19.555   3.833  0.00  0.00    -0.387 OA
ENDROOT
BRANCH   1   2
HETATM    2  C   UNK N   1      25.139  20.034   4.070  0.00  0.00     0.193 C 
BRANCH   2   3
HETATM    3  C   UNK N   1      24.654  20.701   2.807  0.00  0.00     0.193 C 
BRANCH   3   4
HETATM    4  O   UNK N   1      23.325  21.080   2.962  0.00  0.00    -0.387 OA
BRANCH   4   5
HETATM    5  C   UNK N   1      22.654  19.871   3.112  0.00  0.00     0.193 C 
BRANCH   5   6
HETATM    6  C   UNK N   1      21.175  20.137   3.238  0.00  0.00     0.193 C 
BRANCH   6   7
HETATM    7  O   UNK N   1      20.752  19.781   4.515  0.00  0.00    -0.389 OA
BRANCH   7   8
HETATM    8  C   UNK N   1      21.416  18.584   4.774  0.00  0.00     0.163 C 
HETATM    9  C   UNK N   1      21.340  18.279   6.253  0.00  0.00     0.033 C 
ENDBRANCH   7   8
ENDBRANCH   6   7
ENDBRANCH   5   6
ENDBRANCH   4   5
ENDBRANCH   3   4
ENDBRANCH   2   3
ENDBRANCH   1   2
BRANCH   1  10
HETATM   10  C   UNK N   1      26.882  19.131   5.074  0.00  0.00     0.193 C 
BRANCH  10  11
HETATM   11  C   UNK N   1      27.368  20.346   5.823  0.00  0.00     0.193 C 
BRANCH  11  12
HETATM   12  O   UNK N   1      27.401  20.076   7.186  0.00  0.00    -0.387 OA
BRANCH  12  13
HETATM   13  C   UNK N   1      28.073  18.861   7.259  0.00  0.00     0.193 C 
BRANCH  13  14
HETATM   14  C   UNK N   1      28.319  18.510   8.705  0.00  0.00     0.193 C 
BRANCH  14  15
HETATM   15  O   UNK N   1      29.396  17.630   8.781  0.00  0.00    -0.389 OA
BRANCH  15  16
HETATM   16  C   UNK N   1      30.498  18.453   9.001  0.00  0.00     0.163 C 
HETATM   17  C   UNK N   1      31.734  17.799   8.422  0.00  0.00     0.033 C 
ENDBRANCH  15  16
ENDBRANCH  14  15
ENDBRANCH  13  14
ENDBRANCH  12  13
ENDBRANCH  11  12
ENDBRANCH  10  11
ENDBRANCH   1  10
TORSDOF 14
ENDMDL
MODEL 7
REMARK VINA RESULT:      -3.9      1.521      9.169
REMARK  14 active torsions:
REMARK  status: ('A' for Active; 'I' for Inactive)
REMARK    1  A    between atoms: C_2  and  O_3 
REMARK    2  A    between atoms: O_3  and  C_4 
REMARK    3  A    between atoms: C_4  and  C_5 
REMARK    4  A    between atoms: C_5  and  O_6 
REMARK    5  A    between atoms: O_6  and  C_7 
REMARK    6  A    between atoms: C_7  and  C_8 
REMARK    7  A    between atoms: C_8  and  O_9 
REMARK    8  A    between atoms: O_9  and  C_10 
REMARK    9  A    between atoms: C_10  and  C_11 
REMARK   10  A    between atoms: C_11  and  O_12 
REMARK   11  A    between atoms: O_12  and  C_13 
REMARK   12  A    between atoms: C_13  and  C_14 
REMARK   13  A    between atoms: C_14  and  O_15 
REMARK   14  A    between atoms: O_15  and  C_16 
ROOT
HETATM    1  O   UNK N   1      35.029  17.214  10.563  0.00  0.00    -0.387 OA
ENDROOT
BRANCH   1   2
HETATM    2  C   UNK N   1      35.810  16.215  11.131  0.00  0.00     0.193 C 
BRANCH   2   3
HETATM    3  C   UNK N   1      35.135  14.892  10.865  0.00  0.00     0.193 C 
BRANCH   3   4
HETATM    4  O   UNK N   1      34.452  14.482  12.004  0.00  0.00    -0.387 OA
BRANCH   4   5
HETATM    5  C   UNK N   1      35.165  13.366  12.430  0.00  0.00     0.193 C 
BRANCH   5   6
HETATM    6  C   UNK N   1      35.767  13.650  13.784  0.00  0.00     0.193 C 
BRANCH   6   7
HETATM    7  O   UNK N   1      34.818  13.393  14.769  0.00  0.00    -0.389 OA
BRANCH   7   8
HETATM    8  C   UNK N   1      35.552  12.839  15.816  0.00  0.00     0.163 C 
HETATM    9  C   UNK N   1      34.917  13.226  17.133  0.00  0.00     0.033 C 
ENDBRANCH   7   8
ENDBRANCH   6   7
ENDBRANCH   5   6
ENDBRANCH   4   5
ENDBRANCH   3   4
ENDBRANCH   2   3
ENDBRANCH   1   2
BRANCH   1  10
HETATM   10  C   UNK N   1      34.590  16.685   9.356  0.00  0.00     0.193 C 
BRANCH  10  11
HETATM   11  C   UNK N   1      33.980  17.808   8.557  0.00  0.00     0.193 C 
BRANCH  11  12
HETATM   12  O   UNK N   1      33.283  17.289   7.471  0.00  0.00    -0.387 OA
BRANCH  12  13
HETATM   13  C   UNK N   1      31.950  17.462   7.830  0.00  0.00     0.193 C 
BRANCH  13  14
HETATM   14  C   UNK N   1      31.070  17.174   6.639  0.00  0.00     0.193 C 
BRANCH  14  15
HETATM   15  O   UNK N   1      31.843  16.597   5.634  0.00  0.00    -0.389 OA
BRANCH  15  16
HETATM   16  C   UNK N   1      31.460  17.268   4.476  0.00  0.00     0.163 C 
HETATM   17  C   UNK N   1      32.589  17.217   3.471  0.00  0.00     0.033 C 
ENDBRANCH  15  16
ENDBRANCH  14  15
ENDBRANCH  13  14
ENDBRANCH  12  13
ENDBRANCH  11  12
ENDBRANCH  10  11
ENDBRANCH   1  10
TORSDOF 14
ENDMDL
MODEL 8
REMARK VINA RESULT:      -3.9     10.876     15.967
REMARK  14 active torsions:
REMARK  status: ('A' for Active; 'I' for Inactive)
REMARK    1  A    between atoms: C_2  and  O_3 
REMARK    2  A    between atoms: O_3  and  C_4 
REMARK    3  A    between atoms: C_4  and  C_5 
REMARK    4  A    between atoms: C_5  and  O_6 
REMARK    5  A    between atoms: O_6  and  C_7 
REMARK    6  A    between atoms: C_7  and  C_8 
REMARK    7  A    between atoms: C_8  and  O_9 
REMARK    8  A    between atoms: O_9  and  C_10 
REMARK    9  A    between atoms: C_10  and  C_11 
REMARK   10  A    between atoms: C_11  and  O_12 
REMARK   11  A    between atoms: O_12  and  C_13 
REMARK   12  A    between atoms: C_13  and  C_14 
REMARK   13  A    between atoms: C_14  and  O_15 
REMARK   14  A    between atoms: O_15  and  C_16 
ROOT
HETATM    1  O   UNK N   1      23.762  21.117   2.935  0.00  0.00    -0.387 OA
ENDROOT
BRANCH   1   2
HETATM    2  C   UNK N   1      24.951  20.404   2.833  0.00  0.00     0.193 C 
BRANCH   2   3
HETATM    3  C   UNK N   1      25.492  20.203   4.226  0.00  0.00     0.193 C 
BRANCH   3   4
HETATM    4  O   UNK N   1      26.734  20.819   4.336  0.00  0.00    -0.387 OA
BRANCH   4   5
HETATM    5  C   UNK N   1      26.963  20.852   5.708  0.00  0.00     0.193 C 
BRANCH   5   6
HETATM    6  C   UNK N   1      27.529  19.524   6.147  0.00  0.00     0.193 C 
BRANCH   6   7
HETATM    7  O   UNK N   1      27.732  19.547   7.524  0.00  0.00    -0.389 OA
BRANCH   7   8
HETATM    8  C   UNK N   1      28.399  18.354   7.792  0.00  0.00     0.163 C 
HETATM    9  C   UNK N   1      29.539  18.621   8.750  0.00  0.00     0.033 C 
ENDBRANCH   7   8
ENDBRANCH   6   7
ENDBRANCH   5   6
ENDBRANCH   4   5
ENDBRANCH   3   4
ENDBRANCH   2   3
ENDBRANCH   1   2
BRANCH   1  10
HETATM   10  C   UNK N   1      22.761  20.154   2.891  0.00  0.00     0.193 C 
BRANCH  10  11
HETATM   11  C   UNK N   1      21.454  20.862   2.637  0.00  0.00     0.193 C 
BRANCH  11  12
HETATM   12  O   UNK N   1      20.530  20.506   3.613  0.00  0.00    -0.387 OA
BRANCH  12  13
HETATM   13  C   UNK N   1      20.519  19.117   3.557  0.00  0.00     0.193 C 
BRANCH  13  14
HETATM   14  C   UNK N   1      19.374  18.659   2.687  0.00  0.00     0.193 C 
BRANCH  14  15
HETATM   15  O   UNK N   1      19.864  17.790   1.715  0.00  0.00    -0.389 OA
BRANCH  15  16
HETATM   16  C   UNK N   1      20.578  16.835   2.435  0.00  0.00     0.163 C 
HETATM   17  C   UNK N   1      20.922  15.677   1.524  0.00  0.00     0.033 C 
ENDBRANCH  15  16
ENDBRANCH  14  15
ENDBRANCH  13  14
ENDBRANCH  12  13
ENDBRANCH  11  12
ENDBRANCH  10  11
ENDBRANCH   1  10
TORSDOF 14
ENDMDL
MODEL 9
REMARK VINA RESULT:      -3.8     18.823     22.021
REMARK  14 active torsions:
REMARK  status: ('A' for Active; 'I' for Inactive)
REMARK    1  A    between atoms: C_2  and  O_3 
REMARK    2  A    between atoms: O_3  and  C_4 
REMARK    3  A    between atoms: C_4  and  C_5 
REMARK    4  A    between atoms: C_5  and  O_6 
REMARK    5  A    between atoms: O_6  and  C_7 
REMARK    6  A    between atoms: C_7  and  C_8 
REMARK    7  A    between atoms: C_8  and  O_9 
REMARK    8  A    between atoms: O_9  and  C_10 
REMARK    9  A    between atoms: C_10  and  C_11 
REMARK   10  A    between atoms: C_11  and  O_12 
REMARK   11  A    between atoms: O_12  and  C_13 
REMARK   12  A    between atoms: C_13  and  C_14 
REMARK   13  A    between atoms: C_14  and  O_15 
REMARK   14  A    between atoms: O_15  and  C_16 
ROOT
HETATM    1  O   UNK N   1      25.278  27.215  -4.527  0.00  0.00    -0.387 OA
ENDROOT
BRANCH   1   2
HETATM    2  C   UNK N   1      26.059  27.473  -5.648  0.00  0.00     0.193 C 
BRANCH   2   3
HETATM    3  C   UNK N   1      25.523  26.641  -6.786  0.00  0.00     0.193 C 
BRANCH   3   4
HETATM    4  O   UNK N   1      25.122  25.399  -6.306  0.00  0.00    -0.387 OA
BRANCH   4   5
HETATM    5  C   UNK N   1      26.013  24.513  -6.904  0.00  0.00     0.193 C 
BRANCH   5   6
HETATM    6  C   UNK N   1      25.616  24.308  -8.345  0.00  0.00     0.193 C 
BRANCH   6   7
HETATM    7  O   UNK N   1      24.686  23.275  -8.420  0.00  0.00    -0.389 OA
BRANCH   7   8
HETATM    8  C   UNK N   1      25.446  22.154  -8.744  0.00  0.00     0.163 C 
HETATM    9  C   UNK N   1      25.176  21.058  -7.737  0.00  0.00     0.033 C 
ENDBRANCH   7   8
ENDBRANCH   6   7
ENDBRANCH   5   6
ENDBRANCH   4   5
ENDBRANCH   3   4
ENDBRANCH   2   3
ENDBRANCH   1   2
BRANCH   1  10
HETATM   10  C   UNK N   1      26.155  27.300  -3.452  0.00  0.00     0.193 C 
BRANCH  10  11
HETATM   11  C   UNK N   1      27.063  26.097  -3.504  0.00  0.00     0.193 C 
BRANCH  11  12
HETATM   12  O   UNK N   1      26.324  24.941  -3.281  0.00  0.00    -0.387 OA
BRANCH  12  13
HETATM   13  C   UNK N   1      27.297  23.980  -3.029  0.00  0.00     0.193 C 
BRANCH  13  14
HETATM   14  C   UNK N   1      28.482  24.218  -3.931  0.00  0.00     0.193 C 
BRANCH  14  15
HETATM   15  O   UNK N   1      29.392  23.177  -3.767  0.00  0.00    -0.389 OA
BRANCH  15  16
HETATM   16  C   UNK N   1      30.420  23.733  -3.010  0.00  0.00     0.163 C 
HETATM   17  C   UNK N   1      30.760  25.102  -3.556  0.00  0.00     0.033 C 
ENDBRANCH  15  16
ENDBRANCH  14  15
ENDBRANCH  13  14
ENDBRANCH  12  13
ENDBRANCH  11  12
ENDBRANCH  10  11
ENDBRANCH   1  10
TORSDOF 14
ENDMDL
