MODEL 1
REMARK VINA RESULT:      -7.2      0.000      0.000
REMARK  5 active torsions:
REMARK  status: ('A' for Active; 'I' for Inactive)
REMARK    1  A    between atoms: C_8  and  N_14 
REMARK    2  A    between atoms: C_9  and  C_11 
REMARK    3  A    between atoms: C_11  and  O_13 
REMARK       I    between atoms: N_14  and  C_15 
REMARK    4  A    between atoms: C_15  and  C_17 
REMARK    5  A    between atoms: C_17  and  O_19 
ROOT
HETATM    1  C   UNK N   1      35.230  12.034  18.322  0.00  0.00     0.001 A 
HETATM    2  C   UNK N   1      35.271  13.058  17.372  0.00  0.00     0.012 A 
HETATM    3  C   UNK N   1      35.830  12.819  16.115  0.00  0.00    -0.024 A 
HETATM    4  C   UNK N   1      36.354  11.551  15.801  0.00  0.00    -0.025 A 
HETATM    5  C   UNK N   1      36.312  10.529  16.755  0.00  0.00     0.012 A 
HETATM    6  C   UNK N   1      35.750  10.772  18.014  0.00  0.00     0.001 A 
HETATM    7  C   UNK N   1      35.870  13.835  15.172  0.00  0.00     0.043 A 
HETATM    8  C   UNK N   1      36.425  13.628  13.900  0.00  0.00     0.053 A 
HETATM    9  C   UNK N   1      36.957  12.349  13.575  0.00  0.00     0.065 A 
HETATM   10  C   UNK N   1      36.911  11.323  14.540  0.00  0.00     0.032 A 
ENDROOT
BRANCH   8  11
HETATM   11  N   UNK N   1      36.455  14.689  12.945  0.00  0.00    -0.317 N 
HETATM   12  C   UNK N   1      35.483  14.967  12.029  0.00  0.00     0.319 C 
HETATM   13  O   UNK N   1      34.467  14.291  11.959  0.00  0.00    -0.261 OA
HETATM   14  H   UNK N   1      37.249  15.273  12.948  0.00  0.00     0.169 HD
BRANCH  12  15
HETATM   15  C   UNK N   1      35.652  16.098  11.104  0.00  0.00     0.237 C 
HETATM   16  O   UNK N   1      36.749  16.355  10.635  0.00  0.00    -0.643 OA
BRANCH  15  17
HETATM   17  O   UNK N   1      34.590  16.858  10.770  0.00  0.00    -0.769 OA
HETATM   18  H   UNK N   1      34.478  17.145   9.884  0.00  0.00     0.168 HD
ENDBRANCH  15  17
ENDBRANCH  12  15
ENDBRANCH   8  11
BRANCH   9  19
HETATM   19  C   UNK N   1      37.562  12.050  12.248  0.00  0.00     0.178 C 
HETATM   20  O   UNK N   1      37.400  10.953  11.736  0.00  0.00    -0.646 OA
BRANCH  19  21
HETATM   21  O   UNK N   1      38.293  12.972  11.592  0.00  0.00    -0.773 OA
HETATM   22  H   UNK N   1      37.883  13.750  11.268  0.00  0.00     0.167 HD
ENDBRANCH  19  21
ENDBRANCH   9  19
TORSDOF 5
ENDMDL
MODEL 2
REMARK VINA RESULT:      -6.4     20.887     23.045
REMARK  5 active torsions:
REMARK  status: ('A' for Active; 'I' for Inactive)
REMARK    1  A    between atoms: C_8  and  N_14 
REMARK    2  A    between atoms: C_9  and  C_11 
REMARK    3  A    between atoms: C_11  and  O_13 
REMARK       I    between atoms: N_14  and  C_15 
REMARK    4  A    between atoms: C_15  and  C_17 
REMARK    5  A    between atoms: C_17  and  O_19 
ROOT
HETATM    1  C   UNK N   1      28.679  20.305  -8.086  0.00  0.00     0.001 A 
HETATM    2  C   UNK N   1      28.180  21.530  -7.636  0.00  0.00     0.012 A 
HETATM    3  C   UNK N   1      28.709  22.116  -6.484  0.00  0.00    -0.024 A 
HETATM    4  C   UNK N   1      29.743  21.478  -5.774  0.00  0.00    -0.025 A 
HETATM    5  C   UNK N   1      30.240  20.252  -6.228  0.00  0.00     0.012 A 
HETATM    6  C   UNK N   1      29.707  19.668  -7.383  0.00  0.00     0.001 A 
HETATM    7  C   UNK N   1      28.214  23.332  -6.037  0.00  0.00     0.043 A 
HETATM    8  C   UNK N   1      28.723  23.947  -4.883  0.00  0.00     0.053 A 
HETATM    9  C   UNK N   1      29.768  23.308  -4.161  0.00  0.00     0.065 A 
HETATM   10  C   UNK N   1      30.265  22.073  -4.622  0.00  0.00     0.032 A 
ENDROOT
BRANCH   8  11
HETATM   11  N   UNK N   1      28.198  25.199  -4.442  0.00  0.00    -0.317 N 
HETATM   12  C   UNK N   1      27.069  25.373  -3.695  0.00  0.00     0.319 C 
HETATM   13  O   UNK N   1      26.396  24.419  -3.333  0.00  0.00    -0.261 OA
HETATM   14  H   UNK N   1      28.694  26.010  -4.700  0.00  0.00     0.169 HD
BRANCH  12  15
HETATM   15  C   UNK N   1      26.647  26.730  -3.312  0.00  0.00     0.237 C 
HETATM   16  O   UNK N   1      25.937  26.903  -2.335  0.00  0.00    -0.643 OA
BRANCH  15  17
HETATM   17  O   UNK N   1      27.045  27.789  -4.045  0.00  0.00    -0.769 OA
HETATM   18  H   UNK N   1      26.524  28.081  -4.768  0.00  0.00     0.168 HD
ENDBRANCH  15  17
ENDBRANCH  12  15
ENDBRANCH   8  11
BRANCH   9  19
HETATM   19  C   UNK N   1      30.362  23.896  -2.927  0.00  0.00     0.178 C 
HETATM   20  O   UNK N   1      30.791  25.040  -2.942  0.00  0.00    -0.646 OA
BRANCH  19  21
HETATM   21  O   UNK N   1      30.437  23.188  -1.784  0.00  0.00    -0.773 OA
HETATM   22  H   UNK N   1      31.202  23.249  -1.245  0.00  0.00     0.167 HD
ENDBRANCH  19  21
ENDBRANCH   9  19
TORSDOF 5
ENDMDL
MODEL 3
REMARK VINA RESULT:      -6.4      9.381     11.517
REMARK  5 active torsions:
REMARK  status: ('A' for Active; 'I' for Inactive)
REMARK    1  A    between atoms: C_8  and  N_14 
REMARK    2  A    between atoms: C_9  and  C_11 
REMARK    3  A    between atoms: C_11  and  O_13 
REMARK       I    between atoms: N_14  and  C_15 
REMARK    4  A    between atoms: C_15  and  C_17 
REMARK    5  A    between atoms: C_17  and  O_19 
ROOT
HETATM    1  C   UNK N   1      34.178  17.167   6.490  0.00  0.00     0.001 A 
HETATM    2  C   UNK N   1      32.929  16.948   5.904  0.00  0.00     0.012 A 
HETATM    3  C   UNK N   1      31.764  17.196   6.634  0.00  0.00    -0.024 A 
HETATM    4  C   UNK N   1      31.843  17.665   7.958  0.00  0.00    -0.025 A 
HETATM    5  C   UNK N   1      33.095  17.882   8.541  0.00  0.00     0.012 A 
HETATM    6  C   UNK N   1      34.261  17.633   7.807  0.00  0.00     0.001 A 
HETATM    7  C   UNK N   1      30.524  16.979   6.052  0.00  0.00     0.043 A 
HETATM    8  C   UNK N   1      29.335  17.218   6.758  0.00  0.00     0.053 A 
HETATM    9  C   UNK N   1      29.408  17.692   8.096  0.00  0.00     0.065 A 
HETATM   10  C   UNK N   1      30.671  17.909   8.679  0.00  0.00     0.032 A 
ENDROOT
BRANCH   8  11
HETATM   11  N   UNK N   1      28.070  16.987   6.137  0.00  0.00    -0.317 N 
HETATM   12  C   UNK N   1      27.306  17.926   5.508  0.00  0.00     0.319 C 
HETATM   13  O   UNK N   1      27.672  19.090   5.428  0.00  0.00    -0.261 OA
HETATM   14  H   UNK N   1      27.716  16.068   6.166  0.00  0.00     0.169 HD
BRANCH  12  15
HETATM   15  C   UNK N   1      26.017  17.541   4.912  0.00  0.00     0.237 C 
HETATM   16  O   UNK N   1      25.819  17.692   3.717  0.00  0.00    -0.643 OA
BRANCH  15  17
HETATM   17  O   UNK N   1      25.048  17.017   5.688  0.00  0.00    -0.769 OA
HETATM   18  H   UNK N   1      25.058  17.163   6.614  0.00  0.00     0.168 HD
ENDBRANCH  15  17
ENDBRANCH  12  15
ENDBRANCH   8  11
BRANCH   9  19
HETATM   19  C   UNK N   1      28.192  17.969   8.912  0.00  0.00     0.178 C 
HETATM   20  O   UNK N   1      27.865  17.198   9.801  0.00  0.00    -0.646 OA
BRANCH  19  21
HETATM   21  O   UNK N   1      27.437  19.062   8.687  0.00  0.00    -0.773 OA
HETATM   22  H   UNK N   1      27.520  19.810   9.246  0.00  0.00     0.167 HD
ENDBRANCH  19  21
ENDBRANCH   9  19
TORSDOF 5
ENDMDL
MODEL 4
REMARK VINA RESULT:      -6.2      1.782      2.175
REMARK  5 active torsions:
REMARK  status: ('A' for Active; 'I' for Inactive)
REMARK    1  A    between atoms: C_8  and  N_14 
REMARK    2  A    between atoms: C_9  and  C_11 
REMARK    3  A    between atoms: C_11  and  O_13 
REMARK       I    between atoms: N_14  and  C_15 
REMARK    4  A    between atoms: C_15  and  C_17 
REMARK    5  A    between atoms: C_17  and  O_19 
ROOT
HETATM    1  C   UNK N   1      35.338  12.672  19.488  0.00  0.00     0.001 A 
HETATM    2  C   UNK N   1      35.011  13.229  18.249  0.00  0.00     0.012 A 
HETATM    3  C   UNK N   1      35.150  12.470  17.085  0.00  0.00    -0.024 A 
HETATM    4  C   UNK N   1      35.619  11.145  17.155  0.00  0.00    -0.025 A 
HETATM    5  C   UNK N   1      35.945  10.591  18.396  0.00  0.00     0.012 A 
HETATM    6  C   UNK N   1      35.805  11.355  19.561  0.00  0.00     0.001 A 
HETATM    7  C   UNK N   1      34.825  13.023  15.856  0.00  0.00     0.043 A 
HETATM    8  C   UNK N   1      34.954  12.288  14.668  0.00  0.00     0.053 A 
HETATM    9  C   UNK N   1      35.426  10.948  14.730  0.00  0.00     0.065 A 
HETATM   10  C   UNK N   1      35.754  10.394  15.984  0.00  0.00     0.032 A 
ENDROOT
BRANCH   8  11
HETATM   11  N   UNK N   1      34.613  12.879  13.413  0.00  0.00    -0.317 N 
HETATM   12  C   UNK N   1      35.342  13.823  12.751  0.00  0.00     0.319 C 
HETATM   13  O   UNK N   1      36.391  14.250  13.211  0.00  0.00    -0.261 OA
HETATM   14  H   UNK N   1      33.777  12.578  12.988  0.00  0.00     0.169 HD
BRANCH  12  15
HETATM   15  C   UNK N   1      34.864  14.343  11.460  0.00  0.00     0.237 C 
HETATM   16  O   UNK N   1      35.592  14.328  10.481  0.00  0.00    -0.643 OA
BRANCH  15  17
HETATM   17  O   UNK N   1      33.616  14.841  11.357  0.00  0.00    -0.769 OA
HETATM   18  H   UNK N   1      33.338  15.533  11.925  0.00  0.00     0.168 HD
ENDBRANCH  15  17
ENDBRANCH  12  15
ENDBRANCH   8  11
BRANCH   9  19
HETATM   19  C   UNK N   1      35.590  10.102  13.515  0.00  0.00     0.178 C 
HETATM   20  O   UNK N   1      34.983   9.046  13.420  0.00  0.00    -0.646 OA
BRANCH  19  21
HETATM   21  O   UNK N   1      36.401  10.479  12.508  0.00  0.00    -0.773 OA
HETATM   22  H   UNK N   1      37.302  10.674  12.681  0.00  0.00     0.167 HD
ENDBRANCH  19  21
ENDBRANCH   9  19
TORSDOF 5
ENDMDL
MODEL 5
REMARK VINA RESULT:      -6.2      2.888      4.617
REMARK  5 active torsions:
REMARK  status: ('A' for Active; 'I' for Inactive)
REMARK    1  A    between atoms: C_8  and  N_14 
REMARK    2  A    between atoms: C_9  and  C_11 
REMARK    3  A    between atoms: C_11  and  O_13 
REMARK       I    between atoms: N_14  and  C_15 
REMARK    4  A    between atoms: C_15  and  C_17 
REMARK    5  A    between atoms: C_17  and  O_19 
ROOT
HETATM    1  C   UNK N   1      34.788   8.343  19.475  0.00  0.00     0.001 A 
HETATM    2  C   UNK N   1      34.736   9.025  18.257  0.00  0.00     0.012 A 
HETATM    3  C   UNK N   1      34.945  10.405  18.221  0.00  0.00    -0.024 A 
HETATM    4  C   UNK N   1      35.209  11.113  19.408  0.00  0.00    -0.025 A 
HETATM    5  C   UNK N   1      35.260  10.427  20.626  0.00  0.00     0.012 A 
HETATM    6  C   UNK N   1      35.049   9.044  20.658  0.00  0.00     0.001 A 
HETATM    7  C   UNK N   1      34.894  11.081  17.011  0.00  0.00     0.043 A 
HETATM    8  C   UNK N   1      35.100  12.467  16.941  0.00  0.00     0.053 A 
HETATM    9  C   UNK N   1      35.366  13.189  18.137  0.00  0.00     0.065 A 
HETATM   10  C   UNK N   1      35.417  12.494  19.361  0.00  0.00     0.032 A 
ENDROOT
BRANCH   8  11
HETATM   11  N   UNK N   1      35.042  13.142  15.684  0.00  0.00    -0.317 N 
HETATM   12  C   UNK N   1      36.030  13.164  14.743  0.00  0.00     0.319 C 
HETATM   13  O   UNK N   1      37.088  12.578  14.922  0.00  0.00    -0.261 OA
HETATM   14  H   UNK N   1      34.215  13.635  15.477  0.00  0.00     0.169 HD
BRANCH  12  15
HETATM   15  C   UNK N   1      35.828  13.905  13.488  0.00  0.00     0.237 C 
HETATM   16  O   UNK N   1      34.806  13.754  12.840  0.00  0.00    -0.643 OA
BRANCH  15  17
HETATM   17  O   UNK N   1      36.777  14.757  13.051  0.00  0.00    -0.769 OA
HETATM   18  H   UNK N   1      37.377  15.143  13.659  0.00  0.00     0.168 HD
ENDBRANCH  15  17
ENDBRANCH  12  15
ENDBRANCH   8  11
BRANCH   9  19
HETATM   19  C   UNK N   1      35.596  14.662  18.146  0.00  0.00     0.178 C 
HETATM   20  O   UNK N   1      34.943  15.376  18.891  0.00  0.00    -0.646 OA
BRANCH  19  21
HETATM   21  O   UNK N   1      36.517  15.228  17.342  0.00  0.00    -0.773 OA
HETATM   22  H   UNK N   1      36.252  15.626  16.536  0.00  0.00     0.167 HD
ENDBRANCH  19  21
ENDBRANCH   9  19
TORSDOF 5
ENDMDL
MODEL 6
REMARK VINA RESULT:      -6.1      2.870      6.821
REMARK  5 active torsions:
REMARK  status: ('A' for Active; 'I' for Inactive)
REMARK    1  A    between atoms: C_8  and  N_14 
REMARK    2  A    between atoms: C_9  and  C_11 
REMARK    3  A    between atoms: C_11  and  O_13 
REMARK       I    between atoms: N_14  and  C_15 
REMARK    4  A    between atoms: C_15  and  C_17 
REMARK    5  A    between atoms: C_17  and  O_19 
ROOT
HETATM    1  C   UNK N   1      33.397  17.672   7.476  0.00  0.00     0.001 A 
HETATM    2  C   UNK N   1      33.854  17.541   8.790  0.00  0.00     0.012 A 
HETATM    3  C   UNK N   1      34.715  16.494   9.126  0.00  0.00    -0.024 A 
HETATM    4  C   UNK N   1      35.125  15.571   8.146  0.00  0.00    -0.025 A 
HETATM    5  C   UNK N   1      34.666  15.706   6.833  0.00  0.00     0.012 A 
HETATM    6  C   UNK N   1      33.803  16.756   6.500  0.00  0.00     0.001 A 
HETATM    7  C   UNK N   1      35.168  16.364  10.430  0.00  0.00     0.043 A 
HETATM    8  C   UNK N   1      36.034  15.324  10.800  0.00  0.00     0.053 A 
HETATM    9  C   UNK N   1      36.453  14.387   9.816  0.00  0.00     0.065 A 
HETATM   10  C   UNK N   1      35.987  14.528   8.494  0.00  0.00     0.032 A 
ENDROOT
BRANCH   8  11
HETATM   11  N   UNK N   1      36.488  15.209  12.150  0.00  0.00    -0.317 N 
HETATM   12  C   UNK N   1      35.914  14.445  13.124  0.00  0.00     0.319 C 
HETATM   13  O   UNK N   1      34.919  13.771  12.895  0.00  0.00    -0.261 OA
HETATM   14  H   UNK N   1      37.287  15.728  12.400  0.00  0.00     0.169 HD
BRANCH  12  15
HETATM   15  C   UNK N   1      36.494  14.426  14.475  0.00  0.00     0.237 C 
HETATM   16  O   UNK N   1      36.211  13.532  15.256  0.00  0.00    -0.643 OA
BRANCH  15  17
HETATM   17  O   UNK N   1      37.344  15.400  14.856  0.00  0.00    -0.769 OA
HETATM   18  H   UNK N   1      37.326  15.721  15.736  0.00  0.00     0.168 HD
ENDBRANCH  15  17
ENDBRANCH  12  15
ENDBRANCH   8  11
BRANCH   9  19
HETATM   19  C   UNK N   1      37.370  13.255  10.130  0.00  0.00     0.178 C 
HETATM   20  O   UNK N   1      37.118  12.133   9.719  0.00  0.00    -0.646 OA
BRANCH  19  21
HETATM   21  O   UNK N   1      38.484  13.444  10.864  0.00  0.00    -0.773 OA
HETATM   22  H   UNK N   1      38.846  14.304  10.951  0.00  0.00     0.167 HD
ENDBRANCH  19  21
ENDBRANCH   9  19
TORSDOF 5
ENDMDL
MODEL 7
REMARK VINA RESULT:      -5.9     15.110     16.929
REMARK  5 active torsions:
REMARK  status: ('A' for Active; 'I' for Inactive)
REMARK    1  A    between atoms: C_8  and  N_14 
REMARK    2  A    between atoms: C_9  and  C_11 
REMARK    3  A    between atoms: C_11  and  O_13 
REMARK       I    between atoms: N_14  and  C_15 
REMARK    4  A    between atoms: C_15  and  C_17 
REMARK    5  A    between atoms: C_17  and  O_19 
ROOT
HETATM    1  C   UNK N   1      23.219  11.986   9.500  0.00  0.00     0.001 A 
HETATM    2  C   UNK N   1      23.108  12.828   8.390  0.00  0.00     0.012 A 
HETATM    3  C   UNK N   1      22.078  13.769   8.331  0.00  0.00    -0.024 A 
HETATM    4  C   UNK N   1      21.152  13.874   9.385  0.00  0.00    -0.025 A 
HETATM    5  C   UNK N   1      21.266  13.030  10.494  0.00  0.00     0.012 A 
HETATM    6  C   UNK N   1      22.300  12.088  10.549  0.00  0.00     0.001 A 
HETATM    7  C   UNK N   1      21.968  14.605   7.229  0.00  0.00     0.043 A 
HETATM    8  C   UNK N   1      20.945  15.561   7.139  0.00  0.00     0.053 A 
HETATM    9  C   UNK N   1      20.005  15.673   8.200  0.00  0.00     0.065 A 
HETATM   10  C   UNK N   1      20.125  14.820   9.315  0.00  0.00     0.032 A 
ENDROOT
BRANCH   8  11
HETATM   11  N   UNK N   1      20.852  16.411   5.994  0.00  0.00    -0.317 N 
HETATM   12  C   UNK N   1      21.277  17.705   5.924  0.00  0.00     0.319 C 
HETATM   13  O   UNK N   1      21.795  18.255   6.885  0.00  0.00    -0.261 OA
HETATM   14  H   UNK N   1      20.443  16.028   5.184  0.00  0.00     0.169 HD
BRANCH  12  15
HETATM   15  C   UNK N   1      21.115  18.461   4.672  0.00  0.00     0.237 C 
HETATM   16  O   UNK N   1      20.872  19.656   4.699  0.00  0.00    -0.643 OA
BRANCH  15  17
HETATM   17  O   UNK N   1      21.235  17.831   3.486  0.00  0.00    -0.769 OA
HETATM   18  H   UNK N   1      20.985  16.931   3.406  0.00  0.00     0.168 HD
ENDBRANCH  15  17
ENDBRANCH  12  15
ENDBRANCH   8  11
BRANCH   9  19
HETATM   19  C   UNK N   1      18.892  16.663   8.179  0.00  0.00     0.178 C 
HETATM   20  O   UNK N   1      18.919  17.628   8.928  0.00  0.00    -0.646 OA
BRANCH  19  21
HETATM   21  O   UNK N   1      17.845  16.516   7.344  0.00  0.00    -0.773 OA
HETATM   22  H   UNK N   1      17.090  16.036   7.621  0.00  0.00     0.167 HD
ENDBRANCH  19  21
ENDBRANCH   9  19
TORSDOF 5
ENDMDL
MODEL 8
REMARK VINA RESULT:      -5.8     21.457     23.365
REMARK  5 active torsions:
REMARK  status: ('A' for Active; 'I' for Inactive)
REMARK    1  A    between atoms: C_8  and  N_14 
REMARK    2  A    between atoms: C_9  and  C_11 
REMARK    3  A    between atoms: C_11  and  O_13 
REMARK       I    between atoms: N_14  and  C_15 
REMARK    4  A    between atoms: C_15  and  C_17 
REMARK    5  A    between atoms: C_17  and  O_19 
ROOT
HETATM    1  C   UNK N   1      31.410  21.342  -3.536  0.00  0.00     0.001 A 
HETATM    2  C   UNK N   1      30.664  22.418  -3.049  0.00  0.00     0.012 A 
HETATM    3  C   UNK N   1      29.652  22.975  -3.835  0.00  0.00    -0.024 A 
HETATM    4  C   UNK N   1      29.382  22.457  -5.115  0.00  0.00    -0.025 A 
HETATM    5  C   UNK N   1      30.131  21.380  -5.598  0.00  0.00     0.012 A 
HETATM    6  C   UNK N   1      31.144  20.824  -4.808  0.00  0.00     0.001 A 
HETATM    7  C   UNK N   1      28.912  24.044  -3.352  0.00  0.00     0.043 A 
HETATM    8  C   UNK N   1      27.889  24.626  -4.115  0.00  0.00     0.053 A 
HETATM    9  C   UNK N   1      27.609  24.108  -5.410  0.00  0.00     0.065 A 
HETATM   10  C   UNK N   1      28.367  23.022  -5.892  0.00  0.00     0.032 A 
ENDROOT
BRANCH   8  11
HETATM   11  N   UNK N   1      27.139  25.726  -3.597  0.00  0.00    -0.317 N 
HETATM   12  C   UNK N   1      27.449  27.046  -3.749  0.00  0.00     0.319 C 
HETATM   13  O   UNK N   1      28.441  27.396  -4.371  0.00  0.00    -0.261 OA
HETATM   14  H   UNK N   1      26.325  25.512  -3.084  0.00  0.00     0.169 HD
BRANCH  12  15
HETATM   15  C   UNK N   1      26.579  28.074  -3.156  0.00  0.00     0.237 C 
HETATM   16  O   UNK N   1      27.040  28.910  -2.397  0.00  0.00    -0.643 OA
BRANCH  15  17
HETATM   17  O   UNK N   1      25.264  28.094  -3.452  0.00  0.00    -0.769 OA
HETATM   18  H   UNK N   1      24.969  28.482  -4.253  0.00  0.00     0.168 HD
ENDBRANCH  15  17
ENDBRANCH  12  15
ENDBRANCH   8  11
BRANCH   9  19
HETATM   19  C   UNK N   1      26.540  24.671  -6.281  0.00  0.00     0.178 C 
HETATM   20  O   UNK N   1      26.811  25.055  -7.409  0.00  0.00    -0.646 OA
BRANCH  19  21
HETATM   21  O   UNK N   1      25.267  24.767  -5.849  0.00  0.00    -0.773 OA
HETATM   22  H   UNK N   1      25.018  24.369  -5.038  0.00  0.00     0.167 HD
ENDBRANCH  19  21
ENDBRANCH   9  19
TORSDOF 5
ENDMDL
MODEL 9
REMARK VINA RESULT:      -5.6      2.761      4.017
REMARK  5 active torsions:
REMARK  status: ('A' for Active; 'I' for Inactive)
REMARK    1  A    between atoms: C_8  and  N_14 
REMARK    2  A    between atoms: C_9  and  C_11 
REMARK    3  A    between atoms: C_11  and  O_13 
REMARK       I    between atoms: N_14  and  C_15 
REMARK    4  A    between atoms: C_15  and  C_17 
REMARK    5  A    between atoms: C_17  and  O_19 
ROOT
HETATM    1  C   UNK N   1      36.818  13.584  14.983  0.00  0.00     0.001 A 
HETATM    2  C   UNK N   1      36.458  14.542  14.033  0.00  0.00     0.012 A 
HETATM    3  C   UNK N   1      35.811  14.150  12.859  0.00  0.00    -0.024 A 
HETATM    4  C   UNK N   1      35.522  12.792  12.629  0.00  0.00    -0.025 A 
HETATM    5  C   UNK N   1      35.885  11.836  13.582  0.00  0.00     0.012 A 
HETATM    6  C   UNK N   1      36.532  12.233  14.758  0.00  0.00     0.001 A 
HETATM    7  C   UNK N   1      35.453  15.101  11.916  0.00  0.00     0.043 A 
HETATM    8  C   UNK N   1      34.803  14.740  10.726  0.00  0.00     0.053 A 
HETATM    9  C   UNK N   1      34.507  13.370  10.486  0.00  0.00     0.065 A 
HETATM   10  C   UNK N   1      34.875  12.411  11.450  0.00  0.00     0.032 A 
ENDROOT
BRANCH   8  11
HETATM   11  N   UNK N   1      34.444  15.737   9.769  0.00  0.00    -0.317 N 
HETATM   12  C   UNK N   1      34.991  16.984   9.671  0.00  0.00     0.319 C 
HETATM   13  O   UNK N   1      35.871  17.351  10.436  0.00  0.00    -0.261 OA
HETATM   14  H   UNK N   1      33.739  15.505   9.122  0.00  0.00     0.169 HD
BRANCH  12  15
HETATM   15  C   UNK N   1      34.518  17.910   8.630  0.00  0.00     0.237 C 
HETATM   16  O   UNK N   1      33.515  17.654   7.984  0.00  0.00    -0.643 OA
BRANCH  15  17
HETATM   17  O   UNK N   1      35.196  19.049   8.386  0.00  0.00    -0.769 OA
HETATM   18  H   UNK N   1      36.047  19.177   8.758  0.00  0.00     0.168 HD
ENDBRANCH  15  17
ENDBRANCH  12  15
ENDBRANCH   8  11
BRANCH   9  19
HETATM   19  C   UNK N   1      33.820  12.906   9.248  0.00  0.00     0.178 C 
HETATM   20  O   UNK N   1      34.269  13.206   8.153  0.00  0.00    -0.646 OA
BRANCH  19  21
HETATM   21  O   UNK N   1      32.703  12.157   9.311  0.00  0.00    -0.773 OA
HETATM   22  H   UNK N   1      32.768  11.230   9.437  0.00  0.00     0.167 HD
ENDBRANCH  19  21
ENDBRANCH   9  19
TORSDOF 5
ENDMDL
