REMARK  5 active torsions:
REMARK  status: ('A' for Active; 'I' for Inactive)
REMARK    1  A    between atoms: C_8  and  N_14 
REMARK    2  A    between atoms: C_9  and  C_11 
REMARK    3  A    between atoms: C_11  and  O_13 
REMARK       I    between atoms: N_14  and  C_15 
REMARK    4  A    between atoms: C_15  and  C_17 
REMARK    5  A    between atoms: C_17  and  O_19 
ROOT
HETATM    1  C   UNK N   1      -4.132   0.053  -0.000  0.00  0.00     0.001 A 
HETATM    2  C   UNK N   1      -2.924  -0.649  -0.000  0.00  0.00     0.012 A 
HETATM    3  C   UNK N   1      -1.714   0.048  -0.000  0.00  0.00    -0.024 A 
HETATM    4  C   UNK N   1      -1.706   1.455  -0.000  0.00  0.00    -0.025 A 
HETATM    5  C   UNK N   1      -2.917   2.154  -0.000  0.00  0.00     0.012 A 
HETATM    6  C   UNK N   1      -4.128   1.452  -0.000  0.00  0.00     0.001 A 
HETATM    7  C   UNK N   1      -0.515  -0.649  -0.000  0.00  0.00     0.043 A 
HETATM    8  C   UNK N   1       0.718   0.021  -0.000  0.00  0.00     0.053 A 
HETATM    9  C   UNK N   1       0.734   1.443   0.000  0.00  0.00     0.065 A 
HETATM   10  C   UNK N   1      -0.489   2.142   0.000  0.00  0.00     0.032 A 
ENDROOT
BRANCH   8  11
HETATM   11  N   UNK N   1       1.940  -0.718   0.000  0.00  0.00    -0.317 N 
HETATM   12  C   UNK N   1       2.051  -2.078   0.000  0.00  0.00     0.319 C 
HETATM   13  O   UNK N   1       1.060  -2.794   0.000  0.00  0.00    -0.261 OA
HETATM   14  H   UNK N   1       2.778  -0.200   0.000  0.00  0.00     0.169 HD
BRANCH  12  15
HETATM   15  C   UNK N   1       3.383  -2.703   0.000  0.00  0.00     0.237 C 
HETATM   16  O   UNK N   1       4.389  -2.013   0.000  0.00  0.00    -0.643 OA
BRANCH  15  17
HETATM   17  O   UNK N   1       3.495  -4.046   0.000  0.00  0.00    -0.769 OA
HETATM   18  H   UNK N   1       2.725  -4.581   0.000  0.00  0.00     0.168 HD
ENDBRANCH  15  17
ENDBRANCH  12  15
ENDBRANCH   8  11
BRANCH   9  19
HETATM   19  C   UNK N   1       2.001   2.227   0.000  0.00  0.00     0.178 C 
HETATM   20  O   UNK N   1       1.963   3.448  -0.000  0.00  0.00    -0.646 OA
BRANCH  19  21
HETATM   21  O   UNK N   1       3.200   1.613   0.000  0.00  0.00    -0.773 OA
HETATM   22  H   UNK N   1       3.246   0.677   0.000  0.00  0.00     0.167 HD
ENDBRANCH  19  21
ENDBRANCH   9  19
TORSDOF 5
