MODEL 1
REMARK VINA RESULT:      -6.3      0.000      0.000
REMARK  4 active torsions:
REMARK  status: ('A' for Active; 'I' for Inactive)
REMARK    1  A    between atoms: C_5  and  O_12 
REMARK    2  A    between atoms: O_12  and  P_13 
REMARK    3  A    between atoms: P_13  and  O_15 
REMARK    4  A    between atoms: P_13  and  O_18 
ROOT
HETATM    1  C   UNK N   1      34.647   9.730  14.075  0.00  0.00     0.004 A 
HETATM    2  C   UNK N   1      34.854   9.686  15.461  0.00  0.00     0.014 A 
HETATM    3  C   UNK N   1      35.035  10.878  16.179  0.00  0.00    -0.006 A 
HETATM    4  C   UNK N   1      35.026  12.106  15.504  0.00  0.00     0.077 A 
HETATM    5  C   UNK N   1      34.860  12.157  14.130  0.00  0.00     0.108 A 
HETATM    6  C   UNK N   1      34.652  10.963  13.407  0.00  0.00     0.040 A 
HETATM    7  C   UNK N   1      35.210  10.881  17.567  0.00  0.00     0.017 A 
HETATM    8  C   UNK N   1      35.329  12.102  18.258  0.00  0.00     0.042 A 
HETATM    9  C   UNK N   1      35.274  13.305  17.541  0.00  0.00     0.114 A 
HETATM   10  N   UNK N   1      35.142  13.271  16.196  0.00  0.00    -0.345 N 
ATOM     11  HN  UNK N   1      35.131  14.151  15.680  1.00  0.00     0.167 HD
HETATM   12  C   UNK N   1      35.325  14.596  18.188  0.00  0.00     0.117 C 
HETATM   13  N   UNK N   1      35.362  15.662  18.642  0.00  0.00    -0.190 NA
ENDROOT
BRANCH   5  14
HETATM   14  O   UNK N   1      34.919  13.383  13.556  0.00  0.00    -0.252 OA
BRANCH  14  15
HETATM   15  P   UNK N   1      35.972  13.865  12.292  0.00  0.00     0.396 P 
HETATM   16  O   UNK N   1      35.963  15.395  12.062  0.00  0.00    -0.631 OA
BRANCH  15  17
HETATM   17  O   UNK N   1      36.651  14.563  13.723  0.00  0.00    -0.307 OA
HETATM   18  H   UNK N   1      36.293  15.154  14.403  0.00  0.00     0.222 HD
ENDBRANCH  15  17
BRANCH  15  19
HETATM   19  O   UNK N   1      34.330  14.294  11.902  0.00  0.00    -0.307 OA
HETATM   20  H   UNK N   1      33.939  15.180  11.942  0.00  0.00     0.222 HD
ENDBRANCH  15  19
ENDBRANCH  14  15
ENDBRANCH   5  14
TORSDOF 4
ENDMDL
MODEL 2
REMARK VINA RESULT:      -6.0     10.195     11.101
REMARK  4 active torsions:
REMARK  status: ('A' for Active; 'I' for Inactive)
REMARK    1  A    between atoms: C_5  and  O_12 
REMARK    2  A    between atoms: O_12  and  P_13 
REMARK    3  A    between atoms: P_13  and  O_15 
REMARK    4  A    between atoms: P_13  and  O_18 
ROOT
HETATM    1  C   UNK N   1      32.744  17.155   3.747  0.00  0.00     0.004 A 
HETATM    2  C   UNK N   1      31.380  16.833   3.693  0.00  0.00     0.014 A 
HETATM    3  C   UNK N   1      30.602  16.888   4.859  0.00  0.00    -0.006 A 
HETATM    4  C   UNK N   1      31.196  17.248   6.076  0.00  0.00     0.077 A 
HETATM    5  C   UNK N   1      32.549  17.530   6.146  0.00  0.00     0.108 A 
HETATM    6  C   UNK N   1      33.332  17.501   4.972  0.00  0.00     0.040 A 
HETATM    7  C   UNK N   1      29.231  16.608   4.842  0.00  0.00     0.017 A 
HETATM    8  C   UNK N   1      28.474  16.733   6.023  0.00  0.00     0.042 A 
HETATM    9  C   UNK N   1      29.108  17.133   7.207  0.00  0.00     0.114 A 
HETATM   10  N   UNK N   1      30.441  17.361   7.202  0.00  0.00    -0.345 N 
ATOM     11  HN  UNK N   1      30.898  17.626   8.075  1.00  0.00     0.167 HD
HETATM   12  C   UNK N   1      28.385  17.344   8.440  0.00  0.00     0.117 C 
HETATM   13  N   UNK N   1      27.869  17.530   9.461  0.00  0.00    -0.190 NA
ENDROOT
BRANCH   5  14
HETATM   14  O   UNK N   1      33.047  17.816   7.374  0.00  0.00    -0.252 OA
BRANCH  14  15
HETATM   15  P   UNK N   1      34.268  16.943   8.206  0.00  0.00     0.396 P 
HETATM   16  O   UNK N   1      34.657  17.602   9.551  0.00  0.00    -0.631 OA
BRANCH  15  17
HETATM   17  O   UNK N   1      32.868  16.818   9.216  0.00  0.00    -0.307 OA
HETATM   18  H   UNK N   1      32.635  16.232   9.952  0.00  0.00     0.222 HD
ENDBRANCH  15  17
BRANCH  15  19
HETATM   19  O   UNK N   1      34.830  18.547   7.824  0.00  0.00    -0.307 OA
HETATM   20  H   UNK N   1      34.297  19.356   7.804  0.00  0.00     0.222 HD
ENDBRANCH  15  19
ENDBRANCH  14  15
ENDBRANCH   5  14
TORSDOF 4
ENDMDL
MODEL 3
REMARK VINA RESULT:      -6.0     23.354     24.575
REMARK  4 active torsions:
REMARK  status: ('A' for Active; 'I' for Inactive)
REMARK    1  A    between atoms: C_5  and  O_12 
REMARK    2  A    between atoms: O_12  and  P_13 
REMARK    3  A    between atoms: P_13  and  O_15 
REMARK    4  A    between atoms: P_13  and  O_18 
ROOT
HETATM    1  C   UNK N   1      26.688  23.496  -6.309  0.00  0.00     0.004 A 
HETATM    2  C   UNK N   1      25.895  24.651  -6.370  0.00  0.00     0.014 A 
HETATM    3  C   UNK N   1      26.117  25.700  -5.466  0.00  0.00    -0.006 A 
HETATM    4  C   UNK N   1      27.120  25.581  -4.494  0.00  0.00     0.077 A 
HETATM    5  C   UNK N   1      27.882  24.430  -4.402  0.00  0.00     0.108 A 
HETATM    6  C   UNK N   1      27.680  23.381  -5.326  0.00  0.00     0.040 A 
HETATM    7  C   UNK N   1      25.371  26.883  -5.514  0.00  0.00     0.017 A 
HETATM    8  C   UNK N   1      25.665  27.935  -4.627  0.00  0.00     0.042 A 
HETATM    9  C   UNK N   1      26.704  27.782  -3.698  0.00  0.00     0.114 A 
HETATM   10  N   UNK N   1      27.383  26.614  -3.649  0.00  0.00    -0.345 N 
ATOM     11  HN  UNK N   1      28.119  26.502  -2.952  1.00  0.00     0.167 HD
HETATM   12  C   UNK N   1      27.104  28.841  -2.801  0.00  0.00     0.117 C 
HETATM   13  N   UNK N   1      27.475  29.646  -2.053  0.00  0.00    -0.190 NA
ENDROOT
BRANCH   5  14
HETATM   14  O   UNK N   1      28.792  24.382  -3.398  0.00  0.00    -0.252 OA
BRANCH  14  15
HETATM   15  P   UNK N   1      29.643  22.993  -2.862  0.00  0.00     0.396 P 
HETATM   16  O   UNK N   1      30.171  23.142  -1.415  0.00  0.00    -0.631 OA
BRANCH  15  17
HETATM   17  O   UNK N   1      28.240  23.070  -1.851  0.00  0.00    -0.307 OA
HETATM   18  H   UNK N   1      28.049  23.532  -1.021  0.00  0.00     0.222 HD
ENDBRANCH  15  17
BRANCH  15  19
HETATM   19  O   UNK N   1      30.697  24.380  -2.863  0.00  0.00    -0.307 OA
HETATM   20  H   UNK N   1      30.534  25.228  -3.303  0.00  0.00     0.222 HD
ENDBRANCH  15  19
ENDBRANCH  14  15
ENDBRANCH   5  14
TORSDOF 4
ENDMDL
MODEL 4
REMARK VINA RESULT:      -5.9     10.099     11.972
REMARK  4 active torsions:
REMARK  status: ('A' for Active; 'I' for Inactive)
REMARK    1  A    between atoms: C_5  and  O_12 
REMARK    2  A    between atoms: O_12  and  P_13 
REMARK    3  A    between atoms: P_13  and  O_15 
REMARK    4  A    between atoms: P_13  and  O_18 
ROOT
HETATM    1  C   UNK N   1      33.700  17.918   7.814  0.00  0.00     0.004 A 
HETATM    2  C   UNK N   1      33.834  17.722   6.431  0.00  0.00     0.014 A 
HETATM    3  C   UNK N   1      32.715  17.360   5.666  0.00  0.00    -0.006 A 
HETATM    4  C   UNK N   1      31.472  17.181   6.289  0.00  0.00     0.077 A 
HETATM    5  C   UNK N   1      31.340  17.336   7.658  0.00  0.00     0.108 A 
HETATM    6  C   UNK N   1      32.456  17.724   8.430  0.00  0.00     0.040 A 
HETATM    7  C   UNK N   1      32.797  17.188   4.280  0.00  0.00     0.017 A 
HETATM    8  C   UNK N   1      31.639  16.883   3.540  0.00  0.00     0.042 A 
HETATM    9  C   UNK N   1      30.412  16.752   4.206  0.00  0.00     0.114 A 
HETATM   10  N   UNK N   1      30.370  16.887   5.550  0.00  0.00    -0.345 N 
ATOM     11  HN  UNK N   1      29.477  16.763   6.029  1.00  0.00     0.167 HD
HETATM   12  C   UNK N   1      29.173  16.504   3.506  0.00  0.00     0.117 C 
HETATM   13  N   UNK N   1      28.145  16.305   3.009  0.00  0.00    -0.190 NA
ENDROOT
BRANCH   5  14
HETATM   14  O   UNK N   1      30.114  17.090   8.182  0.00  0.00    -0.252 OA
BRANCH  14  15
HETATM   15  P   UNK N   1      29.120  18.212   9.016  0.00  0.00     0.396 P 
HETATM   16  O   UNK N   1      27.824  17.566   9.562  0.00  0.00    -0.631 OA
BRANCH  15  17
HETATM   17  O   UNK N   1      29.627  17.085  10.227  0.00  0.00    -0.307 OA
HETATM   18  H   UNK N   1      29.412  16.984  11.167  0.00  0.00     0.222 HD
ENDBRANCH  15  17
BRANCH  15  19
HETATM   19  O   UNK N   1      28.273  17.568   7.637  0.00  0.00    -0.307 OA
HETATM   20  H   UNK N   1      28.032  16.641   7.489  0.00  0.00     0.222 HD
ENDBRANCH  15  19
ENDBRANCH  14  15
ENDBRANCH   5  14
TORSDOF 4
ENDMDL
MODEL 5
REMARK VINA RESULT:      -5.8      2.697      3.209
REMARK  4 active torsions:
REMARK  status: ('A' for Active; 'I' for Inactive)
REMARK    1  A    between atoms: C_5  and  O_12 
REMARK    2  A    between atoms: O_12  and  P_13 
REMARK    3  A    between atoms: P_13  and  O_15 
REMARK    4  A    between atoms: P_13  and  O_18 
ROOT
HETATM    1  C   UNK N   1      34.707  11.289  10.909  0.00  0.00     0.004 A 
HETATM    2  C   UNK N   1      35.408  10.868  12.049  0.00  0.00     0.014 A 
HETATM    3  C   UNK N   1      35.928  11.818  12.940  0.00  0.00    -0.006 A 
HETATM    4  C   UNK N   1      35.760  13.185  12.678  0.00  0.00     0.077 A 
HETATM    5  C   UNK N   1      35.103  13.610  11.536  0.00  0.00     0.108 A 
HETATM    6  C   UNK N   1      34.556  12.658  10.649  0.00  0.00     0.040 A 
HETATM    7  C   UNK N   1      36.603  11.441  14.106  0.00  0.00     0.017 A 
HETATM    8  C   UNK N   1      37.058  12.425  15.004  0.00  0.00     0.042 A 
HETATM    9  C   UNK N   1      36.831  13.778  14.715  0.00  0.00     0.114 A 
HETATM   10  N   UNK N   1      36.209  14.114  13.563  0.00  0.00    -0.345 N 
ATOM     11  HN  UNK N   1      36.072  15.102  13.348  1.00  0.00     0.167 HD
HETATM   12  C   UNK N   1      37.211  14.838  15.620  0.00  0.00     0.117 C 
HETATM   13  N   UNK N   1      37.490  15.737  16.297  0.00  0.00    -0.190 NA
ENDROOT
BRANCH   5  14
HETATM   14  O   UNK N   1      35.035  14.949  11.337  0.00  0.00    -0.252 OA
BRANCH  14  15
HETATM   15  P   UNK N   1      35.508  15.792   9.920  0.00  0.00     0.396 P 
HETATM   16  O   UNK N   1      35.504  17.328  10.114  0.00  0.00    -0.631 OA
BRANCH  15  17
HETATM   17  O   UNK N   1      36.756  16.127  11.072  0.00  0.00    -0.307 OA
HETATM   18  H   UNK N   1      36.815  16.737  11.823  0.00  0.00     0.222 HD
ENDBRANCH  15  17
BRANCH  15  19
HETATM   19  O   UNK N   1      33.881  16.228  10.364  0.00  0.00    -0.307 OA
HETATM   20  H   UNK N   1      33.452  17.085  10.217  0.00  0.00     0.222 HD
ENDBRANCH  15  19
ENDBRANCH  14  15
ENDBRANCH   5  14
TORSDOF 4
ENDMDL
MODEL 6
REMARK VINA RESULT:      -5.6      2.446      4.435
REMARK  4 active torsions:
REMARK  status: ('A' for Active; 'I' for Inactive)
REMARK    1  A    between atoms: C_5  and  O_12 
REMARK    2  A    between atoms: O_12  and  P_13 
REMARK    3  A    between atoms: P_13  and  O_15 
REMARK    4  A    between atoms: P_13  and  O_18 
ROOT
HETATM    1  C   UNK N   1      36.563  14.178  15.802  0.00  0.00     0.004 A 
HETATM    2  C   UNK N   1      35.822  13.033  16.131  0.00  0.00     0.014 A 
HETATM    3  C   UNK N   1      35.199  12.289  15.119  0.00  0.00    -0.006 A 
HETATM    4  C   UNK N   1      35.305  12.703  13.784  0.00  0.00     0.077 A 
HETATM    5  C   UNK N   1      36.002  13.853  13.454  0.00  0.00     0.108 A 
HETATM    6  C   UNK N   1      36.653  14.591  14.466  0.00  0.00     0.040 A 
HETATM    7  C   UNK N   1      34.479  11.123  15.400  0.00  0.00     0.017 A 
HETATM    8  C   UNK N   1      33.918  10.372  14.349  0.00  0.00     0.042 A 
HETATM    9  C   UNK N   1      34.086  10.808  13.028  0.00  0.00     0.114 A 
HETATM   10  N   UNK N   1      34.753  11.959  12.788  0.00  0.00    -0.345 N 
ATOM     11  HN  UNK N   1      34.847  12.282  11.825  1.00  0.00     0.167 HD
HETATM   12  C   UNK N   1      33.594  10.057  11.895  0.00  0.00     0.117 C 
HETATM   13  N   UNK N   1      33.226   9.507  10.944  0.00  0.00    -0.190 NA
ENDROOT
BRANCH   5  14
HETATM   14  O   UNK N   1      36.007  14.206  12.145  0.00  0.00    -0.252 OA
BRANCH  14  15
HETATM   15  P   UNK N   1      35.462  15.695  11.491  0.00  0.00     0.396 P 
HETATM   16  O   UNK N   1      35.090  15.585   9.993  0.00  0.00    -0.631 OA
BRANCH  15  17
HETATM   17  O   UNK N   1      34.083  14.651  11.421  0.00  0.00    -0.307 OA
HETATM   18  H   UNK N   1      33.420  14.388  12.077  0.00  0.00     0.222 HD
ENDBRANCH  15  17
BRANCH  15  19
HETATM   19  O   UNK N   1      36.901  15.165  10.664  0.00  0.00    -0.307 OA
HETATM   20  H   UNK N   1      37.550  14.524  10.989  0.00  0.00     0.222 HD
ENDBRANCH  15  19
ENDBRANCH  14  15
ENDBRANCH   5  14
TORSDOF 4
ENDMDL
MODEL 7
REMARK VINA RESULT:      -5.6     23.372     24.840
REMARK  4 active torsions:
REMARK  status: ('A' for Active; 'I' for Inactive)
REMARK    1  A    between atoms: C_5  and  O_12 
REMARK    2  A    between atoms: O_12  and  P_13 
REMARK    3  A    between atoms: P_13  and  O_15 
REMARK    4  A    between atoms: P_13  and  O_18 
ROOT
HETATM    1  C   UNK N   1      25.988  25.372  -7.296  0.00  0.00     0.004 A 
HETATM    2  C   UNK N   1      26.931  24.334  -7.334  0.00  0.00     0.014 A 
HETATM    3  C   UNK N   1      27.722  24.067  -6.207  0.00  0.00    -0.006 A 
HETATM    4  C   UNK N   1      27.579  24.851  -5.053  0.00  0.00     0.077 A 
HETATM    5  C   UNK N   1      26.678  25.901  -5.020  0.00  0.00     0.108 A 
HETATM    6  C   UNK N   1      25.861  26.158  -6.142  0.00  0.00     0.040 A 
HETATM    7  C   UNK N   1      28.650  23.020  -6.191  0.00  0.00     0.017 A 
HETATM    8  C   UNK N   1      29.383  22.748  -5.020  0.00  0.00     0.042 A 
HETATM    9  C   UNK N   1      29.175  23.537  -3.880  0.00  0.00     0.114 A 
HETATM   10  N   UNK N   1      28.299  24.566  -3.936  0.00  0.00    -0.345 N 
ATOM     11  HN  UNK N   1      28.175  25.151  -3.109  1.00  0.00     0.167 HD
HETATM   12  C   UNK N   1      29.842  23.277  -2.625  0.00  0.00     0.117 C 
HETATM   13  N   UNK N   1      30.343  23.127  -1.590  0.00  0.00    -0.190 NA
ENDROOT
BRANCH   5  14
HETATM   14  O   UNK N   1      26.645  26.638  -3.883  0.00  0.00    -0.252 OA
BRANCH  14  15
HETATM   15  P   UNK N   1      26.757  28.346  -3.773  0.00  0.00     0.396 P 
HETATM   16  O   UNK N   1      27.115  28.827  -2.346  0.00  0.00    -0.631 OA
BRANCH  15  17
HETATM   17  O   UNK N   1      28.363  27.777  -3.471  0.00  0.00    -0.307 OA
HETATM   18  H   UNK N   1      29.148  27.687  -4.032  0.00  0.00     0.222 HD
ENDBRANCH  15  17
BRANCH  15  19
HETATM   19  O   UNK N   1      25.497  27.757  -2.724  0.00  0.00    -0.307 OA
HETATM   20  H   UNK N   1      25.299  28.069  -1.828  0.00  0.00     0.222 HD
ENDBRANCH  15  19
ENDBRANCH  14  15
ENDBRANCH   5  14
TORSDOF 4
ENDMDL
MODEL 8
REMARK VINA RESULT:      -5.5     16.322     17.776
REMARK  4 active torsions:
REMARK  status: ('A' for Active; 'I' for Inactive)
REMARK    1  A    between atoms: C_5  and  O_12 
REMARK    2  A    between atoms: O_12  and  P_13 
REMARK    3  A    between atoms: P_13  and  O_15 
REMARK    4  A    between atoms: P_13  and  O_18 
ROOT
HETATM    1  C   UNK N   1      25.494  20.550   2.732  0.00  0.00     0.004 A 
HETATM    2  C   UNK N   1      26.148  19.509   3.407  0.00  0.00     0.014 A 
HETATM    3  C   UNK N   1      25.401  18.556   4.115  0.00  0.00    -0.006 A 
HETATM    4  C   UNK N   1      24.003  18.660   4.160  0.00  0.00     0.077 A 
HETATM    5  C   UNK N   1      23.352  19.706   3.529  0.00  0.00     0.108 A 
HETATM    6  C   UNK N   1      24.097  20.652   2.793  0.00  0.00     0.040 A 
HETATM    7  C   UNK N   1      26.011  17.484   4.774  0.00  0.00     0.017 A 
HETATM    8  C   UNK N   1      25.221  16.517   5.424  0.00  0.00     0.042 A 
HETATM    9  C   UNK N   1      23.825  16.645   5.407  0.00  0.00     0.114 A 
HETATM   10  N   UNK N   1      23.265  17.712   4.795  0.00  0.00    -0.345 N 
ATOM     11  HN  UNK N   1      22.249  17.810   4.811  1.00  0.00     0.167 HD
HETATM   12  C   UNK N   1      22.949  15.658   5.997  0.00  0.00     0.117 C 
HETATM   13  N   UNK N   1      22.190  14.909   6.449  0.00  0.00    -0.190 NA
ENDROOT
BRANCH   5  14
HETATM   14  O   UNK N   1      22.005  19.756   3.670  0.00  0.00    -0.252 OA
BRANCH  14  15
HETATM   15  P   UNK N   1      20.861  20.042   2.423  0.00  0.00     0.396 P 
HETATM   16  O   UNK N   1      19.452  19.509   2.777  0.00  0.00    -0.631 OA
BRANCH  15  17
HETATM   17  O   UNK N   1      20.313  21.001   3.755  0.00  0.00    -0.307 OA
HETATM   18  H   UNK N   1      19.545  20.939   4.342  0.00  0.00     0.222 HD
ENDBRANCH  15  17
BRANCH  15  19
HETATM   19  O   UNK N   1      21.036  18.330   2.698  0.00  0.00    -0.307 OA
HETATM   20  H   UNK N   1      20.319  17.691   2.831  0.00  0.00     0.222 HD
ENDBRANCH  15  19
ENDBRANCH  14  15
ENDBRANCH   5  14
TORSDOF 4
ENDMDL
MODEL 9
REMARK VINA RESULT:      -5.4     11.204     12.712
REMARK  4 active torsions:
REMARK  status: ('A' for Active; 'I' for Inactive)
REMARK    1  A    between atoms: C_5  and  O_12 
REMARK    2  A    between atoms: O_12  and  P_13 
REMARK    3  A    between atoms: P_13  and  O_15 
REMARK    4  A    between atoms: P_13  and  O_18 
ROOT
HETATM    1  C   UNK N   1      28.902  18.207   9.368  0.00  0.00     0.004 A 
HETATM    2  C   UNK N   1      30.066  17.468   9.115  0.00  0.00     0.014 A 
HETATM    3  C   UNK N   1      30.474  17.236   7.793  0.00  0.00    -0.006 A 
HETATM    4  C   UNK N   1      29.706  17.731   6.730  0.00  0.00     0.077 A 
HETATM    5  C   UNK N   1      28.535  18.430   6.970  0.00  0.00     0.108 A 
HETATM    6  C   UNK N   1      28.133  18.687   8.298  0.00  0.00     0.040 A 
HETATM    7  C   UNK N   1      31.647  16.533   7.497  0.00  0.00     0.017 A 
HETATM    8  C   UNK N   1      32.052  16.373   6.159  0.00  0.00     0.042 A 
HETATM    9  C   UNK N   1      31.268  16.921   5.133  0.00  0.00     0.114 A 
HETATM   10  N   UNK N   1      30.121  17.563   5.446  0.00  0.00    -0.345 N 
ATOM     11  HN  UNK N   1      29.544  17.935   4.691  1.00  0.00     0.167 HD
HETATM   12  C   UNK N   1      31.654  16.853   3.742  0.00  0.00     0.117 C 
HETATM   13  N   UNK N   1      31.902  16.834   2.610  0.00  0.00    -0.190 NA
ENDROOT
BRANCH   5  14
HETATM   14  O   UNK N   1      27.829  18.824   5.881  0.00  0.00    -0.252 OA
BRANCH  14  15
HETATM   15  P   UNK N   1      27.337  20.426   5.514  0.00  0.00     0.396 P 
HETATM   16  O   UNK N   1      26.568  20.517   4.174  0.00  0.00    -0.631 OA
BRANCH  15  17
HETATM   17  O   UNK N   1      25.861  19.553   5.754  0.00  0.00    -0.307 OA
HETATM   18  H   UNK N   1      25.538  18.987   6.472  0.00  0.00     0.222 HD
ENDBRANCH  15  17
BRANCH  15  19
HETATM   19  O   UNK N   1      28.418  19.832   4.284  0.00  0.00    -0.307 OA
HETATM   20  H   UNK N   1      29.337  20.105   4.143  0.00  0.00     0.222 HD
ENDBRANCH  15  19
ENDBRANCH  14  15
ENDBRANCH   5  14
TORSDOF 4
ENDMDL
