REMARK  4 active torsions:
REMARK  status: ('A' for Active; 'I' for Inactive)
REMARK    1  A    between atoms: C_5  and  O_12 
REMARK    2  A    between atoms: O_12  and  P_13 
REMARK    3  A    between atoms: P_13  and  O_15 
REMARK    4  A    between atoms: P_13  and  O_18 
ROOT
HETATM    1  C   UNK N   1      -1.841  -2.162   0.100  0.00  0.00     0.004 A 
HETATM    2  C   UNK N   1      -0.517  -2.625   0.096  0.00  0.00     0.014 A 
HETATM    3  C   UNK N   1       0.543  -1.710   0.011  0.00  0.00    -0.006 A 
HETATM    4  C   UNK N   1       0.273  -0.338  -0.087  0.00  0.00     0.077 A 
HETATM    5  C   UNK N   1      -1.031   0.125  -0.122  0.00  0.00     0.108 A 
HETATM    6  C   UNK N   1      -2.101  -0.789  -0.011  0.00  0.00     0.040 A 
HETATM    7  C   UNK N   1       1.878  -2.127   0.038  0.00  0.00     0.017 A 
HETATM    8  C   UNK N   1       2.913  -1.173   0.010  0.00  0.00     0.042 A 
HETATM    9  C   UNK N   1       2.590   0.190  -0.049  0.00  0.00     0.114 A 
HETATM   10  N   UNK N   1       1.292   0.562  -0.112  0.00  0.00    -0.345 N 
ATOM     11  HN  UNK N   1       1.068   1.555  -0.182  1.00  0.00     0.167 HD
HETATM   12  C   UNK N   1       3.596   1.227  -0.016  0.00  0.00     0.117 C 
HETATM   13  N   UNK N   1       4.349   2.108   0.005  0.00  0.00    -0.190 NA
ENDROOT
BRANCH   5  14
HETATM   14  O   UNK N   1      -1.197   1.462  -0.272  0.00  0.00    -0.252 OA
BRANCH  14  15
HETATM   15  P   UNK N   1      -2.217   2.472   0.667  0.00  0.00     0.396 P 
HETATM   16  O   UNK N   1      -2.938   3.544  -0.185  0.00  0.00    -0.631 OA
BRANCH  15  17
HETATM   17  O   UNK N   1      -3.292   1.604  -0.375  0.00  0.00    -0.307 OA
HETATM   18  H   UNK N   1      -4.014   1.882  -0.959  0.00  0.00     0.222 HD
ENDBRANCH  15  17
BRANCH  15  19
HETATM   19  O   UNK N   1      -0.968   3.419  -0.093  0.00  0.00    -0.307 OA
HETATM   20  H   UNK N   1      -0.164   3.081  -0.516  0.00  0.00     0.222 HD
ENDBRANCH  15  19
ENDBRANCH  14  15
ENDBRANCH   5  14
TORSDOF 4
