MODEL 1
REMARK VINA RESULT:      -6.6      0.000      0.000
REMARK  5 active torsions:
REMARK  status: ('A' for Active; 'I' for Inactive)
REMARK    1  A    between atoms: N_2  and  C_4 
REMARK    2  A    between atoms: C_7  and  N_10 
REMARK    3  A    between atoms: C_13  and  C_18 
REMARK    4  A    between atoms: C_18  and  O_20 
REMARK    5  A    between atoms: O_20  and  C_21 
ROOT
HETATM    1  N   UNK N   1      28.148  24.905  -5.426  0.00  0.00    -0.260 N 
HETATM    2  C   UNK N   1      26.953  25.248  -4.885  0.00  0.00     0.049 A 
HETATM    3  C   UNK N   1      26.250  24.413  -3.870  0.00  0.00     0.071 C 
HETATM    4  C   UNK N   1      26.573  26.493  -5.403  0.00  0.00     0.087 A 
HETATM    5  C   UNK N   1      27.630  26.838  -6.247  0.00  0.00     0.041 A 
HETATM    6  N   UNK N   1      28.555  25.865  -6.239  0.00  0.00    -0.297 N 
ATOM      7  HN  UNK N   1      29.426  25.867  -6.770  1.00  0.00     0.187 HD
HETATM    8  C   UNK N   1      27.779  28.080  -7.057  0.00  0.00     0.071 C 
ENDROOT
BRANCH   1   9
HETATM    9  C   UNK N   1      28.929  23.716  -5.194  0.00  0.00     0.059 A 
HETATM   10  C   UNK N   1      29.649  23.597  -4.001  0.00  0.00     0.067 A 
HETATM   11  C   UNK N   1      30.398  22.451  -3.722  0.00  0.00     0.105 A 
HETATM   12  C   UNK N   1      30.443  21.412  -4.665  0.00  0.00     0.036 A 
HETATM   13  C   UNK N   1      29.743  21.526  -5.868  0.00  0.00     0.005 A 
HETATM   14  C   UNK N   1      28.984  22.669  -6.128  0.00  0.00     0.031 A 
BRANCH  11  15
HETATM   15  N   UNK N   1      31.085  22.344  -2.484  0.00  0.00    -0.116 N 
HETATM   16  O   UNK N   1      32.086  21.697  -2.402  0.00  0.00    -0.532 OA
HETATM   17  O   UNK N   1      30.606  22.935  -1.410  0.00  0.00    -0.532 OA
ENDBRANCH  11  15
ENDBRANCH   1   9
BRANCH   4  18
HETATM   18  C   UNK N   1      25.370  27.373  -5.165  0.00  0.00     0.297 C 
HETATM   19  O   UNK N   1      24.378  27.176  -5.848  0.00  0.00    -0.259 OA
BRANCH  18  20
HETATM   20  O   UNK N   1      25.302  28.384  -4.256  0.00  0.00    -0.318 OA
BRANCH  20  21
HETATM   21  C   UNK N   1      26.342  28.892  -3.527  0.00  0.00     0.174 C 
HETATM   22  C   UNK N   1      26.632  30.310  -3.969  0.00  0.00     0.034 C 
ENDBRANCH  20  21
ENDBRANCH  18  20
ENDBRANCH   4  18
TORSDOF 5
ENDMDL
MODEL 2
REMARK VINA RESULT:      -6.2     10.577     12.453
REMARK  5 active torsions:
REMARK  status: ('A' for Active; 'I' for Inactive)
REMARK    1  A    between atoms: N_2  and  C_4 
REMARK    2  A    between atoms: C_7  and  N_10 
REMARK    3  A    between atoms: C_13  and  C_18 
REMARK    4  A    between atoms: C_18  and  O_20 
REMARK    5  A    between atoms: O_20  and  C_21 
ROOT
HETATM    1  N   UNK N   1      26.484  18.427   5.113  0.00  0.00    -0.260 N 
HETATM    2  C   UNK N   1      26.218  19.542   4.389  0.00  0.00     0.049 A 
HETATM    3  C   UNK N   1      27.223  20.617   4.152  0.00  0.00     0.071 C 
HETATM    4  C   UNK N   1      24.910  19.450   3.896  0.00  0.00     0.087 A 
HETATM    5  C   UNK N   1      24.465  18.214   4.367  0.00  0.00     0.041 A 
HETATM    6  N   UNK N   1      25.431  17.628   5.093  0.00  0.00    -0.297 N 
ATOM      7  HN  UNK N   1      25.363  16.719   5.551  1.00  0.00     0.187 HD
HETATM    8  C   UNK N   1      23.139  17.575   4.133  0.00  0.00     0.071 C 
ENDROOT
BRANCH   1   9
HETATM    9  C   UNK N   1      27.697  18.078   5.810  0.00  0.00     0.059 A 
HETATM   10  C   UNK N   1      27.725  18.153   7.206  0.00  0.00     0.067 A 
HETATM   11  C   UNK N   1      28.870  17.798   7.924  0.00  0.00     0.105 A 
HETATM   12  C   UNK N   1      30.015  17.378   7.229  0.00  0.00     0.036 A 
HETATM   13  C   UNK N   1      30.006  17.316   5.834  0.00  0.00     0.005 A 
HETATM   14  C   UNK N   1      28.850  17.657   5.128  0.00  0.00     0.031 A 
BRANCH  11  15
HETATM   15  N   UNK N   1      28.853  17.847   9.343  0.00  0.00    -0.116 N 
HETATM   16  O   UNK N   1      28.091  17.166   9.962  0.00  0.00    -0.532 OA
HETATM   17  O   UNK N   1      29.657  18.667   9.986  0.00  0.00    -0.532 OA
ENDBRANCH  11  15
ENDBRANCH   1   9
BRANCH   4  18
HETATM   18  C   UNK N   1      24.078  20.364   3.030  0.00  0.00     0.297 C 
HETATM   19  O   UNK N   1      24.591  20.806   2.013  0.00  0.00    -0.259 OA
BRANCH  18  20
HETATM   20  O   UNK N   1      22.801  20.752   3.295  0.00  0.00    -0.318 OA
BRANCH  20  21
HETATM   21  C   UNK N   1      21.711  20.564   2.490  0.00  0.00     0.174 C 
HETATM   22  C   UNK N   1      20.517  20.170   3.331  0.00  0.00     0.034 C 
ENDBRANCH  20  21
ENDBRANCH  18  20
ENDBRANCH   4  18
TORSDOF 5
ENDMDL
MODEL 3
REMARK VINA RESULT:      -6.1     16.896     20.833
REMARK  5 active torsions:
REMARK  status: ('A' for Active; 'I' for Inactive)
REMARK    1  A    between atoms: N_2  and  C_4 
REMARK    2  A    between atoms: C_7  and  N_10 
REMARK    3  A    between atoms: C_13  and  C_18 
REMARK    4  A    between atoms: C_18  and  O_20 
REMARK    5  A    between atoms: O_20  and  C_21 
ROOT
HETATM    1  N   UNK N   1      34.453  14.360  10.854  0.00  0.00    -0.260 N 
HETATM    2  C   UNK N   1      34.758  13.046  10.723  0.00  0.00     0.049 A 
HETATM    3  C   UNK N   1      34.385  12.240   9.526  0.00  0.00     0.071 C 
HETATM    4  C   UNK N   1      35.497  12.647  11.845  0.00  0.00     0.087 A 
HETATM    5  C   UNK N   1      35.606  13.814  12.602  0.00  0.00     0.041 A 
HETATM    6  N   UNK N   1      34.969  14.820  11.981  0.00  0.00    -0.297 N 
ATOM      7  HN  UNK N   1      34.896  15.779  12.322  1.00  0.00     0.187 HD
HETATM    8  C   UNK N   1      36.311  13.992  13.903  0.00  0.00     0.071 C 
ENDROOT
BRANCH   1   9
HETATM    9  C   UNK N   1      33.709  15.202   9.952  0.00  0.00     0.059 A 
HETATM   10  C   UNK N   1      34.373  16.234   9.282  0.00  0.00     0.067 A 
HETATM   11  C   UNK N   1      33.698  17.059   8.378  0.00  0.00     0.105 A 
HETATM   12  C   UNK N   1      32.326  16.858   8.156  0.00  0.00     0.036 A 
HETATM   13  C   UNK N   1      31.647  15.843   8.833  0.00  0.00     0.005 A 
HETATM   14  C   UNK N   1      32.337  15.014   9.721  0.00  0.00     0.031 A 
BRANCH  11  15
HETATM   15  N   UNK N   1      34.411  18.072   7.683  0.00  0.00    -0.116 N 
HETATM   16  O   UNK N   1      34.500  18.039   6.492  0.00  0.00    -0.532 OA
HETATM   17  O   UNK N   1      35.003  19.039   8.351  0.00  0.00    -0.532 OA
ENDBRANCH  11  15
ENDBRANCH   1   9
BRANCH   4  18
HETATM   18  C   UNK N   1      36.114  11.329  12.245  0.00  0.00     0.297 C 
HETATM   19  O   UNK N   1      37.258  11.104  11.882  0.00  0.00    -0.259 OA
BRANCH  18  20
HETATM   20  O   UNK N   1      35.495  10.358  12.970  0.00  0.00    -0.318 OA
BRANCH  20  21
HETATM   21  C   UNK N   1      34.148  10.229  13.172  0.00  0.00     0.174 C 
HETATM   22  C   UNK N   1      33.776  10.809  14.519  0.00  0.00     0.034 C 
ENDBRANCH  20  21
ENDBRANCH  18  20
ENDBRANCH   4  18
TORSDOF 5
ENDMDL
MODEL 4
REMARK VINA RESULT:      -6.1     19.293     22.958
REMARK  5 active torsions:
REMARK  status: ('A' for Active; 'I' for Inactive)
REMARK    1  A    between atoms: N_2  and  C_4 
REMARK    2  A    between atoms: C_7  and  N_10 
REMARK    3  A    between atoms: C_13  and  C_18 
REMARK    4  A    between atoms: C_18  and  O_20 
REMARK    5  A    between atoms: O_20  and  C_21 
ROOT
HETATM    1  N   UNK N   1      36.077  14.269  13.080  0.00  0.00    -0.260 N 
HETATM    2  C   UNK N   1      35.537  13.293  13.851  0.00  0.00     0.049 A 
HETATM    3  C   UNK N   1      34.728  12.171  13.296  0.00  0.00     0.071 C 
HETATM    4  C   UNK N   1      35.922  13.514  15.180  0.00  0.00     0.087 A 
HETATM    5  C   UNK N   1      36.723  14.655  15.108  0.00  0.00     0.041 A 
HETATM    6  N   UNK N   1      36.794  15.082  13.837  0.00  0.00    -0.297 N 
ATOM      7  HN  UNK N   1      37.314  15.897  13.511  1.00  0.00     0.187 HD
HETATM    8  C   UNK N   1      37.429  15.343  16.226  0.00  0.00     0.071 C 
ENDROOT
BRANCH   1   9
HETATM    9  C   UNK N   1      35.957  14.456  11.656  0.00  0.00     0.059 A 
HETATM   10  C   UNK N   1      35.341  15.613  11.171  0.00  0.00     0.067 A 
HETATM   11  C   UNK N   1      35.227  15.849   9.799  0.00  0.00     0.105 A 
HETATM   12  C   UNK N   1      35.723  14.898   8.893  0.00  0.00     0.036 A 
HETATM   13  C   UNK N   1      36.325  13.728   9.365  0.00  0.00     0.005 A 
HETATM   14  C   UNK N   1      36.448  13.512  10.739  0.00  0.00     0.031 A 
BRANCH  11  15
HETATM   15  N   UNK N   1      34.631  17.054   9.339  0.00  0.00    -0.116 N 
HETATM   16  O   UNK N   1      35.237  18.083   9.385  0.00  0.00    -0.532 OA
HETATM   17  O   UNK N   1      33.396  17.049   8.886  0.00  0.00    -0.532 OA
ENDBRANCH  11  15
ENDBRANCH   1   9
BRANCH   4  18
HETATM   18  C   UNK N   1      35.645  12.765  16.462  0.00  0.00     0.297 C 
HETATM   19  O   UNK N   1      34.861  13.265  17.253  0.00  0.00    -0.259 OA
BRANCH  18  20
HETATM   20  O   UNK N   1      36.210  11.580  16.817  0.00  0.00    -0.318 OA
BRANCH  20  21
HETATM   21  C   UNK N   1      35.553  10.474  17.286  0.00  0.00     0.174 C 
HETATM   22  C   UNK N   1      34.677   9.900  16.195  0.00  0.00     0.034 C 
ENDBRANCH  20  21
ENDBRANCH  18  20
ENDBRANCH   4  18
TORSDOF 5
ENDMDL
MODEL 5
REMARK VINA RESULT:      -6.1     11.764     14.310
REMARK  5 active torsions:
REMARK  status: ('A' for Active; 'I' for Inactive)
REMARK    1  A    between atoms: N_2  and  C_4 
REMARK    2  A    between atoms: C_7  and  N_10 
REMARK    3  A    between atoms: C_13  and  C_18 
REMARK    4  A    between atoms: C_18  and  O_20 
REMARK    5  A    between atoms: O_20  and  C_21 
ROOT
HETATM    1  N   UNK N   1      30.872  16.738   6.571  0.00  0.00    -0.260 N 
HETATM    2  C   UNK N   1      29.756  17.478   6.777  0.00  0.00     0.049 A 
HETATM    3  C   UNK N   1      29.429  18.110   8.087  0.00  0.00     0.071 C 
HETATM    4  C   UNK N   1      29.052  17.566   5.569  0.00  0.00     0.087 A 
HETATM    5  C   UNK N   1      29.845  16.852   4.670  0.00  0.00     0.041 A 
HETATM    6  N   UNK N   1      30.927  16.368   5.303  0.00  0.00    -0.297 N 
ATOM      7  HN  UNK N   1      31.666  15.810   4.876  1.00  0.00     0.187 HD
HETATM    8  C   UNK N   1      29.598  16.626   3.218  0.00  0.00     0.071 C 
ENDROOT
BRANCH   1   9
HETATM    9  C   UNK N   1      31.898  16.379   7.518  0.00  0.00     0.059 A 
HETATM   10  C   UNK N   1      32.903  17.305   7.814  0.00  0.00     0.067 A 
HETATM   11  C   UNK N   1      33.903  17.010   8.745  0.00  0.00     0.105 A 
HETATM   12  C   UNK N   1      33.907  15.757   9.378  0.00  0.00     0.036 A 
HETATM   13  C   UNK N   1      32.919  14.817   9.077  0.00  0.00     0.005 A 
HETATM   14  C   UNK N   1      31.915  15.129   8.157  0.00  0.00     0.031 A 
BRANCH  11  15
HETATM   15  N   UNK N   1      34.887  17.988   9.054  0.00  0.00    -0.116 N 
HETATM   16  O   UNK N   1      35.599  17.849  10.002  0.00  0.00    -0.532 OA
HETATM   17  O   UNK N   1      34.999  19.069   8.311  0.00  0.00    -0.532 OA
ENDBRANCH  11  15
ENDBRANCH   1   9
BRANCH   4  18
HETATM   18  C   UNK N   1      27.767  18.258   5.184  0.00  0.00     0.297 C 
HETATM   19  O   UNK N   1      26.716  17.722   5.499  0.00  0.00    -0.259 OA
BRANCH  18  20
HETATM   20  O   UNK N   1      27.680  19.430   4.498  0.00  0.00    -0.318 OA
BRANCH  20  21
HETATM   21  C   UNK N   1      26.951  20.531   4.859  0.00  0.00     0.174 C 
HETATM   22  C   UNK N   1      27.531  21.138   6.117  0.00  0.00     0.034 C 
ENDBRANCH  20  21
ENDBRANCH  18  20
ENDBRANCH   4  18
TORSDOF 5
ENDMDL
MODEL 6
REMARK VINA RESULT:      -6.0     20.183     23.780
REMARK  5 active torsions:
REMARK  status: ('A' for Active; 'I' for Inactive)
REMARK    1  A    between atoms: N_2  and  C_4 
REMARK    2  A    between atoms: C_7  and  N_10 
REMARK    3  A    between atoms: C_13  and  C_18 
REMARK    4  A    between atoms: C_18  and  O_20 
REMARK    5  A    between atoms: O_20  and  C_21 
ROOT
HETATM    1  N   UNK N   1      35.674  13.028  13.375  0.00  0.00    -0.260 N 
HETATM    2  C   UNK N   1      36.009  13.348  14.649  0.00  0.00     0.049 A 
HETATM    3  C   UNK N   1      36.965  14.440  14.988  0.00  0.00     0.071 C 
HETATM    4  C   UNK N   1      35.275  12.533  15.520  0.00  0.00     0.087 A 
HETATM    5  C   UNK N   1      34.495  11.753  14.665  0.00  0.00     0.041 A 
HETATM    6  N   UNK N   1      34.760  12.073  13.388  0.00  0.00    -0.297 N 
ATOM      7  HN  UNK N   1      34.327  11.651  12.566  1.00  0.00     0.187 HD
HETATM    8  C   UNK N   1      33.497  10.711  15.040  0.00  0.00     0.071 C 
ENDROOT
BRANCH   1   9
HETATM    9  C   UNK N   1      36.169  13.597  12.147  0.00  0.00     0.059 A 
HETATM   10  C   UNK N   1      35.500  14.689  11.585  0.00  0.00     0.067 A 
HETATM   11  C   UNK N   1      35.959  15.289  10.410  0.00  0.00     0.105 A 
HETATM   12  C   UNK N   1      37.101  14.775   9.775  0.00  0.00     0.036 A 
HETATM   13  C   UNK N   1      37.769  13.675  10.317  0.00  0.00     0.005 A 
HETATM   14  C   UNK N   1      37.310  13.094  11.502  0.00  0.00     0.031 A 
BRANCH  11  15
HETATM   15  N   UNK N   1      35.279  16.421   9.886  0.00  0.00    -0.116 N 
HETATM   16  O   UNK N   1      34.444  16.287   9.043  0.00  0.00    -0.532 OA
HETATM   17  O   UNK N   1      35.587  17.629  10.308  0.00  0.00    -0.532 OA
ENDBRANCH  11  15
ENDBRANCH   1   9
BRANCH   4  18
HETATM   18  C   UNK N   1      35.214  12.441  17.025  0.00  0.00     0.297 C 
HETATM   19  O   UNK N   1      34.736  13.386  17.633  0.00  0.00    -0.259 OA
BRANCH  18  20
HETATM   20  O   UNK N   1      35.662  11.392  17.768  0.00  0.00    -0.318 OA
BRANCH  20  21
HETATM   21  C   UNK N   1      35.097  10.910  18.917  0.00  0.00     0.174 C 
HETATM   22  C   UNK N   1      36.028  11.153  20.084  0.00  0.00     0.034 C 
ENDBRANCH  20  21
ENDBRANCH  18  20
ENDBRANCH   4  18
TORSDOF 5
ENDMDL
MODEL 7
REMARK VINA RESULT:      -6.0     13.579     15.898
REMARK  5 active torsions:
REMARK  status: ('A' for Active; 'I' for Inactive)
REMARK    1  A    between atoms: N_2  and  C_4 
REMARK    2  A    between atoms: C_7  and  N_10 
REMARK    3  A    between atoms: C_13  and  C_18 
REMARK    4  A    between atoms: C_18  and  O_20 
REMARK    5  A    between atoms: O_20  and  C_21 
ROOT
HETATM    1  N   UNK N   1      21.977  17.458   5.901  0.00  0.00    -0.260 N 
HETATM    2  C   UNK N   1      22.150  16.124   6.065  0.00  0.00     0.049 A 
HETATM    3  C   UNK N   1      23.117  15.324   5.261  0.00  0.00     0.071 C 
HETATM    4  C   UNK N   1      21.329  15.696   7.117  0.00  0.00     0.087 A 
HETATM    5  C   UNK N   1      20.702  16.867   7.545  0.00  0.00     0.041 A 
HETATM    6  N   UNK N   1      21.111  17.903   6.796  0.00  0.00    -0.297 N 
ATOM      7  HN  UNK N   1      20.805  18.871   6.900  1.00  0.00     0.187 HD
HETATM    8  C   UNK N   1      19.725  17.020   8.661  0.00  0.00     0.071 C 
ENDROOT
BRANCH   1   9
HETATM    9  C   UNK N   1      22.608  18.333   4.946  0.00  0.00     0.059 A 
HETATM   10  C   UNK N   1      21.817  18.987   3.996  0.00  0.00     0.067 A 
HETATM   11  C   UNK N   1      22.382  19.865   3.067  0.00  0.00     0.105 A 
HETATM   12  C   UNK N   1      23.770  20.079   3.078  0.00  0.00     0.036 A 
HETATM   13  C   UNK N   1      24.574  19.419   4.011  0.00  0.00     0.005 A 
HETATM   14  C   UNK N   1      23.995  18.556   4.945  0.00  0.00     0.031 A 
BRANCH  11  15
HETATM   15  N   UNK N   1      21.545  20.543   2.141  0.00  0.00    -0.116 N 
HETATM   16  O   UNK N   1      20.491  20.984   2.490  0.00  0.00    -0.532 OA
HETATM   17  O   UNK N   1      21.914  20.664   0.884  0.00  0.00    -0.532 OA
ENDBRANCH  11  15
ENDBRANCH   1   9
BRANCH   4  18
HETATM   18  C   UNK N   1      21.108  14.346   7.755  0.00  0.00     0.297 C 
HETATM   19  O   UNK N   1      20.288  13.601   7.241  0.00  0.00    -0.259 OA
BRANCH  18  20
HETATM   20  O   UNK N   1      21.739  13.891   8.872  0.00  0.00    -0.318 OA
BRANCH  20  21
HETATM   21  C   UNK N   1      21.147  13.537  10.054  0.00  0.00     0.174 C 
HETATM   22  C   UNK N   1      21.912  12.396  10.687  0.00  0.00     0.034 C 
ENDBRANCH  20  21
ENDBRANCH  18  20
ENDBRANCH   4  18
TORSDOF 5
ENDMDL
MODEL 8
REMARK VINA RESULT:      -6.0     13.017     15.609
REMARK  5 active torsions:
REMARK  status: ('A' for Active; 'I' for Inactive)
REMARK    1  A    between atoms: N_2  and  C_4 
REMARK    2  A    between atoms: C_7  and  N_10 
REMARK    3  A    between atoms: C_13  and  C_18 
REMARK    4  A    between atoms: C_18  and  O_20 
REMARK    5  A    between atoms: O_20  and  C_21 
ROOT
HETATM    1  N   UNK N   1      31.154  16.523   8.198  0.00  0.00    -0.260 N 
HETATM    2  C   UNK N   1      30.644  16.713   6.957  0.00  0.00     0.049 A 
HETATM    3  C   UNK N   1      31.290  16.184   5.722  0.00  0.00     0.071 C 
HETATM    4  C   UNK N   1      29.435  17.412   7.076  0.00  0.00     0.087 A 
HETATM    5  C   UNK N   1      29.286  17.585   8.453  0.00  0.00     0.041 A 
HETATM    6  N   UNK N   1      30.333  17.042   9.096  0.00  0.00    -0.297 N 
ATOM      7  HN  UNK N   1      30.471  17.032  10.106  1.00  0.00     0.187 HD
HETATM    8  C   UNK N   1      28.162  18.252   9.170  0.00  0.00     0.071 C 
ENDROOT
BRANCH   1   9
HETATM    9  C   UNK N   1      32.375  15.856   8.574  0.00  0.00     0.059 A 
HETATM   10  C   UNK N   1      33.420  16.608   9.120  0.00  0.00     0.067 A 
HETATM   11  C   UNK N   1      34.612  16.000   9.523  0.00  0.00     0.105 A 
HETATM   12  C   UNK N   1      34.768  14.615   9.359  0.00  0.00     0.036 A 
HETATM   13  C   UNK N   1      33.738  13.855   8.799  0.00  0.00     0.005 A 
HETATM   14  C   UNK N   1      32.545  14.472   8.415  0.00  0.00     0.031 A 
BRANCH  11  15
HETATM   15  N   UNK N   1      35.639  16.787  10.110  0.00  0.00    -0.116 N 
HETATM   16  O   UNK N   1      35.636  17.975   9.985  0.00  0.00    -0.532 OA
HETATM   17  O   UNK N   1      36.617  16.207  10.773  0.00  0.00    -0.532 OA
ENDBRANCH  11  15
ENDBRANCH   1   9
BRANCH   4  18
HETATM   18  C   UNK N   1      28.427  17.889   6.058  0.00  0.00     0.297 C 
HETATM   19  O   UNK N   1      27.743  17.047   5.498  0.00  0.00    -0.259 OA
BRANCH  18  20
HETATM   20  O   UNK N   1      28.224  19.186   5.701  0.00  0.00    -0.318 OA
BRANCH  20  21
HETATM   21  C   UNK N   1      27.114  19.940   5.970  0.00  0.00     0.174 C 
HETATM   22  C   UNK N   1      27.525  21.365   6.266  0.00  0.00     0.034 C 
ENDBRANCH  20  21
ENDBRANCH  18  20
ENDBRANCH   4  18
TORSDOF 5
ENDMDL
MODEL 9
REMARK VINA RESULT:      -6.0      2.953      4.030
REMARK  5 active torsions:
REMARK  status: ('A' for Active; 'I' for Inactive)
REMARK    1  A    between atoms: N_2  and  C_4 
REMARK    2  A    between atoms: C_7  and  N_10 
REMARK    3  A    between atoms: C_13  and  C_18 
REMARK    4  A    between atoms: C_18  and  O_20 
REMARK    5  A    between atoms: O_20  and  C_21 
ROOT
HETATM    1  N   UNK N   1      28.240  22.539  -6.287  0.00  0.00    -0.260 N 
HETATM    2  C   UNK N   1      27.469  22.130  -7.324  0.00  0.00     0.049 A 
HETATM    3  C   UNK N   1      27.747  20.891  -8.105  0.00  0.00     0.071 C 
HETATM    4  C   UNK N   1      26.397  23.022  -7.460  0.00  0.00     0.087 A 
HETATM    5  C   UNK N   1      26.599  23.942  -6.430  0.00  0.00     0.041 A 
HETATM    6  N   UNK N   1      27.712  23.625  -5.748  0.00  0.00    -0.297 N 
ATOM      7  HN  UNK N   1      28.086  24.135  -4.948  1.00  0.00     0.187 HD
HETATM    8  C   UNK N   1      25.750  25.115  -6.077  0.00  0.00     0.071 C 
ENDROOT
BRANCH   1   9
HETATM    9  C   UNK N   1      29.445  21.938  -5.774  0.00  0.00     0.059 A 
HETATM   10  C   UNK N   1      29.890  22.290  -4.496  0.00  0.00     0.067 A 
HETATM   11  C   UNK N   1      31.038  21.713  -3.947  0.00  0.00     0.105 A 
HETATM   12  C   UNK N   1      31.766  20.779  -4.701  0.00  0.00     0.036 A 
HETATM   13  C   UNK N   1      31.343  20.432  -5.986  0.00  0.00     0.005 A 
HETATM   14  C   UNK N   1      30.184  21.003  -6.517  0.00  0.00     0.031 A 
BRANCH  11  15
HETATM   15  N   UNK N   1      31.440  22.062  -2.631  0.00  0.00    -0.116 N 
HETATM   16  O   UNK N   1      32.420  21.577  -2.150  0.00  0.00    -0.532 OA
HETATM   17  O   UNK N   1      30.718  22.903  -1.920  0.00  0.00    -0.532 OA
ENDBRANCH  11  15
ENDBRANCH   1   9
BRANCH   4  18
HETATM   18  C   UNK N   1      25.226  23.075  -8.411  0.00  0.00     0.297 C 
HETATM   19  O   UNK N   1      24.246  22.397  -8.144  0.00  0.00    -0.259 OA
BRANCH  18  20
HETATM   20  O   UNK N   1      25.175  23.808  -9.556  0.00  0.00    -0.318 OA
BRANCH  20  21
HETATM   21  C   UNK N   1      26.056  24.784  -9.936  0.00  0.00     0.174 C 
HETATM   22  C   UNK N   1      25.307  26.071 -10.205  0.00  0.00     0.034 C 
ENDBRANCH  20  21
ENDBRANCH  18  20
ENDBRANCH   4  18
TORSDOF 5
ENDMDL
