REMARK  5 active torsions:
REMARK  status: ('A' for Active; 'I' for Inactive)
REMARK    1  A    between atoms: N_2  and  C_4 
REMARK    2  A    between atoms: C_7  and  N_10 
REMARK    3  A    between atoms: C_13  and  C_18 
REMARK    4  A    between atoms: C_18  and  O_20 
REMARK    5  A    between atoms: O_20  and  C_21 
ROOT
HETATM    1  N   UNK N   1      -0.949   0.283  -0.017  0.00  0.00    -0.260 N 
HETATM    2  C   UNK N   1       0.074  -0.603   0.057  0.00  0.00     0.049 A 
HETATM    3  C   UNK N   1       1.499  -0.190   0.200  0.00  0.00     0.071 C 
HETATM    4  C   UNK N   1      -0.458  -1.899   0.032  0.00  0.00     0.087 A 
HETATM    5  C   UNK N   1      -1.836  -1.690  -0.040  0.00  0.00     0.041 A 
HETATM    6  N   UNK N   1      -2.096  -0.373  -0.069  0.00  0.00    -0.297 N 
ATOM      7  HN  UNK N   1      -3.023   0.050  -0.122  1.00  0.00     0.187 HD
HETATM    8  C   UNK N   1      -2.912  -2.721  -0.075  0.00  0.00     0.071 C 
ENDROOT
BRANCH   1   9
HETATM    9  C   UNK N   1      -0.890   1.723  -0.024  0.00  0.00     0.059 A 
HETATM   10  C   UNK N   1      -2.080   2.453   0.053  0.00  0.00     0.067 A 
HETATM   11  C   UNK N   1      -2.069   3.850   0.076  0.00  0.00     0.105 A 
HETATM   12  C   UNK N   1      -0.843   4.530   0.002  0.00  0.00     0.036 A 
HETATM   13  C   UNK N   1       0.352   3.813  -0.093  0.00  0.00     0.005 A 
HETATM   14  C   UNK N   1       0.329   2.416  -0.098  0.00  0.00     0.031 A 
BRANCH  11  15
HETATM   15  N   UNK N   1      -3.293   4.561   0.195  0.00  0.00    -0.116 N 
HETATM   16  O   UNK N   1      -3.293   5.752   0.287  0.00  0.00    -0.532 OA
HETATM   17  O   UNK N   1      -4.435   3.908   0.234  0.00  0.00    -0.532 OA
ENDBRANCH  11  15
ENDBRANCH   1   9
BRANCH   4  18
HETATM   18  C   UNK N   1       0.179  -3.266   0.098  0.00  0.00     0.297 C 
HETATM   19  O   UNK N   1      -0.560  -4.233   0.194  0.00  0.00    -0.259 OA
BRANCH  18  20
HETATM   20  O   UNK N   1       1.517  -3.512   0.073  0.00  0.00    -0.318 OA
BRANCH  20  21
HETATM   21  C   UNK N   1       2.490  -2.670  -0.393  0.00  0.00     0.174 C 
HETATM   22  C   UNK N   1       3.854  -3.228  -0.052  0.00  0.00     0.034 C 
ENDBRANCH  20  21
ENDBRANCH  18  20
ENDBRANCH   4  18
TORSDOF 5
