MODEL 1
REMARK VINA RESULT:      -6.7      0.000      0.000
REMARK  1 active torsions:
REMARK  status: ('A' for Active; 'I' for Inactive)
REMARK       I    between atoms: N_3  and  C_14 
REMARK    1  A    between atoms: C_8  and  N_11 
REMARK       I    between atoms: C_14  and  N_17 
ROOT
HETATM    1  N   UNK N   1      31.568  17.830   8.745  0.00  0.00    -0.277 N 
ATOM      2  HN  UNK N   1      31.939  18.125   9.648  1.00  0.00     0.188 HD
HETATM    3  N   UNK N   1      30.293  17.616   8.452  0.00  0.00    -0.097 N 
HETATM    4  C   UNK N   1      30.165  17.234   7.155  0.00  0.00     0.148 A 
HETATM    5  C   UNK N   1      31.917  16.901   5.356  0.00  0.00     0.015 A 
HETATM    6  C   UNK N   1      33.308  16.983   5.143  0.00  0.00     0.003 A 
HETATM    7  C   UNK N   1      34.176  17.370   6.192  0.00  0.00     0.038 A 
HETATM    8  C   UNK N   1      33.660  17.681   7.471  0.00  0.00     0.131 A 
HETATM    9  C   UNK N   1      32.279  17.587   7.637  0.00  0.00     0.093 A 
HETATM   10  C   UNK N   1      31.441  17.214   6.625  0.00  0.00     0.013 A 
HETATM   11  C   UNK N   1      29.238  17.780   9.408  0.00  0.00     0.690 C 
HETATM   12  N   UNK N   1      29.512  18.149  10.606  0.00  0.00    -0.233 N 
ATOM     13  HN  UNK N   1      30.479  18.325  10.877  1.00  0.00     0.174 HD
HETATM   14  N   UNK N   1      27.896  17.539   9.041  0.00  0.00    -0.233 N 
HETATM   15  H   UNK N   1      28.787  18.262  11.263  0.00  0.00     0.174 HD
HETATM   16  H   UNK N   1      27.680  17.256   8.124  0.00  0.00     0.174 HD
HETATM   17  H   UNK N   1      27.177  17.654   9.704  0.00  0.00     0.174 HD
ENDROOT
BRANCH   8  18
HETATM   18  N   UNK N   1      34.516  18.074   8.542  0.00  0.00    -0.113 N 
HETATM   19  O   UNK N   1      34.584  17.412   9.532  0.00  0.00    -0.532 OA
HETATM   20  O   UNK N   1      35.242  19.171   8.449  0.00  0.00    -0.532 OA
ENDBRANCH   8  18
TORSDOF 1
ENDMDL
MODEL 2
REMARK VINA RESULT:      -5.9     11.138     12.089
REMARK  1 active torsions:
REMARK  status: ('A' for Active; 'I' for Inactive)
REMARK       I    between atoms: N_3  and  C_14 
REMARK    1  A    between atoms: C_8  and  N_11 
REMARK       I    between atoms: C_14  and  N_17 
ROOT
HETATM    1  N   UNK N   1      20.684  14.140   9.794  0.00  0.00    -0.277 N 
ATOM      2  HN  UNK N   1      19.902  14.215  10.445  1.00  0.00     0.188 HD
HETATM    3  N   UNK N   1      21.632  13.213   9.810  0.00  0.00    -0.097 N 
HETATM    4  C   UNK N   1      22.511  13.421   8.797  0.00  0.00     0.148 A 
HETATM    5  C   UNK N   1      22.573  15.219   7.012  0.00  0.00     0.015 A 
HETATM    6  C   UNK N   1      21.869  16.357   6.569  0.00  0.00     0.003 A 
HETATM    7  C   UNK N   1      20.698  16.786   7.239  0.00  0.00     0.038 A 
HETATM    8  C   UNK N   1      20.217  16.079   8.364  0.00  0.00     0.131 A 
HETATM    9  C   UNK N   1      20.943  14.959   8.768  0.00  0.00     0.093 A 
HETATM   10  C   UNK N   1      22.073  14.544   8.123  0.00  0.00     0.013 A 
HETATM   11  C   UNK N   1      21.673  12.161  10.783  0.00  0.00     0.690 C 
HETATM   12  N   UNK N   1      20.767  12.090  11.688  0.00  0.00    -0.233 N 
ATOM     13  HN  UNK N   1      20.018  12.782  11.715  1.00  0.00     0.174 HD
HETATM   14  N   UNK N   1      22.706  11.199  10.752  0.00  0.00    -0.233 N 
HETATM   15  H   UNK N   1      20.795  11.368  12.356  0.00  0.00     0.174 HD
HETATM   16  H   UNK N   1      23.404  11.248  10.060  0.00  0.00     0.174 HD
HETATM   17  H   UNK N   1      22.728  10.480  11.423  0.00  0.00     0.174 HD
ENDROOT
BRANCH   8  18
HETATM   18  N   UNK N   1      19.039  16.493   9.054  0.00  0.00    -0.113 N 
HETATM   19  O   UNK N   1      18.244  15.687   9.426  0.00  0.00    -0.532 OA
HETATM   20  O   UNK N   1      18.817  17.772   9.287  0.00  0.00    -0.532 OA
ENDBRANCH   8  18
TORSDOF 1
ENDMDL
MODEL 3
REMARK VINA RESULT:      -5.8      3.003      4.468
REMARK  1 active torsions:
REMARK  status: ('A' for Active; 'I' for Inactive)
REMARK       I    between atoms: N_3  and  C_14 
REMARK    1  A    between atoms: C_8  and  N_11 
REMARK       I    between atoms: C_14  and  N_17 
ROOT
HETATM    1  N   UNK N   1      31.351  16.389   9.138  0.00  0.00    -0.277 N 
ATOM      2  HN  UNK N   1      31.129  16.525  10.124  1.00  0.00     0.188 HD
HETATM    3  N   UNK N   1      32.387  15.719   8.652  0.00  0.00    -0.097 N 
HETATM    4  C   UNK N   1      32.368  15.742   7.294  0.00  0.00     0.148 A 
HETATM    5  C   UNK N   1      30.732  16.820   5.688  0.00  0.00     0.015 A 
HETATM    6  C   UNK N   1      29.551  17.589   5.668  0.00  0.00     0.003 A 
HETATM    7  C   UNK N   1      28.928  17.984   6.877  0.00  0.00     0.038 A 
HETATM    8  C   UNK N   1      29.482  17.613   8.123  0.00  0.00     0.131 A 
HETATM    9  C   UNK N   1      30.651  16.853   8.096  0.00  0.00     0.093 A 
HETATM   10  C   UNK N   1      31.253  16.471   6.931  0.00  0.00     0.013 A 
HETATM   11  C   UNK N   1      33.360  15.079   9.488  0.00  0.00     0.690 C 
HETATM   12  N   UNK N   1      33.247  15.142  10.764  0.00  0.00    -0.233 N 
ATOM     13  HN  UNK N   1      32.466  15.646  11.183  1.00  0.00     0.174 HD
HETATM   14  N   UNK N   1      34.444  14.378   8.916  0.00  0.00    -0.233 N 
HETATM   15  H   UNK N   1      33.915  14.702  11.339  0.00  0.00     0.174 HD
HETATM   16  H   UNK N   1      34.536  14.327   7.938  0.00  0.00     0.174 HD
HETATM   17  H   UNK N   1      35.108  13.942   9.497  0.00  0.00     0.174 HD
ENDROOT
BRANCH   8  18
HETATM   18  N   UNK N   1      28.871  18.000   9.352  0.00  0.00    -0.113 N 
HETATM   19  O   UNK N   1      27.752  17.673   9.597  0.00  0.00    -0.532 OA
HETATM   20  O   UNK N   1      29.538  18.724  10.230  0.00  0.00    -0.532 OA
ENDBRANCH   8  18
TORSDOF 1
ENDMDL
MODEL 4
REMARK VINA RESULT:      -5.8      9.735     10.450
REMARK  1 active torsions:
REMARK  status: ('A' for Active; 'I' for Inactive)
REMARK       I    between atoms: N_3  and  C_14 
REMARK    1  A    between atoms: C_8  and  N_11 
REMARK       I    between atoms: C_14  and  N_17 
ROOT
HETATM    1  N   UNK N   1      35.257  13.291  16.315  0.00  0.00    -0.277 N 
ATOM      2  HN  UNK N   1      35.382  14.278  16.089  1.00  0.00     0.188 HD
HETATM    3  N   UNK N   1      35.176  12.769  17.530  0.00  0.00    -0.097 N 
HETATM    4  C   UNK N   1      35.010  11.423  17.454  0.00  0.00     0.148 A 
HETATM    5  C   UNK N   1      34.849   9.894  15.440  0.00  0.00     0.015 A 
HETATM    6  C   UNK N   1      34.872   9.921  14.031  0.00  0.00     0.003 A 
HETATM    7  C   UNK N   1      35.032  11.145  13.336  0.00  0.00     0.038 A 
HETATM    8  C   UNK N   1      35.173  12.359  14.047  0.00  0.00     0.131 A 
HETATM    9  C   UNK N   1      35.145  12.286  15.439  0.00  0.00     0.093 A 
HETATM   10  C   UNK N   1      34.990  11.106  16.110  0.00  0.00     0.013 A 
HETATM   11  C   UNK N   1      35.257  13.559  18.723  0.00  0.00     0.690 C 
HETATM   12  N   UNK N   1      35.415  14.829  18.639  0.00  0.00    -0.233 N 
ATOM     13  HN  UNK N   1      35.483  15.276  17.725  1.00  0.00     0.174 HD
HETATM   14  N   UNK N   1      35.164  12.950  19.993  0.00  0.00    -0.233 N 
HETATM   15  H   UNK N   1      35.471  15.373  19.459  0.00  0.00     0.174 HD
HETATM   16  H   UNK N   1      35.043  11.975  20.064  0.00  0.00     0.174 HD
HETATM   17  H   UNK N   1      35.221  13.499  20.808  0.00  0.00     0.174 HD
ENDROOT
BRANCH   8  18
HETATM   18  N   UNK N   1      35.336  13.602  13.367  0.00  0.00    -0.113 N 
HETATM   19  O   UNK N   1      34.618  13.891  12.461  0.00  0.00    -0.532 OA
HETATM   20  O   UNK N   1      36.282  14.444  13.734  0.00  0.00    -0.532 OA
ENDBRANCH   8  18
TORSDOF 1
ENDMDL
MODEL 5
REMARK VINA RESULT:      -5.7      2.845      3.303
REMARK  1 active torsions:
REMARK  status: ('A' for Active; 'I' for Inactive)
REMARK       I    between atoms: N_3  and  C_14 
REMARK    1  A    between atoms: C_8  and  N_11 
REMARK       I    between atoms: C_14  and  N_17 
ROOT
HETATM    1  N   UNK N   1      30.128  17.261   6.558  0.00  0.00    -0.277 N 
ATOM      2  HN  UNK N   1      29.599  16.980   5.732  1.00  0.00     0.188 HD
HETATM    3  N   UNK N   1      29.620  17.622   7.729  0.00  0.00    -0.097 N 
HETATM    4  C   UNK N   1      30.616  17.930   8.599  0.00  0.00     0.148 A 
HETATM    5  C   UNK N   1      33.131  17.907   8.299  0.00  0.00     0.015 A 
HETATM    6  C   UNK N   1      34.125  17.628   7.339  0.00  0.00     0.003 A 
HETATM    7  C   UNK N   1      33.768  17.200   6.037  0.00  0.00     0.038 A 
HETATM    8  C   UNK N   1      32.409  17.046   5.681  0.00  0.00     0.131 A 
HETATM    9  C   UNK N   1      31.460  17.333   6.661  0.00  0.00     0.093 A 
HETATM   10  C   UNK N   1      31.803  17.746   7.917  0.00  0.00     0.013 A 
HETATM   11  C   UNK N   1      28.210  17.663   7.985  0.00  0.00     0.690 C 
HETATM   12  N   UNK N   1      27.382  17.342   7.059  0.00  0.00    -0.233 N 
ATOM     13  HN  UNK N   1      27.727  17.058   6.142  1.00  0.00     0.174 HD
HETATM   14  N   UNK N   1      27.725  18.055   9.251  0.00  0.00    -0.233 N 
HETATM   15  H   UNK N   1      26.414  17.370   7.235  0.00  0.00     0.174 HD
HETATM   16  H   UNK N   1      28.355  18.302   9.965  0.00  0.00     0.174 HD
HETATM   17  H   UNK N   1      26.755  18.081   9.419  0.00  0.00     0.174 HD
ENDROOT
BRANCH   8  18
HETATM   18  N   UNK N   1      32.027  16.616   4.375  0.00  0.00    -0.113 N 
HETATM   19  O   UNK N   1      31.320  15.667   4.237  0.00  0.00    -0.532 OA
HETATM   20  O   UNK N   1      32.453  17.263   3.308  0.00  0.00    -0.532 OA
ENDBRANCH   8  18
TORSDOF 1
ENDMDL
MODEL 6
REMARK VINA RESULT:      -5.5     10.306     11.422
REMARK  1 active torsions:
REMARK  status: ('A' for Active; 'I' for Inactive)
REMARK       I    between atoms: N_3  and  C_14 
REMARK    1  A    between atoms: C_8  and  N_11 
REMARK       I    between atoms: C_14  and  N_17 
ROOT
HETATM    1  N   UNK N   1      35.946  13.160  15.987  0.00  0.00    -0.277 N 
ATOM      2  HN  UNK N   1      36.107  14.082  16.392  1.00  0.00     0.188 HD
HETATM    3  N   UNK N   1      36.082  12.830  14.710  0.00  0.00    -0.097 N 
HETATM    4  C   UNK N   1      35.784  11.518  14.529  0.00  0.00     0.148 A 
HETATM    5  C   UNK N   1      35.057   9.749  16.190  0.00  0.00     0.015 A 
HETATM    6  C   UNK N   1      34.778   9.571  17.560  0.00  0.00     0.003 A 
HETATM    7  C   UNK N   1      34.894  10.655  18.465  0.00  0.00     0.038 A 
HETATM    8  C   UNK N   1      35.292  11.931  18.007  0.00  0.00     0.131 A 
HETATM    9  C   UNK N   1      35.558  12.062  16.645  0.00  0.00     0.093 A 
HETATM   10  C   UNK N   1      35.446  11.018  15.771  0.00  0.00     0.013 A 
HETATM   11  C   UNK N   1      36.489  13.767  13.704  0.00  0.00     0.690 C 
HETATM   12  N   UNK N   1      36.738  14.983  14.026  0.00  0.00    -0.233 N 
ATOM     13  HN  UNK N   1      36.647  15.283  14.997  1.00  0.00     0.174 HD
HETATM   14  N   UNK N   1      36.617  13.360  12.358  0.00  0.00    -0.233 N 
HETATM   15  H   UNK N   1      37.018  15.627  13.335  0.00  0.00     0.174 HD
HETATM   16  H   UNK N   1      36.427  12.428  12.105  0.00  0.00     0.174 HD
HETATM   17  H   UNK N   1      36.897  14.009  11.673  0.00  0.00     0.174 HD
ENDROOT
BRANCH   8  18
HETATM   18  N   UNK N   1      35.416  13.036  18.901  0.00  0.00    -0.113 N 
HETATM   19  O   UNK N   1      35.668  12.853  20.052  0.00  0.00    -0.532 OA
HETATM   20  O   UNK N   1      35.252  14.269  18.465  0.00  0.00    -0.532 OA
ENDBRANCH   8  18
TORSDOF 1
ENDMDL
MODEL 7
REMARK VINA RESULT:      -5.4      8.869     11.095
REMARK  1 active torsions:
REMARK  status: ('A' for Active; 'I' for Inactive)
REMARK       I    between atoms: N_3  and  C_14 
REMARK    1  A    between atoms: C_8  and  N_11 
REMARK       I    between atoms: C_14  and  N_17 
ROOT
HETATM    1  N   UNK N   1      23.056  14.145   7.884  0.00  0.00    -0.277 N 
ATOM      2  HN  UNK N   1      22.348  14.620   7.324  1.00  0.00     0.188 HD
HETATM    3  N   UNK N   1      24.357  14.099   7.630  0.00  0.00    -0.097 N 
HETATM    4  C   UNK N   1      24.998  13.381   8.586  0.00  0.00     0.148 A 
HETATM    5  C   UNK N   1      24.100  12.202  10.642  0.00  0.00     0.015 A 
HETATM    6  C   UNK N   1      22.897  11.952  11.331  0.00  0.00     0.003 A 
HETATM    7  C   UNK N   1      21.668  12.463  10.845  0.00  0.00     0.038 A 
HETATM    8  C   UNK N   1      21.631  13.232   9.660  0.00  0.00     0.131 A 
HETATM    9  C   UNK N   1      22.844  13.455   9.010  0.00  0.00     0.093 A 
HETATM   10  C   UNK N   1      24.030  12.963   9.478  0.00  0.00     0.013 A 
HETATM   11  C   UNK N   1      24.949  14.737   6.491  0.00  0.00     0.690 C 
HETATM   12  N   UNK N   1      24.212  15.387   5.666  0.00  0.00    -0.233 N 
ATOM     13  HN  UNK N   1      23.205  15.449   5.821  1.00  0.00     0.174 HD
HETATM   14  N   UNK N   1      26.341  14.656   6.269  0.00  0.00    -0.233 N 
HETATM   15  H   UNK N   1      24.618  15.825   4.883  0.00  0.00     0.174 HD
HETATM   16  H   UNK N   1      26.912  14.159   6.898  0.00  0.00     0.174 HD
HETATM   17  H   UNK N   1      26.740  15.097   5.485  0.00  0.00     0.174 HD
ENDROOT
BRANCH   8  18
HETATM   18  N   UNK N   1      20.405  13.755   9.153  0.00  0.00    -0.113 N 
HETATM   19  O   UNK N   1      19.520  14.042   9.898  0.00  0.00    -0.532 OA
HETATM   20  O   UNK N   1      20.239  13.928   7.857  0.00  0.00    -0.532 OA
ENDBRANCH   8  18
TORSDOF 1
ENDMDL
MODEL 8
REMARK VINA RESULT:      -5.4      7.243      8.494
REMARK  1 active torsions:
REMARK  status: ('A' for Active; 'I' for Inactive)
REMARK       I    between atoms: N_3  and  C_14 
REMARK    1  A    between atoms: C_8  and  N_11 
REMARK       I    between atoms: C_14  and  N_17 
ROOT
HETATM    1  N   UNK N   1      34.537  13.624  12.130  0.00  0.00    -0.277 N 
ATOM      2  HN  UNK N   1      33.798  13.152  11.609  1.00  0.00     0.188 HD
HETATM    3  N   UNK N   1      35.014  14.837  11.890  0.00  0.00    -0.097 N 
HETATM    4  C   UNK N   1      35.991  15.144  12.781  0.00  0.00     0.148 A 
HETATM    5  C   UNK N   1      36.950  13.799  14.702  0.00  0.00     0.015 A 
HETATM    6  C   UNK N   1      36.820  12.553  15.349  0.00  0.00     0.003 A 
HETATM    7  C   UNK N   1      35.871  11.603  14.898  0.00  0.00     0.038 A 
HETATM    8  C   UNK N   1      35.040  11.890  13.792  0.00  0.00     0.131 A 
HETATM    9  C   UNK N   1      35.203  13.134  13.182  0.00  0.00     0.093 A 
HETATM   10  C   UNK N   1      36.117  14.051  13.616  0.00  0.00     0.013 A 
HETATM   11  C   UNK N   1      34.530  15.666  10.825  0.00  0.00     0.690 C 
HETATM   12  N   UNK N   1      33.596  15.240  10.057  0.00  0.00    -0.233 N 
ATOM     13  HN  UNK N   1      33.198  14.312  10.204  1.00  0.00     0.174 HD
HETATM   14  N   UNK N   1      35.075  16.951  10.615  0.00  0.00    -0.233 N 
HETATM   15  H   UNK N   1      33.263  15.809   9.325  0.00  0.00     0.174 HD
HETATM   16  H   UNK N   1      35.793  17.284  11.201  0.00  0.00     0.174 HD
HETATM   17  H   UNK N   1      34.738  17.515   9.882  0.00  0.00     0.174 HD
ENDROOT
BRANCH   8  18
HETATM   18  N   UNK N   1      34.079  10.948  13.321  0.00  0.00    -0.113 N 
HETATM   19  O   UNK N   1      33.222  10.549  14.047  0.00  0.00    -0.532 OA
HETATM   20  O   UNK N   1      34.127  10.508  12.079  0.00  0.00    -0.532 OA
ENDBRANCH   8  18
TORSDOF 1
ENDMDL
MODEL 9
REMARK VINA RESULT:      -5.3      8.959     10.490
REMARK  1 active torsions:
REMARK  status: ('A' for Active; 'I' for Inactive)
REMARK       I    between atoms: N_3  and  C_14 
REMARK    1  A    between atoms: C_8  and  N_11 
REMARK       I    between atoms: C_14  and  N_17 
ROOT
HETATM    1  N   UNK N   1      21.906  17.797   3.903  0.00  0.00    -0.277 N 
ATOM      2  HN  UNK N   1      21.767  16.883   4.334  1.00  0.00     0.188 HD
HETATM    3  N   UNK N   1      20.992  18.506   3.255  0.00  0.00    -0.097 N 
HETATM    4  C   UNK N   1      21.527  19.674   2.815  0.00  0.00     0.148 A 
HETATM    5  C   UNK N   1      23.870  20.606   3.054  0.00  0.00     0.015 A 
HETATM    6  C   UNK N   1      25.130  20.294   3.604  0.00  0.00     0.003 A 
HETATM    7  C   UNK N   1      25.332  19.075   4.297  0.00  0.00     0.038 A 
HETATM    8  C   UNK N   1      24.272  18.153   4.447  0.00  0.00     0.131 A 
HETATM    9  C   UNK N   1      23.043  18.502   3.888  0.00  0.00     0.093 A 
HETATM   10  C   UNK N   1      22.847  19.677   3.220  0.00  0.00     0.013 A 
HETATM   11  C   UNK N   1      19.644  18.055   3.073  0.00  0.00     0.690 C 
HETATM   12  N   UNK N   1      19.279  16.921   3.548  0.00  0.00    -0.233 N 
ATOM     13  HN  UNK N   1      19.948  16.340   4.054  1.00  0.00     0.174 HD
HETATM   14  N   UNK N   1      18.711  18.851   2.374  0.00  0.00    -0.233 N 
HETATM   15  H   UNK N   1      18.353  16.610   3.424  0.00  0.00     0.174 HD
HETATM   16  H   UNK N   1      18.985  19.723   2.007  0.00  0.00     0.174 HD
HETATM   17  H   UNK N   1      17.787  18.535   2.253  0.00  0.00     0.174 HD
ENDROOT
BRANCH   8  18
HETATM   18  N   UNK N   1      24.453  16.920   5.142  0.00  0.00    -0.113 N 
HETATM   19  O   UNK N   1      23.606  16.512   5.875  0.00  0.00    -0.532 OA
HETATM   20  O   UNK N   1      25.558  16.219   4.980  0.00  0.00    -0.532 OA
ENDBRANCH   8  18
TORSDOF 1
ENDMDL
