MODEL 1
REMARK VINA RESULT:      -6.6      0.000      0.000
REMARK  5 active torsions:
REMARK  status: ('A' for Active; 'I' for Inactive)
REMARK    1  A    between atoms: C_1  and  C_7 
REMARK    2  A    between atoms: C_7  and  N_8 
REMARK    3  A    between atoms: C_7  and  N_9 
REMARK    4  A    between atoms: C_13  and  C_14 
REMARK    5  A    between atoms: C_20  and  O_21 
ROOT
HETATM    1  C   UNK N   1      23.922  19.615   3.582  0.00  0.00     0.009 A 
HETATM    2  C   UNK N   1      24.854  20.414   2.863  0.00  0.00     0.017 A 
HETATM    3  C   UNK N   1      26.219  20.435   3.228  0.00  0.00     0.033 A 
HETATM    4  C   UNK N   1      26.606  19.639   4.305  0.00  0.00     0.060 A 
HETATM    5  C   UNK N   1      25.714  18.871   4.982  0.00  0.00     0.061 A 
HETATM    6  C   UNK N   1      24.369  18.829   4.663  0.00  0.00     0.047 A 
HETATM    7  N   UNK N   1      27.829  19.494   4.843  0.00  0.00    -0.340 N 
HETATM    8  N   UNK N   1      26.338  18.207   5.959  0.00  0.00    -0.340 N 
ATOM      9  HN  UNK N   1      25.935  17.553   6.628  1.00  0.00     0.167 HD
HETATM   10  C   UNK N   1      27.631  18.604   5.857  0.00  0.00     0.119 A 
HETATM   11  H   UNK N   1      28.669  19.928   4.569  0.00  0.00     0.167 HD
ENDROOT
BRANCH  10  12
HETATM   12  C   UNK N   1      28.691  18.142   6.780  0.00  0.00     0.044 A 
HETATM   13  C   UNK N   1      29.813  17.473   6.270  0.00  0.00     0.060 A 
HETATM   14  C   UNK N   1      30.841  17.060   7.126  0.00  0.00     0.117 A 
HETATM   15  F   UNK N   1      31.930  16.431   6.625  0.00  0.00    -0.206 F 
HETATM   16  C   UNK N   1      30.751  17.304   8.497  0.00  0.00     0.045 A 
HETATM   17  C   UNK N   1      29.637  17.959   9.018  0.00  0.00     0.040 A 
HETATM   18  C   UNK N   1      28.608  18.381   8.173  0.00  0.00     0.079 A 
BRANCH  18  19
HETATM   19  O   UNK N   1      27.547  19.011   8.709  0.00  0.00    -0.360 OA
ATOM     20  HO  UNK N   1      26.745  19.129   8.216  1.00  0.00     0.217 HD
ENDBRANCH  18  19
ENDBRANCH  10  12
BRANCH   1  21
HETATM   21  C   UNK N   1      22.493  19.595   3.205  0.00  0.00     0.102 C 
BRANCH  21  22
HETATM   22  N   UNK N   1      21.688  18.477   3.517  0.00  0.00    -0.385 N 
HETATM   23  H   UNK N   1      21.269  17.954   2.795  0.00  0.00     0.157 HD
HETATM   24  H   UNK N   1      21.545  18.221   4.456  0.00  0.00     0.157 HD
ENDBRANCH  21  22
BRANCH  21  25
HETATM   25  N   UNK N   1      21.969  20.599   2.602  0.00  0.00    -0.385 N 
HETATM   26  H   UNK N   1      21.383  21.218   3.094  0.00  0.00     0.157 HD
HETATM   27  H   UNK N   1      22.153  20.752   1.647  0.00  0.00     0.157 HD
ENDBRANCH  21  25
ENDBRANCH   1  21
TORSDOF 5
ENDMDL
MODEL 2
REMARK VINA RESULT:      -6.4      4.653      7.086
REMARK  5 active torsions:
REMARK  status: ('A' for Active; 'I' for Inactive)
REMARK    1  A    between atoms: C_1  and  C_7 
REMARK    2  A    between atoms: C_7  and  N_8 
REMARK    3  A    between atoms: C_7  and  N_9 
REMARK    4  A    between atoms: C_13  and  C_14 
REMARK    5  A    between atoms: C_20  and  O_21 
ROOT
HETATM    1  C   UNK N   1      29.402  17.874   7.656  0.00  0.00     0.009 A 
HETATM    2  C   UNK N   1      29.779  17.530   6.328  0.00  0.00     0.017 A 
HETATM    3  C   UNK N   1      31.000  16.868   6.074  0.00  0.00     0.033 A 
HETATM    4  C   UNK N   1      31.805  16.563   7.171  0.00  0.00     0.060 A 
HETATM    5  C   UNK N   1      31.436  16.886   8.437  0.00  0.00     0.061 A 
HETATM    6  C   UNK N   1      30.254  17.543   8.728  0.00  0.00     0.047 A 
HETATM    7  N   UNK N   1      33.001  15.951   7.189  0.00  0.00    -0.340 N 
HETATM    8  N   UNK N   1      32.374  16.482   9.298  0.00  0.00    -0.340 N 
ATOM      9  HN  UNK N   1      32.377  16.579  10.313  1.00  0.00     0.167 HD
HETATM   10  C   UNK N   1      33.323  15.914   8.513  0.00  0.00     0.119 A 
HETATM   11  H   UNK N   1      33.522  15.610   6.426  0.00  0.00     0.167 HD
ENDROOT
BRANCH  10  12
HETATM   12  C   UNK N   1      34.584  15.355   9.050  0.00  0.00     0.044 A 
HETATM   13  C   UNK N   1      35.107  14.173   8.506  0.00  0.00     0.060 A 
HETATM   14  C   UNK N   1      36.316  13.650   8.978  0.00  0.00     0.117 A 
HETATM   15  F   UNK N   1      36.824  12.518   8.436  0.00  0.00    -0.206 F 
HETATM   16  C   UNK N   1      37.007  14.300  10.002  0.00  0.00     0.045 A 
HETATM   17  C   UNK N   1      36.494  15.470  10.558  0.00  0.00     0.040 A 
HETATM   18  C   UNK N   1      35.291  16.004  10.091  0.00  0.00     0.079 A 
BRANCH  18  19
HETATM   19  O   UNK N   1      34.825  17.135  10.649  0.00  0.00    -0.360 OA
ATOM     20  HO  UNK N   1      34.357  17.781  10.134  1.00  0.00     0.217 HD
ENDBRANCH  18  19
ENDBRANCH  10  12
BRANCH   1  21
HETATM   21  C   UNK N   1      28.126  18.571   7.924  0.00  0.00     0.102 C 
BRANCH  21  22
HETATM   22  N   UNK N   1      27.482  19.299   6.900  0.00  0.00    -0.385 N 
HETATM   23  H   UNK N   1      27.393  20.277   6.972  0.00  0.00     0.157 HD
HETATM   24  H   UNK N   1      27.123  18.829   6.113  0.00  0.00     0.157 HD
ENDBRANCH  21  22
BRANCH  21  25
HETATM   25  N   UNK N   1      27.587  18.509   9.087  0.00  0.00    -0.385 N 
HETATM   26  H   UNK N   1      27.022  19.248   9.408  0.00  0.00     0.157 HD
HETATM   27  H   UNK N   1      27.736  17.721   9.658  0.00  0.00     0.157 HD
ENDBRANCH  21  25
ENDBRANCH   1  21
TORSDOF 5
ENDMDL
MODEL 3
REMARK VINA RESULT:      -6.4      6.557      9.567
REMARK  5 active torsions:
REMARK  status: ('A' for Active; 'I' for Inactive)
REMARK    1  A    between atoms: C_1  and  C_7 
REMARK    2  A    between atoms: C_7  and  N_8 
REMARK    3  A    between atoms: C_7  and  N_9 
REMARK    4  A    between atoms: C_13  and  C_14 
REMARK    5  A    between atoms: C_20  and  O_21 
ROOT
HETATM    1  C   UNK N   1      32.246  17.021   7.691  0.00  0.00     0.009 A 
HETATM    2  C   UNK N   1      33.388  17.869   7.645  0.00  0.00     0.017 A 
HETATM    3  C   UNK N   1      34.472  17.669   8.528  0.00  0.00     0.033 A 
HETATM    4  C   UNK N   1      34.376  16.610   9.430  0.00  0.00     0.060 A 
HETATM    5  C   UNK N   1      33.289  15.797   9.463  0.00  0.00     0.061 A 
HETATM    6  C   UNK N   1      32.203  15.965   8.623  0.00  0.00     0.047 A 
HETATM    7  N   UNK N   1      35.260  16.223  10.365  0.00  0.00    -0.340 N 
HETATM    8  N   UNK N   1      33.450  14.866  10.407  0.00  0.00    -0.340 N 
ATOM      9  HN  UNK N   1      32.807  14.116  10.663  1.00  0.00     0.167 HD
HETATM   10  C   UNK N   1      34.662  15.145  10.947  0.00  0.00     0.119 A 
HETATM   11  H   UNK N   1      36.134  16.623  10.579  0.00  0.00     0.167 HD
ENDROOT
BRANCH  10  12
HETATM   12  C   UNK N   1      35.238  14.378  12.074  0.00  0.00     0.044 A 
HETATM   13  C   UNK N   1      36.004  15.040  13.044  0.00  0.00     0.060 A 
HETATM   14  C   UNK N   1      36.528  14.336  14.134  0.00  0.00     0.117 A 
HETATM   15  F   UNK N   1      37.251  14.984  15.077  0.00  0.00    -0.206 F 
HETATM   16  C   UNK N   1      36.297  12.965  14.258  0.00  0.00     0.045 A 
HETATM   17  C   UNK N   1      35.546  12.293  13.296  0.00  0.00     0.040 A 
HETATM   18  C   UNK N   1      35.013  12.986  12.207  0.00  0.00     0.079 A 
BRANCH  18  19
HETATM   19  O   UNK N   1      34.292  12.308  11.297  0.00  0.00    -0.360 OA
ATOM     20  HO  UNK N   1      33.730  12.759  10.679  1.00  0.00     0.217 HD
ENDBRANCH  18  19
ENDBRANCH  10  12
BRANCH   1  21
HETATM   21  C   UNK N   1      31.109  17.231   6.770  0.00  0.00     0.102 C 
BRANCH  21  22
HETATM   22  N   UNK N   1      29.822  17.513   7.279  0.00  0.00    -0.385 N 
HETATM   23  H   UNK N   1      29.649  17.448   8.246  0.00  0.00     0.157 HD
HETATM   24  H   UNK N   1      29.097  17.775   6.666  0.00  0.00     0.157 HD
ENDBRANCH  21  22
BRANCH  21  25
HETATM   25  N   UNK N   1      31.285  17.173   5.501  0.00  0.00    -0.385 N 
HETATM   26  H   UNK N   1      32.191  17.055   5.133  0.00  0.00     0.157 HD
HETATM   27  H   UNK N   1      30.514  17.246   4.892  0.00  0.00     0.157 HD
ENDBRANCH  21  25
ENDBRANCH   1  21
TORSDOF 5
ENDMDL
MODEL 4
REMARK VINA RESULT:      -6.4      7.357      9.123
REMARK  5 active torsions:
REMARK  status: ('A' for Active; 'I' for Inactive)
REMARK    1  A    between atoms: C_1  and  C_7 
REMARK    2  A    between atoms: C_7  and  N_8 
REMARK    3  A    between atoms: C_7  and  N_9 
REMARK    4  A    between atoms: C_13  and  C_14 
REMARK    5  A    between atoms: C_20  and  O_21 
ROOT
HETATM    1  C   UNK N   1      33.358  16.443   4.661  0.00  0.00     0.009 A 
HETATM    2  C   UNK N   1      33.030  17.619   5.392  0.00  0.00     0.017 A 
HETATM    3  C   UNK N   1      33.338  17.724   6.766  0.00  0.00     0.033 A 
HETATM    4  C   UNK N   1      33.978  16.639   7.364  0.00  0.00     0.060 A 
HETATM    5  C   UNK N   1      34.298  15.523   6.660  0.00  0.00     0.061 A 
HETATM    6  C   UNK N   1      34.005  15.377   5.315  0.00  0.00     0.047 A 
HETATM    7  N   UNK N   1      34.364  16.494   8.643  0.00  0.00    -0.340 N 
HETATM    8  N   UNK N   1      34.904  14.642   7.459  0.00  0.00    -0.340 N 
ATOM      9  HN  UNK N   1      35.262  13.719   7.217  1.00  0.00     0.167 HD
HETATM   10  C   UNK N   1      34.934  15.256   8.668  0.00  0.00     0.119 A 
HETATM   11  H   UNK N   1      34.261  17.132   9.386  0.00  0.00     0.167 HD
ENDROOT
BRANCH  10  12
HETATM   12  C   UNK N   1      35.491  14.618   9.882  0.00  0.00     0.044 A 
HETATM   13  C   UNK N   1      36.802  14.120   9.866  0.00  0.00     0.060 A 
HETATM   14  C   UNK N   1      37.356  13.545  11.015  0.00  0.00     0.117 A 
HETATM   15  F   UNK N   1      38.628  13.084  10.997  0.00  0.00    -0.206 F 
HETATM   16  C   UNK N   1      36.602  13.456  12.186  0.00  0.00     0.045 A 
HETATM   17  C   UNK N   1      35.294  13.938  12.213  0.00  0.00     0.040 A 
HETATM   18  C   UNK N   1      34.733  14.519  11.074  0.00  0.00     0.079 A 
BRANCH  18  19
HETATM   19  O   UNK N   1      33.469  14.975  11.135  0.00  0.00    -0.360 OA
ATOM     20  HO  UNK N   1      33.075  15.219  11.963  1.00  0.00     0.217 HD
ENDBRANCH  18  19
ENDBRANCH  10  12
BRANCH   1  21
HETATM   21  C   UNK N   1      33.033  16.330   3.224  0.00  0.00     0.102 C 
BRANCH  21  22
HETATM   22  N   UNK N   1      32.098  17.208   2.632  0.00  0.00    -0.385 N 
HETATM   23  H   UNK N   1      32.407  18.031   2.188  0.00  0.00     0.157 HD
HETATM   24  H   UNK N   1      31.137  16.998   2.663  0.00  0.00     0.157 HD
ENDBRANCH  21  22
BRANCH  21  25
HETATM   25  N   UNK N   1      33.607  15.442   2.498  0.00  0.00    -0.385 N 
HETATM   26  H   UNK N   1      34.576  15.492   2.333  0.00  0.00     0.157 HD
HETATM   27  H   UNK N   1      33.079  14.708   2.106  0.00  0.00     0.157 HD
ENDBRANCH  21  25
ENDBRANCH   1  21
TORSDOF 5
ENDMDL
MODEL 5
REMARK VINA RESULT:      -6.4     12.525     15.652
REMARK  5 active torsions:
REMARK  status: ('A' for Active; 'I' for Inactive)
REMARK    1  A    between atoms: C_1  and  C_7 
REMARK    2  A    between atoms: C_7  and  N_8 
REMARK    3  A    between atoms: C_7  and  N_9 
REMARK    4  A    between atoms: C_13  and  C_14 
REMARK    5  A    between atoms: C_20  and  O_21 
ROOT
HETATM    1  C   UNK N   1      35.406  11.998  18.403  0.00  0.00     0.009 A 
HETATM    2  C   UNK N   1      35.811  10.728  17.906  0.00  0.00     0.017 A 
HETATM    3  C   UNK N   1      36.170  10.565  16.550  0.00  0.00     0.033 A 
HETATM    4  C   UNK N   1      36.118  11.694  15.733  0.00  0.00     0.060 A 
HETATM    5  C   UNK N   1      35.741  12.906  16.214  0.00  0.00     0.061 A 
HETATM    6  C   UNK N   1      35.372  13.106  17.533  0.00  0.00     0.047 A 
HETATM    7  N   UNK N   1      36.401  11.795  14.423  0.00  0.00    -0.340 N 
HETATM    8  N   UNK N   1      35.781  13.813  15.236  0.00  0.00    -0.340 N 
ATOM      9  HN  UNK N   1      35.558  14.807  15.293  1.00  0.00     0.167 HD
HETATM   10  C   UNK N   1      36.187  13.112  14.149  0.00  0.00     0.119 A 
HETATM   11  H   UNK N   1      36.694  11.083  13.808  0.00  0.00     0.167 HD
ENDROOT
BRANCH  10  12
HETATM   12  C   UNK N   1      36.335  13.720  12.807  0.00  0.00     0.044 A 
HETATM   13  C   UNK N   1      35.591  14.861  12.476  0.00  0.00     0.060 A 
HETATM   14  C   UNK N   1      35.744  15.468  11.224  0.00  0.00     0.117 A 
HETATM   15  F   UNK N   1      35.036  16.581  10.918  0.00  0.00    -0.206 F 
HETATM   16  C   UNK N   1      36.636  14.935  10.292  0.00  0.00     0.045 A 
HETATM   17  C   UNK N   1      37.375  13.796  10.605  0.00  0.00     0.040 A 
HETATM   18  C   UNK N   1      37.234  13.185  11.853  0.00  0.00     0.079 A 
BRANCH  18  19
HETATM   19  O   UNK N   1      37.963  12.087  12.123  0.00  0.00    -0.360 OA
ATOM     20  HO  UNK N   1      37.547  11.263  12.344  1.00  0.00     0.217 HD
ENDBRANCH  18  19
ENDBRANCH  10  12
BRANCH   1  21
HETATM   21  C   UNK N   1      35.025  12.170  19.821  0.00  0.00     0.102 C 
BRANCH  21  22
HETATM   22  N   UNK N   1      34.783  13.460  20.344  0.00  0.00    -0.385 N 
HETATM   23  H   UNK N   1      34.194  13.572  21.125  0.00  0.00     0.157 HD
HETATM   24  H   UNK N   1      35.203  14.246  19.927  0.00  0.00     0.157 HD
ENDBRANCH  21  22
BRANCH  21  25
HETATM   25  N   UNK N   1      34.899  11.147  20.585  0.00  0.00    -0.385 N 
HETATM   26  H   UNK N   1      34.284  11.179  21.354  0.00  0.00     0.157 HD
HETATM   27  H   UNK N   1      35.416  10.329  20.403  0.00  0.00     0.157 HD
ENDBRANCH  21  25
ENDBRANCH   1  21
TORSDOF 5
ENDMDL
MODEL 6
REMARK VINA RESULT:      -6.4      3.513      7.477
REMARK  5 active torsions:
REMARK  status: ('A' for Active; 'I' for Inactive)
REMARK    1  A    between atoms: C_1  and  C_7 
REMARK    2  A    between atoms: C_7  and  N_8 
REMARK    3  A    between atoms: C_7  and  N_9 
REMARK    4  A    between atoms: C_13  and  C_14 
REMARK    5  A    between atoms: C_20  and  O_21 
ROOT
HETATM    1  C   UNK N   1      31.808  16.643   7.811  0.00  0.00     0.009 A 
HETATM    2  C   UNK N   1      32.442  16.610   6.538  0.00  0.00     0.017 A 
HETATM    3  C   UNK N   1      31.757  17.037   5.379  0.00  0.00     0.033 A 
HETATM    4  C   UNK N   1      30.450  17.495   5.540  0.00  0.00     0.060 A 
HETATM    5  C   UNK N   1      29.853  17.534   6.758  0.00  0.00     0.061 A 
HETATM    6  C   UNK N   1      30.485  17.116   7.916  0.00  0.00     0.047 A 
HETATM    7  N   UNK N   1      29.597  17.942   4.603  0.00  0.00    -0.340 N 
HETATM    8  N   UNK N   1      28.612  18.014   6.639  0.00  0.00    -0.340 N 
ATOM      9  HN  UNK N   1      27.925  18.164   7.377  1.00  0.00     0.167 HD
HETATM   10  C   UNK N   1      28.476  18.257   5.312  0.00  0.00     0.119 A 
HETATM   11  H   UNK N   1      29.747  18.023   3.633  0.00  0.00     0.167 HD
ENDROOT
BRANCH  10  12
HETATM   12  C   UNK N   1      27.224  18.768   4.711  0.00  0.00     0.044 A 
HETATM   13  C   UNK N   1      27.275  19.841   3.808  0.00  0.00     0.060 A 
HETATM   14  C   UNK N   1      26.105  20.315   3.205  0.00  0.00     0.117 A 
HETATM   15  F   UNK N   1      26.164  21.339   2.321  0.00  0.00    -0.206 F 
HETATM   16  C   UNK N   1      24.876  19.727   3.503  0.00  0.00     0.045 A 
HETATM   17  C   UNK N   1      24.809  18.667   4.406  0.00  0.00     0.040 A 
HETATM   18  C   UNK N   1      25.971  18.181   5.010  0.00  0.00     0.079 A 
BRANCH  18  19
HETATM   19  O   UNK N   1      25.872  17.156   5.875  0.00  0.00    -0.360 OA
ATOM     20  HO  UNK N   1      26.298  16.326   5.704  1.00  0.00     0.217 HD
ENDBRANCH  18  19
ENDBRANCH  10  12
BRANCH   1  21
HETATM   21  C   UNK N   1      32.523  16.193   9.024  0.00  0.00     0.102 C 
BRANCH  21  22
HETATM   22  N   UNK N   1      31.989  15.158   9.824  0.00  0.00    -0.385 N 
HETATM   23  H   UNK N   1      31.700  15.347  10.745  0.00  0.00     0.157 HD
HETATM   24  H   UNK N   1      31.906  14.248   9.459  0.00  0.00     0.157 HD
ENDBRANCH  21  22
BRANCH  21  25
HETATM   25  N   UNK N   1      33.641  16.730   9.353  0.00  0.00    -0.385 N 
HETATM   26  H   UNK N   1      33.803  16.997  10.286  0.00  0.00     0.157 HD
HETATM   27  H   UNK N   1      34.338  16.873   8.672  0.00  0.00     0.157 HD
ENDBRANCH  21  25
ENDBRANCH   1  21
TORSDOF 5
ENDMDL
MODEL 7
REMARK VINA RESULT:      -6.3      6.468      9.204
REMARK  5 active torsions:
REMARK  status: ('A' for Active; 'I' for Inactive)
REMARK    1  A    between atoms: C_1  and  C_7 
REMARK    2  A    between atoms: C_7  and  N_8 
REMARK    3  A    between atoms: C_7  and  N_9 
REMARK    4  A    between atoms: C_13  and  C_14 
REMARK    5  A    between atoms: C_20  and  O_21 
ROOT
HETATM    1  C   UNK N   1      22.057  13.674   9.448  0.00  0.00     0.009 A 
HETATM    2  C   UNK N   1      20.746  14.040   9.864  0.00  0.00     0.017 A 
HETATM    3  C   UNK N   1      19.976  14.949   9.105  0.00  0.00     0.033 A 
HETATM    4  C   UNK N   1      20.548  15.456   7.939  0.00  0.00     0.060 A 
HETATM    5  C   UNK N   1      21.795  15.096   7.541  0.00  0.00     0.061 A 
HETATM    6  C   UNK N   1      22.586  14.217   8.260  0.00  0.00     0.047 A 
HETATM    7  N   UNK N   1      20.027  16.330   7.061  0.00  0.00    -0.340 N 
HETATM    8  N   UNK N   1      22.102  15.715   6.399  0.00  0.00    -0.340 N 
ATOM      9  HN  UNK N   1      22.963  15.641   5.857  1.00  0.00     0.167 HD
HETATM   10  C   UNK N   1      21.007  16.466   6.123  0.00  0.00     0.119 A 
HETATM   11  H   UNK N   1      19.145  16.768   7.089  0.00  0.00     0.167 HD
ENDROOT
BRANCH  10  12
HETATM   12  C   UNK N   1      20.919  17.362   4.949  0.00  0.00     0.044 A 
HETATM   13  C   UNK N   1      21.947  18.283   4.700  0.00  0.00     0.060 A 
HETATM   14  C   UNK N   1      21.896  19.115   3.575  0.00  0.00     0.117 A 
HETATM   15  F   UNK N   1      22.901  19.988   3.331  0.00  0.00    -0.206 F 
HETATM   16  C   UNK N   1      20.815  19.037   2.696  0.00  0.00     0.045 A 
HETATM   17  C   UNK N   1      19.782  18.134   2.937  0.00  0.00     0.040 A 
HETATM   18  C   UNK N   1      19.825  17.295   4.053  0.00  0.00     0.079 A 
BRANCH  18  19
HETATM   19  O   UNK N   1      18.812  16.434   4.255  0.00  0.00    -0.360 OA
ATOM     20  HO  UNK N   1      17.909  16.725   4.239  1.00  0.00     0.217 HD
ENDBRANCH  18  19
ENDBRANCH  10  12
BRANCH   1  21
HETATM   21  C   UNK N   1      22.866  12.726  10.243  0.00  0.00     0.102 C 
BRANCH  21  22
HETATM   22  N   UNK N   1      22.271  11.573  10.801  0.00  0.00    -0.385 N 
HETATM   23  H   UNK N   1      21.761  10.956  10.229  0.00  0.00     0.157 HD
HETATM   24  H   UNK N   1      22.368  11.387  11.763  0.00  0.00     0.157 HD
ENDBRANCH  21  22
BRANCH  21  25
HETATM   25  N   UNK N   1      24.119  12.936  10.421  0.00  0.00    -0.385 N 
HETATM   26  H   UNK N   1      24.772  12.611   9.760  0.00  0.00     0.157 HD
HETATM   27  H   UNK N   1      24.429  13.425  11.218  0.00  0.00     0.157 HD
ENDBRANCH  21  25
ENDBRANCH   1  21
TORSDOF 5
ENDMDL
MODEL 8
REMARK VINA RESULT:      -6.3      5.801      6.840
REMARK  5 active torsions:
REMARK  status: ('A' for Active; 'I' for Inactive)
REMARK    1  A    between atoms: C_1  and  C_7 
REMARK    2  A    between atoms: C_7  and  N_8 
REMARK    3  A    between atoms: C_7  and  N_9 
REMARK    4  A    between atoms: C_13  and  C_14 
REMARK    5  A    between atoms: C_20  and  O_21 
ROOT
HETATM    1  C   UNK N   1      20.715  18.278   3.447  0.00  0.00     0.009 A 
HETATM    2  C   UNK N   1      22.048  18.697   3.709  0.00  0.00     0.017 A 
HETATM    3  C   UNK N   1      22.793  18.120   4.761  0.00  0.00     0.033 A 
HETATM    4  C   UNK N   1      22.171  17.127   5.516  0.00  0.00     0.060 A 
HETATM    5  C   UNK N   1      20.901  16.722   5.255  0.00  0.00     0.061 A 
HETATM    6  C   UNK N   1      20.135  17.269   4.241  0.00  0.00     0.047 A 
HETATM    7  N   UNK N   1      22.659  16.438   6.562  0.00  0.00    -0.340 N 
HETATM    8  N   UNK N   1      20.547  15.763   6.114  0.00  0.00    -0.340 N 
ATOM      9  HN  UNK N   1      19.659  15.263   6.163  1.00  0.00     0.167 HD
HETATM   10  C   UNK N   1      21.637  15.605   6.904  0.00  0.00     0.119 A 
HETATM   11  H   UNK N   1      23.548  16.517   6.980  0.00  0.00     0.167 HD
ENDROOT
BRANCH  10  12
HETATM   12  C   UNK N   1      21.679  14.655   8.039  0.00  0.00     0.044 A 
HETATM   13  C   UNK N   1      22.811  13.848   8.226  0.00  0.00     0.060 A 
HETATM   14  C   UNK N   1      22.881  12.969   9.313  0.00  0.00     0.117 A 
HETATM   15  F   UNK N   1      23.985  12.206   9.499  0.00  0.00    -0.206 F 
HETATM   16  C   UNK N   1      21.820  12.884  10.215  0.00  0.00     0.045 A 
HETATM   17  C   UNK N   1      20.685  13.673  10.035  0.00  0.00     0.040 A 
HETATM   18  C   UNK N   1      20.606  14.558   8.957  0.00  0.00     0.079 A 
BRANCH  18  19
HETATM   19  O   UNK N   1      19.497  15.305   8.813  0.00  0.00    -0.360 OA
ATOM     20  HO  UNK N   1      18.951  15.522   9.558  1.00  0.00     0.217 HD
ENDBRANCH  18  19
ENDBRANCH  10  12
BRANCH   1  21
HETATM   21  C   UNK N   1      19.933  18.884   2.348  0.00  0.00     0.102 C 
BRANCH  21  22
HETATM   22  N   UNK N   1      20.575  19.660   1.359  0.00  0.00    -0.385 N 
HETATM   23  H   UNK N   1      20.655  19.319   0.439  0.00  0.00     0.157 HD
HETATM   24  H   UNK N   1      20.943  20.544   1.589  0.00  0.00     0.157 HD
ENDBRANCH  21  22
BRANCH  21  25
HETATM   25  N   UNK N   1      18.665  18.698   2.277  0.00  0.00    -0.385 N 
HETATM   26  H   UNK N   1      18.046  19.413   2.551  0.00  0.00     0.157 HD
HETATM   27  H   UNK N   1      18.311  17.840   1.948  0.00  0.00     0.157 HD
ENDBRANCH  21  25
ENDBRANCH   1  21
TORSDOF 5
ENDMDL
MODEL 9
REMARK VINA RESULT:      -6.3     10.964     13.355
REMARK  5 active torsions:
REMARK  status: ('A' for Active; 'I' for Inactive)
REMARK    1  A    between atoms: C_1  and  C_7 
REMARK    2  A    between atoms: C_7  and  N_8 
REMARK    3  A    between atoms: C_7  and  N_9 
REMARK    4  A    between atoms: C_13  and  C_14 
REMARK    5  A    between atoms: C_20  and  O_21 
ROOT
HETATM    1  C   UNK N   1      30.786  21.352  -4.443  0.00  0.00     0.009 A 
HETATM    2  C   UNK N   1      30.862  21.684  -3.062  0.00  0.00     0.017 A 
HETATM    3  C   UNK N   1      30.057  22.711  -2.521  0.00  0.00     0.033 A 
HETATM    4  C   UNK N   1      29.189  23.370  -3.391  0.00  0.00     0.060 A 
HETATM    5  C   UNK N   1      29.114  23.043  -4.706  0.00  0.00     0.061 A 
HETATM    6  C   UNK N   1      29.891  22.051  -5.277  0.00  0.00     0.047 A 
HETATM    7  N   UNK N   1      28.338  24.375  -3.124  0.00  0.00    -0.340 N 
HETATM    8  N   UNK N   1      28.209  23.816  -5.313  0.00  0.00    -0.340 N 
ATOM      9  HN  UNK N   1      27.930  23.802  -6.294  1.00  0.00     0.167 HD
HETATM   10  C   UNK N   1      27.747  24.624  -4.327  0.00  0.00     0.119 A 
HETATM   11  H   UNK N   1      28.178  24.824  -2.262  0.00  0.00     0.167 HD
ENDROOT
BRANCH  10  12
HETATM   12  C   UNK N   1      26.741  25.684  -4.559  0.00  0.00     0.044 A 
HETATM   13  C   UNK N   1      26.791  26.866  -3.805  0.00  0.00     0.060 A 
HETATM   14  C   UNK N   1      25.868  27.893  -4.035  0.00  0.00     0.117 A 
HETATM   15  F   UNK N   1      25.934  29.038  -3.316  0.00  0.00    -0.206 F 
HETATM   16  C   UNK N   1      24.885  27.743  -5.013  0.00  0.00     0.045 A 
HETATM   17  C   UNK N   1      24.817  26.570  -5.763  0.00  0.00     0.040 A 
HETATM   18  C   UNK N   1      25.736  25.541  -5.546  0.00  0.00     0.079 A 
BRANCH  18  19
HETATM   19  O   UNK N   1      25.643  24.423  -6.287  0.00  0.00    -0.360 OA
ATOM     20  HO  UNK N   1      26.239  24.261  -7.009  1.00  0.00     0.217 HD
ENDBRANCH  18  19
ENDBRANCH  10  12
BRANCH   1  21
HETATM   21  C   UNK N   1      31.630  20.280  -5.012  0.00  0.00     0.102 C 
BRANCH  21  22
HETATM   22  N   UNK N   1      32.380  19.436  -4.163  0.00  0.00    -0.385 N 
HETATM   23  H   UNK N   1      32.205  19.432  -3.194  0.00  0.00     0.157 HD
HETATM   24  H   UNK N   1      33.076  18.852  -4.540  0.00  0.00     0.157 HD
ENDBRANCH  21  22
BRANCH  21  25
HETATM   25  N   UNK N   1      31.679  20.099  -6.281  0.00  0.00    -0.385 N 
HETATM   26  H   UNK N   1      31.056  20.582  -6.872  0.00  0.00     0.157 HD
HETATM   27  H   UNK N   1      32.339  19.478  -6.665  0.00  0.00     0.157 HD
ENDBRANCH  21  25
ENDBRANCH   1  21
TORSDOF 5
ENDMDL
