REMARK  5 active torsions:
REMARK  status: ('A' for Active; 'I' for Inactive)
REMARK    1  A    between atoms: C_3  and  N_10 
REMARK    2  A    between atoms: C_4  and  C_7 
REMARK    3  A    between atoms: C_7  and  O_9 
REMARK       I    between atoms: N_10  and  C_11 
REMARK    4  A    between atoms: C_11  and  C_13 
REMARK    5  A    between atoms: C_13  and  O_15 
ROOT
HETATM    1  C   UNK N   1       1.233   2.327  -0.000  0.00  0.00     0.020 A 
HETATM    2  C   UNK N   1       1.283   0.934  -0.000  0.00  0.00     0.032 A 
HETATM    3  C   UNK N   1       0.103   0.171  -0.000  0.00  0.00     0.052 A 
HETATM    4  C   UNK N   1      -1.151   0.832   0.000  0.00  0.00     0.065 A 
HETATM    5  C   UNK N   1      -1.182   2.238   0.000  0.00  0.00     0.038 A 
HETATM    6  C   UNK N   1       0.002   2.979  -0.000  0.00  0.00     0.007 A 
HETATM    7  I   UNK N   1      -0.056   5.081  -0.000  0.00  0.00    -0.045 I 
ENDROOT
BRANCH   3   8
HETATM    8  N   UNK N   1       0.149  -1.254  -0.000  0.00  0.00    -0.317 N 
HETATM    9  C   UNK N   1       1.258  -2.040   0.000  0.00  0.00     0.319 C 
HETATM   10  O   UNK N   1       2.379  -1.555   0.000  0.00  0.00    -0.261 OA
HETATM   11  H   UNK N   1      -0.718  -1.719  -0.000  0.00  0.00     0.169 HD
BRANCH   9  12
HETATM   12  C   UNK N   1       1.095  -3.504  -0.000  0.00  0.00     0.237 C 
HETATM   13  O   UNK N   1      -0.022  -3.996  -0.000  0.00  0.00    -0.643 OA
BRANCH  12  14
HETATM   14  O   UNK N   1       2.176  -4.306   0.000  0.00  0.00    -0.769 OA
HETATM   15  H   UNK N   1       2.069  -5.237   0.000  0.00  0.00     0.168 HD
ENDBRANCH  12  14
ENDBRANCH   9  12
ENDBRANCH   3   8
BRANCH   4  16
HETATM   16  C   UNK N   1      -2.441   0.083   0.000  0.00  0.00     0.178 C 
HETATM   17  O   UNK N   1      -3.499   0.692   0.000  0.00  0.00    -0.646 OA
BRANCH  16  18
HETATM   18  O   UNK N   1      -2.464  -1.264  -0.000  0.00  0.00    -0.773 OA
HETATM   19  H   UNK N   1      -3.284  -1.719  -0.000  0.00  0.00     0.167 HD
ENDBRANCH  16  18
ENDBRANCH   4  16
TORSDOF 5
