MODEL 1
REMARK VINA RESULT:      -5.8      0.000      0.000
REMARK  5 active torsions:
REMARK  status: ('A' for Active; 'I' for Inactive)
REMARK    1  A    between atoms: C_3  and  N_10 
REMARK    2  A    between atoms: C_4  and  C_7 
REMARK    3  A    between atoms: C_7  and  O_9 
REMARK       I    between atoms: N_10  and  C_11 
REMARK    4  A    between atoms: C_11  and  C_13 
REMARK    5  A    between atoms: C_13  and  O_15 
ROOT
HETATM    1  C   UNK N   1      35.758  12.726  16.334  0.00  0.00     0.020 A 
HETATM    2  C   UNK N   1      35.895  13.730  15.377  0.00  0.00     0.032 A 
HETATM    3  C   UNK N   1      36.458  13.455  14.120  0.00  0.00     0.052 A 
HETATM    4  C   UNK N   1      36.891  12.137  13.827  0.00  0.00     0.065 A 
HETATM    5  C   UNK N   1      36.745  11.137  14.805  0.00  0.00     0.038 A 
HETATM    6  C   UNK N   1      36.182  11.430  16.049  0.00  0.00     0.007 A 
HETATM    7  I   UNK N   1      35.968   9.927  17.503  0.00  0.00    -0.045 I 
ENDROOT
BRANCH   3   8
HETATM    8  N   UNK N   1      36.601  14.478  13.138  0.00  0.00    -0.317 N 
HETATM    9  C   UNK N   1      35.676  14.875  12.224  0.00  0.00     0.319 C 
HETATM   10  O   UNK N   1      34.574  14.350  12.169  0.00  0.00    -0.261 OA
HETATM   11  H   UNK N   1      37.464  14.949  13.120  0.00  0.00     0.169 HD
BRANCH   9  12
HETATM   12  C   UNK N   1      36.017  15.959  11.287  0.00  0.00     0.237 C 
HETATM   13  O   UNK N   1      35.207  16.841  11.050  0.00  0.00    -0.643 OA
BRANCH  12  14
HETATM   14  O   UNK N   1      37.222  15.983  10.688  0.00  0.00    -0.769 OA
HETATM   15  H   UNK N   1      37.665  15.180  10.495  0.00  0.00     0.168 HD
ENDBRANCH  12  14
ENDBRANCH   9  12
ENDBRANCH   3   8
BRANCH   4  16
HETATM   16  C   UNK N   1      37.498  11.776  12.513  0.00  0.00     0.178 C 
HETATM   17  O   UNK N   1      37.284  10.678  12.024  0.00  0.00    -0.646 OA
BRANCH  16  18
HETATM   18  O   UNK N   1      38.283  12.644  11.847  0.00  0.00    -0.773 OA
HETATM   19  H   UNK N   1      38.873  13.200  12.319  0.00  0.00     0.167 HD
ENDBRANCH  16  18
ENDBRANCH   4  16
TORSDOF 5
ENDMDL
MODEL 2
REMARK VINA RESULT:      -5.7     22.633     24.702
REMARK  5 active torsions:
REMARK  status: ('A' for Active; 'I' for Inactive)
REMARK    1  A    between atoms: C_3  and  N_10 
REMARK    2  A    between atoms: C_4  and  C_7 
REMARK    3  A    between atoms: C_7  and  O_9 
REMARK       I    between atoms: N_10  and  C_11 
REMARK    4  A    between atoms: C_11  and  C_13 
REMARK    5  A    between atoms: C_13  and  O_15 
ROOT
HETATM    1  C   UNK N   1      25.352  27.718  -5.319  0.00  0.00     0.020 A 
HETATM    2  C   UNK N   1      25.034  26.450  -5.802  0.00  0.00     0.032 A 
HETATM    3  C   UNK N   1      25.643  25.302  -5.268  0.00  0.00     0.052 A 
HETATM    4  C   UNK N   1      26.592  25.442  -4.225  0.00  0.00     0.065 A 
HETATM    5  C   UNK N   1      26.901  26.729  -3.750  0.00  0.00     0.038 A 
HETATM    6  C   UNK N   1      26.285  27.858  -4.294  0.00  0.00     0.007 A 
HETATM    7  I   UNK N   1      26.754  29.778  -3.577  0.00  0.00    -0.045 I 
ENDROOT
BRANCH   3   8
HETATM    8  N   UNK N   1      25.320  24.002  -5.758  0.00  0.00    -0.317 N 
HETATM    9  C   UNK N   1      25.848  23.381  -6.846  0.00  0.00     0.319 C 
HETATM   10  O   UNK N   1      26.698  23.923  -7.536  0.00  0.00    -0.261 OA
HETATM   11  H   UNK N   1      24.641  23.501  -5.253  0.00  0.00     0.169 HD
BRANCH   9  12
HETATM   12  C   UNK N   1      25.380  22.027  -7.191  0.00  0.00     0.237 C 
HETATM   13  O   UNK N   1      26.062  21.305  -7.900  0.00  0.00    -0.643 OA
BRANCH  12  14
HETATM   14  O   UNK N   1      24.198  21.580  -6.727  0.00  0.00    -0.769 OA
HETATM   15  H   UNK N   1      24.003  20.664  -6.746  0.00  0.00     0.168 HD
ENDBRANCH  12  14
ENDBRANCH   9  12
ENDBRANCH   3   8
BRANCH   4  16
HETATM   16  C   UNK N   1      27.276  24.265  -3.613  0.00  0.00     0.178 C 
HETATM   17  O   UNK N   1      26.949  23.881  -2.501  0.00  0.00    -0.646 OA
BRANCH  16  18
HETATM   18  O   UNK N   1      28.255  23.611  -4.267  0.00  0.00    -0.773 OA
HETATM   19  H   UNK N   1      28.131  22.719  -4.527  0.00  0.00     0.167 HD
ENDBRANCH  16  18
ENDBRANCH   4  16
TORSDOF 5
ENDMDL
MODEL 3
REMARK VINA RESULT:      -5.6      1.785      2.573
REMARK  5 active torsions:
REMARK  status: ('A' for Active; 'I' for Inactive)
REMARK    1  A    between atoms: C_3  and  N_10 
REMARK    2  A    between atoms: C_4  and  C_7 
REMARK    3  A    between atoms: C_7  and  O_9 
REMARK       I    between atoms: N_10  and  C_11 
REMARK    4  A    between atoms: C_11  and  C_13 
REMARK    5  A    between atoms: C_13  and  O_15 
ROOT
HETATM    1  C   UNK N   1      36.820  10.204  13.437  0.00  0.00     0.020 A 
HETATM    2  C   UNK N   1      36.828  11.380  12.690  0.00  0.00     0.032 A 
HETATM    3  C   UNK N   1      36.834  12.635  13.322  0.00  0.00     0.052 A 
HETATM    4  C   UNK N   1      36.833  12.699  14.738  0.00  0.00     0.065 A 
HETATM    5  C   UNK N   1      36.826  11.502  15.476  0.00  0.00     0.038 A 
HETATM    6  C   UNK N   1      36.820  10.264  14.829  0.00  0.00     0.007 A 
HETATM    7  I   UNK N   1      36.809   8.480  15.942  0.00  0.00    -0.045 I 
ENDROOT
BRANCH   3   8
HETATM    8  N   UNK N   1      36.841  13.841  12.562  0.00  0.00    -0.317 N 
HETATM    9  C   UNK N   1      35.763  14.522  12.091  0.00  0.00     0.319 C 
HETATM   10  O   UNK N   1      34.625  14.128  12.296  0.00  0.00    -0.261 OA
HETATM   11  H   UNK N   1      37.725  14.222  12.355  0.00  0.00     0.169 HD
BRANCH   9  12
HETATM   12  C   UNK N   1      35.981  15.758  11.320  0.00  0.00     0.237 C 
HETATM   13  O   UNK N   1      35.062  16.544  11.151  0.00  0.00    -0.643 OA
BRANCH  12  14
HETATM   14  O   UNK N   1      37.192  16.027  10.798  0.00  0.00    -0.769 OA
HETATM   15  H   UNK N   1      37.850  15.360  10.773  0.00  0.00     0.168 HD
ENDBRANCH  12  14
ENDBRANCH   9  12
ENDBRANCH   3   8
BRANCH   4  16
HETATM   16  C   UNK N   1      36.840  13.998  15.472  0.00  0.00     0.178 C 
HETATM   17  O   UNK N   1      36.122  14.149  16.448  0.00  0.00    -0.646 OA
BRANCH  16  18
HETATM   18  O   UNK N   1      37.628  15.016  15.078  0.00  0.00    -0.773 OA
HETATM   19  H   UNK N   1      38.484  14.842  14.736  0.00  0.00     0.167 HD
ENDBRANCH  16  18
ENDBRANCH   4  16
TORSDOF 5
ENDMDL
MODEL 4
REMARK VINA RESULT:      -5.6      6.569      8.960
REMARK  5 active torsions:
REMARK  status: ('A' for Active; 'I' for Inactive)
REMARK    1  A    between atoms: C_3  and  N_10 
REMARK    2  A    between atoms: C_4  and  C_7 
REMARK    3  A    between atoms: C_7  and  O_9 
REMARK       I    between atoms: N_10  and  C_11 
REMARK    4  A    between atoms: C_11  and  C_13 
REMARK    5  A    between atoms: C_13  and  O_15 
ROOT
HETATM    1  C   UNK N   1      29.671  17.275   7.805  0.00  0.00     0.020 A 
HETATM    2  C   UNK N   1      30.783  17.318   8.645  0.00  0.00     0.032 A 
HETATM    3  C   UNK N   1      32.085  17.296   8.117  0.00  0.00     0.052 A 
HETATM    4  C   UNK N   1      32.264  17.230   6.713  0.00  0.00     0.065 A 
HETATM    5  C   UNK N   1      31.131  17.188   5.881  0.00  0.00     0.038 A 
HETATM    6  C   UNK N   1      29.844  17.211   6.424  0.00  0.00     0.007 A 
HETATM    7  I   UNK N   1      28.157  17.148   5.171  0.00  0.00    -0.045 I 
ENDROOT
BRANCH   3   8
HETATM    8  N   UNK N   1      33.225  17.339   8.972  0.00  0.00    -0.317 N 
HETATM    9  C   UNK N   1      33.877  16.282   9.525  0.00  0.00     0.319 C 
HETATM   10  O   UNK N   1      33.513  15.134   9.320  0.00  0.00    -0.261 OA
HETATM   11  H   UNK N   1      33.578  18.232   9.185  0.00  0.00     0.169 HD
BRANCH   9  12
HETATM   12  C   UNK N   1      35.044  16.536  10.388  0.00  0.00     0.237 C 
HETATM   13  O   UNK N   1      35.682  17.569  10.267  0.00  0.00    -0.643 OA
BRANCH  12  14
HETATM   14  O   UNK N   1      35.412  15.631  11.314  0.00  0.00    -0.769 OA
HETATM   15  H   UNK N   1      36.209  15.747  11.792  0.00  0.00     0.168 HD
ENDBRANCH  12  14
ENDBRANCH   9  12
ENDBRANCH   3   8
BRANCH   4  16
HETATM   16  C   UNK N   1      33.618  17.204   6.087  0.00  0.00     0.178 C 
HETATM   17  O   UNK N   1      34.492  17.953   6.494  0.00  0.00    -0.646 OA
BRANCH  16  18
HETATM   18  O   UNK N   1      33.900  16.364   5.073  0.00  0.00    -0.773 OA
HETATM   19  H   UNK N   1      33.255  16.189   4.415  0.00  0.00     0.167 HD
ENDBRANCH  16  18
ENDBRANCH   4  16
TORSDOF 5
ENDMDL
MODEL 5
REMARK VINA RESULT:      -5.5      5.743      8.515
REMARK  5 active torsions:
REMARK  status: ('A' for Active; 'I' for Inactive)
REMARK    1  A    between atoms: C_3  and  N_10 
REMARK    2  A    between atoms: C_4  and  C_7 
REMARK    3  A    between atoms: C_7  and  O_9 
REMARK       I    between atoms: N_10  and  C_11 
REMARK    4  A    between atoms: C_11  and  C_13 
REMARK    5  A    between atoms: C_13  and  O_15 
ROOT
HETATM    1  C   UNK N   1      34.106  15.134   5.337  0.00  0.00     0.020 A 
HETATM    2  C   UNK N   1      34.750  14.995   6.566  0.00  0.00     0.032 A 
HETATM    3  C   UNK N   1      34.779  16.055   7.488  0.00  0.00     0.052 A 
HETATM    4  C   UNK N   1      34.143  17.278   7.158  0.00  0.00     0.065 A 
HETATM    5  C   UNK N   1      33.499  17.400   5.914  0.00  0.00     0.038 A 
HETATM    6  C   UNK N   1      33.481  16.335   5.011  0.00  0.00     0.007 A 
HETATM    7  I   UNK N   1      32.514  16.528   3.154  0.00  0.00    -0.045 I 
ENDROOT
BRANCH   3   8
HETATM    8  N   UNK N   1      35.436  15.917   8.745  0.00  0.00    -0.317 N 
HETATM    9  C   UNK N   1      34.892  15.484   9.913  0.00  0.00     0.319 C 
HETATM   10  O   UNK N   1      33.718  15.156   9.983  0.00  0.00    -0.261 OA
HETATM   11  H   UNK N   1      36.388  16.163   8.770  0.00  0.00     0.169 HD
BRANCH   9  12
HETATM   12  C   UNK N   1      35.743  15.412  11.113  0.00  0.00     0.237 C 
HETATM   13  O   UNK N   1      35.344  14.839  12.114  0.00  0.00    -0.643 OA
BRANCH  12  14
HETATM   14  O   UNK N   1      36.964  15.979  11.113  0.00  0.00    -0.769 OA
HETATM   15  H   UNK N   1      37.216  16.551  11.811  0.00  0.00     0.168 HD
ENDBRANCH  12  14
ENDBRANCH   9  12
ENDBRANCH   3   8
BRANCH   4  16
HETATM   16  C   UNK N   1      34.137  18.443   8.091  0.00  0.00     0.178 C 
HETATM   17  O   UNK N   1      33.084  18.831   8.573  0.00  0.00    -0.646 OA
BRANCH  16  18
HETATM   18  O   UNK N   1      35.277  19.082   8.415  0.00  0.00    -0.773 OA
HETATM   19  H   UNK N   1      35.250  19.840   8.966  0.00  0.00     0.167 HD
ENDBRANCH  16  18
ENDBRANCH   4  16
TORSDOF 5
ENDMDL
MODEL 6
REMARK VINA RESULT:      -5.4     19.129     20.733
REMARK  5 active torsions:
REMARK  status: ('A' for Active; 'I' for Inactive)
REMARK    1  A    between atoms: C_3  and  N_10 
REMARK    2  A    between atoms: C_4  and  C_7 
REMARK    3  A    between atoms: C_7  and  O_9 
REMARK       I    between atoms: N_10  and  C_11 
REMARK    4  A    between atoms: C_11  and  C_13 
REMARK    5  A    between atoms: C_13  and  O_15 
ROOT
HETATM    1  C   UNK N   1      29.336  21.750  -6.299  0.00  0.00     0.020 A 
HETATM    2  C   UNK N   1      30.300  20.811  -5.934  0.00  0.00     0.032 A 
HETATM    3  C   UNK N   1      30.960  20.901  -4.696  0.00  0.00     0.052 A 
HETATM    4  C   UNK N   1      30.637  21.960  -3.812  0.00  0.00     0.065 A 
HETATM    5  C   UNK N   1      29.661  22.897  -4.197  0.00  0.00     0.038 A 
HETATM    6  C   UNK N   1      29.016  22.792  -5.431  0.00  0.00     0.007 A 
HETATM    7  I   UNK N   1      27.559  24.199  -5.997  0.00  0.00    -0.045 I 
ENDROOT
BRANCH   3   8
HETATM    8  N   UNK N   1      31.947  19.943  -4.319  0.00  0.00    -0.317 N 
HETATM    9  C   UNK N   1      33.231  19.871  -4.758  0.00  0.00     0.319 C 
HETATM   10  O   UNK N   1      33.672  20.675  -5.565  0.00  0.00    -0.261 OA
HETATM   11  H   UNK N   1      31.667  19.260  -3.669  0.00  0.00     0.169 HD
BRANCH   9  12
HETATM   12  C   UNK N   1      34.102  18.800  -4.244  0.00  0.00     0.237 C 
HETATM   13  O   UNK N   1      35.298  18.813  -4.487  0.00  0.00    -0.643 OA
BRANCH  12  14
HETATM   14  O   UNK N   1      33.583  17.801  -3.505  0.00  0.00    -0.769 OA
HETATM   15  H   UNK N   1      33.345  17.955  -2.612  0.00  0.00     0.168 HD
ENDBRANCH  12  14
ENDBRANCH   9  12
ENDBRANCH   3   8
BRANCH   4  16
HETATM   16  C   UNK N   1      31.299  22.114  -2.484  0.00  0.00     0.178 C 
HETATM   17  O   UNK N   1      30.815  22.856  -1.644  0.00  0.00    -0.646 OA
BRANCH  16  18
HETATM   18  O   UNK N   1      32.430  21.444  -2.189  0.00  0.00    -0.773 OA
HETATM   19  H   UNK N   1      33.234  21.673  -2.613  0.00  0.00     0.167 HD
ENDBRANCH  16  18
ENDBRANCH   4  16
TORSDOF 5
ENDMDL
MODEL 7
REMARK VINA RESULT:      -5.3      3.741      5.022
REMARK  5 active torsions:
REMARK  status: ('A' for Active; 'I' for Inactive)
REMARK    1  A    between atoms: C_3  and  N_10 
REMARK    2  A    between atoms: C_4  and  C_7 
REMARK    3  A    between atoms: C_7  and  O_9 
REMARK       I    between atoms: N_10  and  C_11 
REMARK    4  A    between atoms: C_11  and  C_13 
REMARK    5  A    between atoms: C_13  and  O_15 
ROOT
HETATM    1  C   UNK N   1      34.054  12.210   9.357  0.00  0.00     0.020 A 
HETATM    2  C   UNK N   1      34.227  13.440   8.726  0.00  0.00     0.032 A 
HETATM    3  C   UNK N   1      34.907  14.490   9.367  0.00  0.00     0.052 A 
HETATM    4  C   UNK N   1      35.420  14.289  10.673  0.00  0.00     0.065 A 
HETATM    5  C   UNK N   1      35.236  13.041  11.294  0.00  0.00     0.038 A 
HETATM    6  C   UNK N   1      34.558  12.009  10.640  0.00  0.00     0.007 A 
HETATM    7  I   UNK N   1      34.289  10.147  11.579  0.00  0.00    -0.045 I 
ENDROOT
BRANCH   3   8
HETATM    8  N   UNK N   1      35.086  15.750   8.725  0.00  0.00    -0.317 N 
HETATM    9  C   UNK N   1      34.162  16.736   8.579  0.00  0.00     0.319 C 
HETATM   10  O   UNK N   1      33.028  16.613   9.015  0.00  0.00    -0.261 OA
HETATM   11  H   UNK N   1      35.977  15.925   8.346  0.00  0.00     0.169 HD
BRANCH   9  12
HETATM   12  C   UNK N   1      34.545  17.975   7.879  0.00  0.00     0.237 C 
HETATM   13  O   UNK N   1      34.296  18.109   6.691  0.00  0.00    -0.643 OA
BRANCH  12  14
HETATM   14  O   UNK N   1      35.170  18.964   8.545  0.00  0.00    -0.769 OA
HETATM   15  H   UNK N   1      35.828  19.474   8.116  0.00  0.00     0.168 HD
ENDBRANCH  12  14
ENDBRANCH   9  12
ENDBRANCH   3   8
BRANCH   4  16
HETATM   16  C   UNK N   1      36.151  15.360  11.410  0.00  0.00     0.178 C 
HETATM   17  O   UNK N   1      36.030  15.458  12.621  0.00  0.00    -0.646 OA
BRANCH  16  18
HETATM   18  O   UNK N   1      36.950  16.230  10.762  0.00  0.00    -0.773 OA
HETATM   19  H   UNK N   1      37.839  16.346  11.039  0.00  0.00     0.167 HD
ENDBRANCH  16  18
ENDBRANCH   4  16
TORSDOF 5
ENDMDL
MODEL 8
REMARK VINA RESULT:      -5.2     16.393     17.413
REMARK  5 active torsions:
REMARK  status: ('A' for Active; 'I' for Inactive)
REMARK    1  A    between atoms: C_3  and  N_10 
REMARK    2  A    between atoms: C_4  and  C_7 
REMARK    3  A    between atoms: C_7  and  O_9 
REMARK       I    between atoms: N_10  and  C_11 
REMARK    4  A    between atoms: C_11  and  C_13 
REMARK    5  A    between atoms: C_13  and  O_15 
ROOT
HETATM    1  C   UNK N   1      22.257  14.226   7.632  0.00  0.00     0.020 A 
HETATM    2  C   UNK N   1      22.247  15.264   6.702  0.00  0.00     0.032 A 
HETATM    3  C   UNK N   1      21.480  16.421   6.922  0.00  0.00     0.052 A 
HETATM    4  C   UNK N   1      20.708  16.527   8.107  0.00  0.00     0.065 A 
HETATM    5  C   UNK N   1      20.730  15.469   9.033  0.00  0.00     0.038 A 
HETATM    6  C   UNK N   1      21.499  14.327   8.797  0.00  0.00     0.007 A 
HETATM    7  I   UNK N   1      21.525  12.752  10.189  0.00  0.00    -0.045 I 
ENDROOT
BRANCH   3   8
HETATM    8  N   UNK N   1      21.466  17.485   5.974  0.00  0.00    -0.317 N 
HETATM    9  C   UNK N   1      20.757  17.546   4.817  0.00  0.00     0.319 C 
HETATM   10  O   UNK N   1      20.024  16.631   4.474  0.00  0.00    -0.261 OA
HETATM   11  H   UNK N   1      22.034  18.262   6.182  0.00  0.00     0.169 HD
BRANCH   9  12
HETATM   12  C   UNK N   1      20.879  18.742   3.966  0.00  0.00     0.237 C 
HETATM   13  O   UNK N   1      20.837  19.855   4.464  0.00  0.00    -0.643 OA
BRANCH  12  14
HETATM   14  O   UNK N   1      21.039  18.614   2.636  0.00  0.00    -0.769 OA
HETATM   15  H   UNK N   1      21.900  18.594   2.266  0.00  0.00     0.168 HD
ENDBRANCH  12  14
ENDBRANCH   9  12
ENDBRANCH   3   8
BRANCH   4  16
HETATM   16  C   UNK N   1      19.872  17.726   8.402  0.00  0.00     0.178 C 
HETATM   17  O   UNK N   1      18.743  17.587   8.845  0.00  0.00    -0.646 OA
BRANCH  16  18
HETATM   18  O   UNK N   1      20.341  18.971   8.190  0.00  0.00    -0.773 OA
HETATM   19  H   UNK N   1      20.401  19.307   7.316  0.00  0.00     0.167 HD
ENDBRANCH  16  18
ENDBRANCH   4  16
TORSDOF 5
ENDMDL
MODEL 9
REMARK VINA RESULT:      -5.2      9.765     11.777
REMARK  5 active torsions:
REMARK  status: ('A' for Active; 'I' for Inactive)
REMARK    1  A    between atoms: C_3  and  N_10 
REMARK    2  A    between atoms: C_4  and  C_7 
REMARK    3  A    between atoms: C_7  and  O_9 
REMARK       I    between atoms: N_10  and  C_11 
REMARK    4  A    between atoms: C_11  and  C_13 
REMARK    5  A    between atoms: C_13  and  O_15 
ROOT
HETATM    1  C   UNK N   1      31.509  17.163   6.257  0.00  0.00     0.020 A 
HETATM    2  C   UNK N   1      30.213  17.186   5.745  0.00  0.00     0.032 A 
HETATM    3  C   UNK N   1      29.111  17.418   6.586  0.00  0.00     0.052 A 
HETATM    4  C   UNK N   1      29.327  17.631   7.970  0.00  0.00     0.065 A 
HETATM    5  C   UNK N   1      30.642  17.603   8.469  0.00  0.00     0.038 A 
HETATM    6  C   UNK N   1      31.724  17.371   7.617  0.00  0.00     0.007 A 
HETATM    7  I   UNK N   1      33.686  17.332   8.373  0.00  0.00    -0.045 I 
ENDROOT
BRANCH   3   8
HETATM    8  N   UNK N   1      27.783  17.443   6.067  0.00  0.00    -0.317 N 
HETATM    9  C   UNK N   1      27.195  18.447   5.364  0.00  0.00     0.319 C 
HETATM   10  O   UNK N   1      27.798  19.476   5.103  0.00  0.00    -0.261 OA
HETATM   11  H   UNK N   1      27.233  16.646   6.237  0.00  0.00     0.169 HD
BRANCH   9  12
HETATM   12  C   UNK N   1      25.803  18.280   4.912  0.00  0.00     0.237 C 
HETATM   13  O   UNK N   1      25.353  19.001   4.036  0.00  0.00    -0.643 OA
BRANCH  12  14
HETATM   14  O   UNK N   1      25.021  17.333   5.462  0.00  0.00    -0.769 OA
HETATM   15  H   UNK N   1      24.464  16.811   4.918  0.00  0.00     0.168 HD
ENDBRANCH  12  14
ENDBRANCH   9  12
ENDBRANCH   3   8
BRANCH   4  16
HETATM   16  C   UNK N   1      28.203  17.883   8.918  0.00  0.00     0.178 C 
HETATM   17  O   UNK N   1      27.940  17.063   9.783  0.00  0.00    -0.646 OA
BRANCH  16  18
HETATM   18  O   UNK N   1      27.463  19.006   8.838  0.00  0.00    -0.773 OA
HETATM   19  H   UNK N   1      27.850  19.800   8.523  0.00  0.00     0.167 HD
ENDBRANCH  16  18
ENDBRANCH   4  16
TORSDOF 5
ENDMDL
