MODEL 1
REMARK VINA RESULT:      -7.4      0.000      0.000
REMARK  11 active torsions:
REMARK  status: ('A' for Active; 'I' for Inactive)
REMARK    1  A    between atoms: C_6  and  O_22 
REMARK    2  A    between atoms: N_7  and  C_15 
REMARK    3  A    between atoms: C_9  and  C_10 
REMARK    4  A    between atoms: C_10  and  C_11 
REMARK       I    between atoms: C_11  and  N_13 
REMARK    5  A    between atoms: C_15  and  C_16 
REMARK    6  A    between atoms: O_22  and  C_23 
REMARK    7  A    between atoms: C_23  and  C_24 
REMARK    8  A    between atoms: C_24  and  C_25 
REMARK    9  A    between atoms: C_25  and  P_26 
REMARK   10  A    between atoms: P_26  and  O_28 
REMARK   11  A    between atoms: P_26  and  O_29 
ROOT
HETATM    1  C   UNK N   1      37.100  12.943  12.219  0.00  0.00     0.039 A 
HETATM    2  C   UNK N   1      37.262  11.762  12.952  0.00  0.00     0.033 A 
HETATM    3  C   UNK N   1      36.725  11.707  14.237  0.00  0.00     0.046 A 
HETATM    4  C   UNK N   1      36.063  12.769  14.785  0.00  0.00     0.002 A 
HETATM    5  C   UNK N   1      35.886  13.963  14.081  0.00  0.00     0.051 A 
HETATM    6  C   UNK N   1      36.407  14.049  12.775  0.00  0.00     0.069 A 
HETATM    7  N   UNK N   1      36.764  10.662  15.086  0.00  0.00    -0.345 N 
HETATM    8  C   UNK N   1      36.109  11.080  16.217  0.00  0.00     0.016 A 
HETATM    9  C   UNK N   1      35.655  12.408  16.049  0.00  0.00    -0.015 A 
HETATM   10  C   UNK N   1      35.915  10.268  17.439  0.00  0.00     0.069 C 
ENDROOT
BRANCH   6  11
HETATM   11  O   UNK N   1      36.228  15.186  12.065  0.00  0.00    -0.351 OA
BRANCH  11  12
HETATM   12  C   UNK N   1      35.030  15.516  11.467  0.00  0.00     0.176 C 
BRANCH  12  13
HETATM   13  C   UNK N   1      35.269  16.577  10.404  0.00  0.00     0.038 C 
BRANCH  13  14
HETATM   14  C   UNK N   1      34.472  16.331   9.130  0.00  0.00     0.127 C 
BRANCH  14  15
HETATM   15  P   UNK N   1      34.295  17.894   8.127  0.00  0.00     0.235 P 
HETATM   16  O   UNK N   1      32.865  18.478   8.274  0.00  0.00    -0.653 OA
BRANCH  15  17
HETATM   17  O   UNK N   1      35.339  19.191   8.617  0.00  0.00    -0.329 OA
HETATM   18  H   UNK N   1      36.006  19.891   8.699  0.00  0.00     0.220 HD
ENDBRANCH  15  17
BRANCH  15  19
HETATM   19  O   UNK N   1      34.502  17.687   6.416  0.00  0.00    -0.329 OA
HETATM   20  H   UNK N   1      35.264  18.081   5.962  0.00  0.00     0.220 HD
ENDBRANCH  15  19
ENDBRANCH  14  15
ENDBRANCH  13  14
ENDBRANCH  12  13
ENDBRANCH  11  12
ENDBRANCH   6  11
BRANCH   9  21
HETATM   21  C   UNK N   1      34.887  13.381  16.929  0.00  0.00     0.144 C 
BRANCH  21  22
HETATM   22  C   UNK N   1      35.372  13.930  18.246  0.00  0.00     0.219 C 
HETATM   23  O   UNK N   1      35.249  13.317  19.288  0.00  0.00    -0.273 OA
HETATM   24  N   UNK N   1      35.947  15.147  18.265  0.00  0.00    -0.370 N 
HETATM   25  H   UNK N   1      36.064  15.649  17.426  0.00  0.00     0.159 HD
HETATM   26  H   UNK N   1      36.250  15.535  19.118  0.00  0.00     0.159 HD
ENDBRANCH  21  22
ENDBRANCH   9  21
BRANCH   7  27
HETATM   27  C   UNK N   1      37.441   9.419  14.644  0.00  0.00     0.167 C 
BRANCH  27  28
HETATM   28  C   UNK N   1      38.732   8.855  15.172  0.00  0.00    -0.040 A 
HETATM   29  C   UNK N   1      38.617   7.926  16.217  0.00  0.00     0.009 A 
HETATM   30  C   UNK N   1      39.751   7.342  16.786  0.00  0.00     0.001 A 
HETATM   31  C   UNK N   1      41.019   7.683  16.312  0.00  0.00     0.000 A 
HETATM   32  C   UNK N   1      41.146   8.607  15.273  0.00  0.00     0.001 A 
HETATM   33  C   UNK N   1      40.006   9.190  14.713  0.00  0.00     0.009 A 
ENDBRANCH  27  28
ENDBRANCH   7  27
TORSDOF 11
ENDMDL
MODEL 2
REMARK VINA RESULT:      -7.4      7.017     13.317
REMARK  11 active torsions:
REMARK  status: ('A' for Active; 'I' for Inactive)
REMARK    1  A    between atoms: C_6  and  O_22 
REMARK    2  A    between atoms: N_7  and  C_15 
REMARK    3  A    between atoms: C_9  and  C_10 
REMARK    4  A    between atoms: C_10  and  C_11 
REMARK       I    between atoms: C_11  and  N_13 
REMARK    5  A    between atoms: C_15  and  C_16 
REMARK    6  A    between atoms: O_22  and  C_23 
REMARK    7  A    between atoms: C_23  and  C_24 
REMARK    8  A    between atoms: C_24  and  C_25 
REMARK    9  A    between atoms: C_25  and  P_26 
REMARK   10  A    between atoms: P_26  and  O_28 
REMARK   11  A    between atoms: P_26  and  O_29 
ROOT
HETATM    1  C   UNK N   1      32.326  17.740   8.331  0.00  0.00     0.039 A 
HETATM    2  C   UNK N   1      31.143  17.656   7.588  0.00  0.00     0.033 A 
HETATM    3  C   UNK N   1      31.233  17.279   6.250  0.00  0.00     0.046 A 
HETATM    4  C   UNK N   1      32.435  17.005   5.660  0.00  0.00     0.002 A 
HETATM    5  C   UNK N   1      33.634  17.082   6.373  0.00  0.00     0.051 A 
HETATM    6  C   UNK N   1      33.578  17.450   7.732  0.00  0.00     0.069 A 
HETATM    7  N   UNK N   1      30.215  17.128   5.381  0.00  0.00    -0.345 N 
HETATM    8  C   UNK N   1      30.792  16.751   4.195  0.00  0.00     0.016 A 
HETATM    9  C   UNK N   1      32.195  16.664   4.349  0.00  0.00    -0.015 A 
HETATM   10  C   UNK N   1      30.061  16.485   2.937  0.00  0.00     0.069 C 
ENDROOT
BRANCH   6  11
HETATM   11  O   UNK N   1      34.723  17.508   8.449  0.00  0.00    -0.351 OA
BRANCH  11  12
HETATM   12  C   UNK N   1      34.894  16.846   9.646  0.00  0.00     0.176 C 
BRANCH  12  13
HETATM   13  C   UNK N   1      35.219  15.385   9.377  0.00  0.00     0.038 C 
BRANCH  13  14
HETATM   14  C   UNK N   1      36.440  14.898  10.144  0.00  0.00     0.127 C 
BRANCH  14  15
HETATM   15  P   UNK N   1      35.970  14.254  11.831  0.00  0.00     0.235 P 
HETATM   16  O   UNK N   1      36.660  12.893  12.108  0.00  0.00    -0.653 OA
BRANCH  15  17
HETATM   17  O   UNK N   1      36.465  15.262  13.154  0.00  0.00    -0.329 OA
HETATM   18  H   UNK N   1      36.855  15.657  13.950  0.00  0.00     0.220 HD
ENDBRANCH  15  17
BRANCH  15  19
HETATM   19  O   UNK N   1      34.278  13.930  12.039  0.00  0.00    -0.329 OA
HETATM   20  H   UNK N   1      33.979  13.065  12.360  0.00  0.00     0.220 HD
ENDBRANCH  15  19
ENDBRANCH  14  15
ENDBRANCH  13  14
ENDBRANCH  12  13
ENDBRANCH  11  12
ENDBRANCH   6  11
BRANCH   9  21
HETATM   21  C   UNK N   1      33.339  16.302   3.415  0.00  0.00     0.144 C 
BRANCH  21  22
HETATM   22  C   UNK N   1      33.609  14.926   2.863  0.00  0.00     0.219 C 
HETATM   23  O   UNK N   1      34.215  14.751   1.825  0.00  0.00    -0.273 OA
HETATM   24  N   UNK N   1      33.150  13.858   3.542  0.00  0.00    -0.370 N 
HETATM   25  H   UNK N   1      32.669  13.984   4.392  0.00  0.00     0.159 HD
HETATM   26  H   UNK N   1      33.295  12.951   3.189  0.00  0.00     0.159 HD
ENDBRANCH  21  22
ENDBRANCH   9  21
BRANCH   7  27
HETATM   27  C   UNK N   1      28.835  17.380   5.862  0.00  0.00     0.167 C 
BRANCH  27  28
HETATM   28  C   UNK N   1      28.086  18.685   5.821  0.00  0.00    -0.040 A 
HETATM   29  C   UNK N   1      27.675  19.119   4.552  0.00  0.00     0.009 A 
HETATM   30  C   UNK N   1      26.977  20.319   4.396  0.00  0.00     0.001 A 
HETATM   31  C   UNK N   1      26.680  21.099   5.514  0.00  0.00     0.000 A 
HETATM   32  C   UNK N   1      27.084  20.677   6.783  0.00  0.00     0.001 A 
HETATM   33  C   UNK N   1      27.787  19.478   6.929  0.00  0.00     0.009 A 
ENDBRANCH  27  28
ENDBRANCH   7  27
TORSDOF 11
ENDMDL
MODEL 3
REMARK VINA RESULT:      -7.2      7.648     13.226
REMARK  11 active torsions:
REMARK  status: ('A' for Active; 'I' for Inactive)
REMARK    1  A    between atoms: C_6  and  O_22 
REMARK    2  A    between atoms: N_7  and  C_15 
REMARK    3  A    between atoms: C_9  and  C_10 
REMARK    4  A    between atoms: C_10  and  C_11 
REMARK       I    between atoms: C_11  and  N_13 
REMARK    5  A    between atoms: C_15  and  C_16 
REMARK    6  A    between atoms: O_22  and  C_23 
REMARK    7  A    between atoms: C_23  and  C_24 
REMARK    8  A    between atoms: C_24  and  C_25 
REMARK    9  A    between atoms: C_25  and  P_26 
REMARK   10  A    between atoms: P_26  and  O_28 
REMARK   11  A    between atoms: P_26  and  O_29 
ROOT
HETATM    1  C   UNK N   1      32.269  17.790   8.276  0.00  0.00     0.039 A 
HETATM    2  C   UNK N   1      31.085  17.690   7.538  0.00  0.00     0.033 A 
HETATM    3  C   UNK N   1      31.171  17.282   6.208  0.00  0.00     0.046 A 
HETATM    4  C   UNK N   1      32.371  16.993   5.622  0.00  0.00     0.002 A 
HETATM    5  C   UNK N   1      33.572  17.086   6.329  0.00  0.00     0.051 A 
HETATM    6  C   UNK N   1      33.519  17.484   7.680  0.00  0.00     0.069 A 
HETATM    7  N   UNK N   1      30.151  17.113   5.345  0.00  0.00    -0.345 N 
HETATM    8  C   UNK N   1      30.725  16.708   4.167  0.00  0.00     0.016 A 
HETATM    9  C   UNK N   1      32.128  16.623   4.319  0.00  0.00    -0.015 A 
HETATM   10  C   UNK N   1      29.990  16.414   2.917  0.00  0.00     0.069 C 
ENDROOT
BRANCH   6  11
HETATM   11  O   UNK N   1      34.667  17.558   8.393  0.00  0.00    -0.351 OA
BRANCH  11  12
HETATM   12  C   UNK N   1      34.872  16.853   9.559  0.00  0.00     0.176 C 
BRANCH  12  13
HETATM   13  C   UNK N   1      35.181  15.401   9.227  0.00  0.00     0.038 C 
BRANCH  13  14
HETATM   14  C   UNK N   1      34.200  14.426   9.861  0.00  0.00     0.127 C 
BRANCH  14  15
HETATM   15  P   UNK N   1      33.268  13.461   8.563  0.00  0.00     0.235 P 
HETATM   16  O   UNK N   1      32.061  14.281   8.036  0.00  0.00    -0.653 OA
BRANCH  15  17
HETATM   17  O   UNK N   1      34.187  13.088   7.139  0.00  0.00    -0.329 OA
HETATM   18  H   UNK N   1      34.848  12.820   6.481  0.00  0.00     0.220 HD
ENDBRANCH  15  17
BRANCH  15  19
HETATM   19  O   UNK N   1      32.567  11.976   9.125  0.00  0.00    -0.329 OA
HETATM   20  H   UNK N   1      32.392  11.250   8.506  0.00  0.00     0.220 HD
ENDBRANCH  15  19
ENDBRANCH  14  15
ENDBRANCH  13  14
ENDBRANCH  12  13
ENDBRANCH  11  12
ENDBRANCH   6  11
BRANCH   9  21
HETATM   21  C   UNK N   1      33.269  16.239   3.391  0.00  0.00     0.144 C 
BRANCH  21  22
HETATM   22  C   UNK N   1      33.853  14.856   3.256  0.00  0.00     0.219 C 
HETATM   23  O   UNK N   1      34.101  14.160   4.221  0.00  0.00    -0.273 OA
HETATM   24  N   UNK N   1      34.118  14.386   2.023  0.00  0.00    -0.370 N 
HETATM   25  H   UNK N   1      33.909  14.933   1.232  0.00  0.00     0.159 HD
HETATM   26  H   UNK N   1      34.520  13.494   1.913  0.00  0.00     0.159 HD
ENDBRANCH  21  22
ENDBRANCH   9  21
BRANCH   7  27
HETATM   27  C   UNK N   1      28.772  17.377   5.824  0.00  0.00     0.167 C 
BRANCH  27  28
HETATM   28  C   UNK N   1      28.027  18.683   5.761  0.00  0.00    -0.040 A 
HETATM   29  C   UNK N   1      27.652  19.117   4.482  0.00  0.00     0.009 A 
HETATM   30  C   UNK N   1      26.960  20.318   4.306  0.00  0.00     0.001 A 
HETATM   31  C   UNK N   1      26.634  21.100   5.415  0.00  0.00     0.000 A 
HETATM   32  C   UNK N   1      27.002  20.678   6.694  0.00  0.00     0.001 A 
HETATM   33  C   UNK N   1      27.698  19.477   6.860  0.00  0.00     0.009 A 
ENDBRANCH  27  28
ENDBRANCH   7  27
TORSDOF 11
ENDMDL
MODEL 4
REMARK VINA RESULT:      -7.1      7.743     13.858
REMARK  11 active torsions:
REMARK  status: ('A' for Active; 'I' for Inactive)
REMARK    1  A    between atoms: C_6  and  O_22 
REMARK    2  A    between atoms: N_7  and  C_15 
REMARK    3  A    between atoms: C_9  and  C_10 
REMARK    4  A    between atoms: C_10  and  C_11 
REMARK       I    between atoms: C_11  and  N_13 
REMARK    5  A    between atoms: C_15  and  C_16 
REMARK    6  A    between atoms: O_22  and  C_23 
REMARK    7  A    between atoms: C_23  and  C_24 
REMARK    8  A    between atoms: C_24  and  C_25 
REMARK    9  A    between atoms: C_25  and  P_26 
REMARK   10  A    between atoms: P_26  and  O_28 
REMARK   11  A    between atoms: P_26  and  O_29 
ROOT
HETATM    1  C   UNK N   1      30.721  17.704   8.389  0.00  0.00     0.039 A 
HETATM    2  C   UNK N   1      29.718  17.600   7.419  0.00  0.00     0.033 A 
HETATM    3  C   UNK N   1      30.093  17.262   6.120  0.00  0.00     0.046 A 
HETATM    4  C   UNK N   1      31.399  17.045   5.783  0.00  0.00     0.002 A 
HETATM    5  C   UNK N   1      32.424  17.144   6.727  0.00  0.00     0.051 A 
HETATM    6  C   UNK N   1      32.079  17.472   8.053  0.00  0.00     0.069 A 
HETATM    7  N   UNK N   1      29.280  17.101   5.059  0.00  0.00    -0.345 N 
HETATM    8  C   UNK N   1      30.100  16.776   4.009  0.00  0.00     0.016 A 
HETATM    9  C   UNK N   1      31.445  16.732   4.444  0.00  0.00    -0.015 A 
HETATM   10  C   UNK N   1      29.651  16.520   2.622  0.00  0.00     0.069 C 
ENDROOT
BRANCH   6  11
HETATM   11  O   UNK N   1      33.052  17.550   8.990  0.00  0.00    -0.351 OA
BRANCH  11  12
HETATM   12  C   UNK N   1      34.392  17.614   8.676  0.00  0.00     0.176 C 
BRANCH  12  13
HETATM   13  C   UNK N   1      35.197  16.870   9.730  0.00  0.00     0.038 C 
BRANCH  13  14
HETATM   14  C   UNK N   1      35.259  15.370   9.480  0.00  0.00     0.127 C 
BRANCH  14  15
HETATM   15  P   UNK N   1      34.168  14.437  10.672  0.00  0.00     0.235 P 
HETATM   16  O   UNK N   1      34.762  14.480  12.104  0.00  0.00    -0.653 OA
BRANCH  15  17
HETATM   17  O   UNK N   1      32.569  15.088  10.852  0.00  0.00    -0.329 OA
HETATM   18  H   UNK N   1      31.756  15.542  11.124  0.00  0.00     0.220 HD
ENDBRANCH  15  17
BRANCH  15  19
HETATM   19  O   UNK N   1      33.996  12.744  10.328  0.00  0.00    -0.329 OA
HETATM   20  H   UNK N   1      34.777  12.196  10.154  0.00  0.00     0.220 HD
ENDBRANCH  15  19
ENDBRANCH  14  15
ENDBRANCH  13  14
ENDBRANCH  12  13
ENDBRANCH  11  12
ENDBRANCH   6  11
BRANCH   9  21
HETATM   21  C   UNK N   1      32.768  16.435   3.756  0.00  0.00     0.144 C 
BRANCH  21  22
HETATM   22  C   UNK N   1      33.087  15.175   2.993  0.00  0.00     0.219 C 
HETATM   23  O   UNK N   1      33.962  15.131   2.152  0.00  0.00    -0.273 OA
HETATM   24  N   UNK N   1      32.367  14.067   3.248  0.00  0.00    -0.370 N 
HETATM   25  H   UNK N   1      31.663  14.085   3.937  0.00  0.00     0.159 HD
HETATM   26  H   UNK N   1      32.543  13.239   2.746  0.00  0.00     0.159 HD
ENDBRANCH  21  22
ENDBRANCH   9  21
BRANCH   7  27
HETATM   27  C   UNK N   1      27.822  17.292   5.253  0.00  0.00     0.167 C 
BRANCH  27  28
HETATM   28  C   UNK N   1      26.945  18.309   4.574  0.00  0.00    -0.040 A 
HETATM   29  C   UNK N   1      25.580  17.995   4.500  0.00  0.00     0.009 A 
HETATM   30  C   UNK N   1      24.676  18.865   3.887  0.00  0.00     0.001 A 
HETATM   31  C   UNK N   1      25.130  20.066   3.340  0.00  0.00     0.000 A 
HETATM   32  C   UNK N   1      26.486  20.390   3.407  0.00  0.00     0.001 A 
HETATM   33  C   UNK N   1      27.385  19.511   4.019  0.00  0.00     0.009 A 
ENDBRANCH  27  28
ENDBRANCH   7  27
TORSDOF 11
ENDMDL
MODEL 5
REMARK VINA RESULT:      -7.1      3.304      4.819
REMARK  11 active torsions:
REMARK  status: ('A' for Active; 'I' for Inactive)
REMARK    1  A    between atoms: C_6  and  O_22 
REMARK    2  A    between atoms: N_7  and  C_15 
REMARK    3  A    between atoms: C_9  and  C_10 
REMARK    4  A    between atoms: C_10  and  C_11 
REMARK       I    between atoms: C_11  and  N_13 
REMARK    5  A    between atoms: C_15  and  C_16 
REMARK    6  A    between atoms: O_22  and  C_23 
REMARK    7  A    between atoms: C_23  and  C_24 
REMARK    8  A    between atoms: C_24  and  C_25 
REMARK    9  A    between atoms: C_25  and  P_26 
REMARK   10  A    between atoms: P_26  and  O_28 
REMARK   11  A    between atoms: P_26  and  O_29 
ROOT
HETATM    1  C   UNK N   1      34.809  10.138  14.216  0.00  0.00     0.039 A 
HETATM    2  C   UNK N   1      34.994   9.677  15.524  0.00  0.00     0.033 A 
HETATM    3  C   UNK N   1      35.107  10.621  16.544  0.00  0.00     0.046 A 
HETATM    4  C   UNK N   1      35.051  11.962  16.290  0.00  0.00     0.002 A 
HETATM    5  C   UNK N   1      34.869  12.455  14.996  0.00  0.00     0.051 A 
HETATM    6  C   UNK N   1      34.740  11.527  13.943  0.00  0.00     0.069 A 
HETATM    7  N   UNK N   1      35.274  10.377  17.858  0.00  0.00    -0.345 N 
HETATM    8  C   UNK N   1      35.331  11.609  18.459  0.00  0.00     0.016 A 
HETATM    9  C   UNK N   1      35.190  12.626  17.487  0.00  0.00    -0.015 A 
HETATM   10  C   UNK N   1      35.525  11.843  19.907  0.00  0.00     0.069 C 
ENDROOT
BRANCH   6  11
HETATM   11  O   UNK N   1      34.540  11.980  12.684  0.00  0.00    -0.351 OA
BRANCH  11  12
HETATM   12  C   UNK N   1      35.244  11.510  11.596  0.00  0.00     0.176 C 
BRANCH  12  13
HETATM   13  C   UNK N   1      35.708  12.682  10.746  0.00  0.00     0.038 C 
BRANCH  13  14
HETATM   14  C   UNK N   1      34.816  13.907  10.886  0.00  0.00     0.127 C 
BRANCH  14  15
HETATM   15  P   UNK N   1      35.783  15.389  11.479  0.00  0.00     0.235 P 
HETATM   16  O   UNK N   1      36.154  15.234  12.978  0.00  0.00    -0.653 OA
BRANCH  15  17
HETATM   17  O   UNK N   1      37.307  15.624  10.683  0.00  0.00    -0.329 OA
HETATM   18  H   UNK N   1      38.076  15.941  10.184  0.00  0.00     0.220 HD
ENDBRANCH  15  17
BRANCH  15  19
HETATM   19  O   UNK N   1      34.926  16.896  11.401  0.00  0.00    -0.329 OA
HETATM   20  H   UNK N   1      35.410  17.735  11.348  0.00  0.00     0.220 HD
ENDBRANCH  15  19
ENDBRANCH  14  15
ENDBRANCH  13  14
ENDBRANCH  12  13
ENDBRANCH  11  12
ENDBRANCH   6  11
BRANCH   9  21
HETATM   21  C   UNK N   1      35.172  14.145  17.545  0.00  0.00     0.144 C 
BRANCH  21  22
HETATM   22  C   UNK N   1      36.375  15.036  17.371  0.00  0.00     0.219 C 
HETATM   23  O   UNK N   1      36.763  15.781  18.249  0.00  0.00    -0.273 OA
HETATM   24  N   UNK N   1      37.030  15.012  16.196  0.00  0.00    -0.370 N 
HETATM   25  H   UNK N   1      36.736  14.404  15.479  0.00  0.00     0.159 HD
HETATM   26  H   UNK N   1      37.805  15.602  16.051  0.00  0.00     0.159 HD
ENDBRANCH  21  22
ENDBRANCH   9  21
BRANCH   7  27
HETATM   27  C   UNK N   1      35.348   8.966  18.308  0.00  0.00     0.167 C 
BRANCH  27  28
HETATM   28  C   UNK N   1      34.214   8.119  18.820  0.00  0.00    -0.040 A 
HETATM   29  C   UNK N   1      33.138   8.811  19.395  0.00  0.00     0.009 A 
HETATM   30  C   UNK N   1      32.034   8.124  19.907  0.00  0.00     0.001 A 
HETATM   31  C   UNK N   1      31.995   6.731  19.847  0.00  0.00     0.000 A 
HETATM   32  C   UNK N   1      33.061   6.030  19.278  0.00  0.00     0.001 A 
HETATM   33  C   UNK N   1      34.164   6.725  18.772  0.00  0.00     0.009 A 
ENDBRANCH  27  28
ENDBRANCH   7  27
TORSDOF 11
ENDMDL
MODEL 6
REMARK VINA RESULT:      -7.0     15.486     17.537
REMARK  11 active torsions:
REMARK  status: ('A' for Active; 'I' for Inactive)
REMARK    1  A    between atoms: C_6  and  O_22 
REMARK    2  A    between atoms: N_7  and  C_15 
REMARK    3  A    between atoms: C_9  and  C_10 
REMARK    4  A    between atoms: C_10  and  C_11 
REMARK       I    between atoms: C_11  and  N_13 
REMARK    5  A    between atoms: C_15  and  C_16 
REMARK    6  A    between atoms: O_22  and  C_23 
REMARK    7  A    between atoms: C_23  and  C_24 
REMARK    8  A    between atoms: C_24  and  C_25 
REMARK    9  A    between atoms: C_25  and  P_26 
REMARK   10  A    between atoms: P_26  and  O_28 
REMARK   11  A    between atoms: P_26  and  O_29 
ROOT
HETATM    1  C   UNK N   1      23.172  16.730   5.362  0.00  0.00     0.039 A 
HETATM    2  C   UNK N   1      23.200  15.640   6.239  0.00  0.00     0.033 A 
HETATM    3  C   UNK N   1      22.165  15.515   7.164  0.00  0.00     0.046 A 
HETATM    4  C   UNK N   1      21.151  16.427   7.235  0.00  0.00     0.002 A 
HETATM    5  C   UNK N   1      21.095  17.527   6.377  0.00  0.00     0.051 A 
HETATM    6  C   UNK N   1      22.120  17.678   5.421  0.00  0.00     0.069 A 
HETATM    7  N   UNK N   1      22.008  14.535   8.074  0.00  0.00    -0.345 N 
HETATM    8  C   UNK N   1      20.855  14.839   8.752  0.00  0.00     0.016 A 
HETATM    9  C   UNK N   1      20.294  16.031   8.236  0.00  0.00    -0.015 A 
HETATM   10  C   UNK N   1      20.285  14.049   9.865  0.00  0.00     0.069 C 
ENDROOT
BRANCH   6  11
HETATM   11  O   UNK N   1      22.075  18.723   4.563  0.00  0.00    -0.351 OA
BRANCH  11  12
HETATM   12  C   UNK N   1      21.959  18.570   3.198  0.00  0.00     0.176 C 
BRANCH  12  13
HETATM   13  C   UNK N   1      20.488  18.537   2.814  0.00  0.00     0.038 C 
BRANCH  13  14
HETATM   14  C   UNK N   1      19.937  17.123   2.694  0.00  0.00     0.127 C 
BRANCH  14  15
HETATM   15  P   UNK N   1      20.098  16.477   0.951  0.00  0.00     0.235 P 
HETATM   16  O   UNK N   1      20.425  17.632  -0.032  0.00  0.00    -0.653 OA
BRANCH  15  17
HETATM   17  O   UNK N   1      21.388  15.339   0.716  0.00  0.00    -0.329 OA
HETATM   18  H   UNK N   1      21.952  14.562   0.576  0.00  0.00     0.220 HD
ENDBRANCH  15  17
BRANCH  15  19
HETATM   19  O   UNK N   1      18.656  15.757   0.306  0.00  0.00    -0.329 OA
HETATM   20  H   UNK N   1      18.710  15.105  -0.410  0.00  0.00     0.220 HD
ENDBRANCH  15  19
ENDBRANCH  14  15
ENDBRANCH  13  14
ENDBRANCH  12  13
ENDBRANCH  11  12
ENDBRANCH   6  11
BRANCH   9  21
HETATM   21  C   UNK N   1      19.053  16.844   8.570  0.00  0.00     0.144 C 
BRANCH  21  22
HETATM   22  C   UNK N   1      19.038  18.112   9.383  0.00  0.00     0.219 C 
HETATM   23  O   UNK N   1      19.991  18.864   9.431  0.00  0.00    -0.273 OA
HETATM   24  N   UNK N   1      17.932  18.411  10.090  0.00  0.00    -0.370 N 
HETATM   25  H   UNK N   1      17.147  17.819  10.050  0.00  0.00     0.159 HD
HETATM   26  H   UNK N   1      17.908  19.223  10.646  0.00  0.00     0.159 HD
ENDBRANCH  21  22
ENDBRANCH   9  21
BRANCH   7  27
HETATM   27  C   UNK N   1      23.022  13.454   8.128  0.00  0.00     0.167 C 
BRANCH  27  28
HETATM   28  C   UNK N   1      22.953  12.114   7.445  0.00  0.00    -0.040 A 
HETATM   29  C   UNK N   1      23.718  11.089   8.020  0.00  0.00     0.009 A 
HETATM   30  C   UNK N   1      23.732   9.807   7.466  0.00  0.00     0.001 A 
HETATM   31  C   UNK N   1      22.976   9.536   6.325  0.00  0.00     0.000 A 
HETATM   32  C   UNK N   1      22.211  10.548   5.742  0.00  0.00     0.001 A 
HETATM   33  C   UNK N   1      22.206  11.830   6.301  0.00  0.00     0.009 A 
ENDBRANCH  27  28
ENDBRANCH   7  27
TORSDOF 11
ENDMDL
MODEL 7
REMARK VINA RESULT:      -6.8      8.476     12.853
REMARK  11 active torsions:
REMARK  status: ('A' for Active; 'I' for Inactive)
REMARK    1  A    between atoms: C_6  and  O_22 
REMARK    2  A    between atoms: N_7  and  C_15 
REMARK    3  A    between atoms: C_9  and  C_10 
REMARK    4  A    between atoms: C_10  and  C_11 
REMARK       I    between atoms: C_11  and  N_13 
REMARK    5  A    between atoms: C_15  and  C_16 
REMARK    6  A    between atoms: O_22  and  C_23 
REMARK    7  A    between atoms: C_23  and  C_24 
REMARK    8  A    between atoms: C_24  and  C_25 
REMARK    9  A    between atoms: C_25  and  P_26 
REMARK   10  A    between atoms: P_26  and  O_28 
REMARK   11  A    between atoms: P_26  and  O_29 
ROOT
HETATM    1  C   UNK N   1      31.371  16.113   3.060  0.00  0.00     0.039 A 
HETATM    2  C   UNK N   1      30.507  16.553   4.068  0.00  0.00     0.033 A 
HETATM    3  C   UNK N   1      31.058  16.902   5.300  0.00  0.00     0.046 A 
HETATM    4  C   UNK N   1      32.400  16.814   5.537  0.00  0.00     0.002 A 
HETATM    5  C   UNK N   1      33.289  16.376   4.553  0.00  0.00     0.051 A 
HETATM    6  C   UNK N   1      32.767  16.026   3.292  0.00  0.00     0.069 A 
HETATM    7  N   UNK N   1      30.397  17.357   6.381  0.00  0.00    -0.345 N 
HETATM    8  C   UNK N   1      31.355  17.560   7.343  0.00  0.00     0.016 A 
HETATM    9  C   UNK N   1      32.630  17.225   6.830  0.00  0.00    -0.015 A 
HETATM   10  C   UNK N   1      31.097  18.045   8.716  0.00  0.00     0.069 C 
ENDROOT
BRANCH   6  11
HETATM   11  O   UNK N   1      33.612  15.622   2.316  0.00  0.00    -0.351 OA
BRANCH  11  12
HETATM   12  C   UNK N   1      34.337  14.451   2.387  0.00  0.00     0.176 C 
BRANCH  12  13
HETATM   13  C   UNK N   1      33.458  13.344   2.949  0.00  0.00     0.038 C 
BRANCH  13  14
HETATM   14  C   UNK N   1      34.019  12.730   4.224  0.00  0.00     0.127 C 
BRANCH  14  15
HETATM   15  P   UNK N   1      32.735  12.682   5.576  0.00  0.00     0.235 P 
HETATM   16  O   UNK N   1      31.394  13.281   5.077  0.00  0.00    -0.653 OA
BRANCH  15  17
HETATM   17  O   UNK N   1      32.316  11.089   6.122  0.00  0.00    -0.329 OA
HETATM   18  H   UNK N   1      32.138  10.273   6.615  0.00  0.00     0.220 HD
ENDBRANCH  15  17
BRANCH  15  19
HETATM   19  O   UNK N   1      33.127  13.619   6.984  0.00  0.00    -0.329 OA
HETATM   20  H   UNK N   1      32.830  14.539   7.062  0.00  0.00     0.220 HD
ENDBRANCH  15  19
ENDBRANCH  14  15
ENDBRANCH  13  14
ENDBRANCH  12  13
ENDBRANCH  11  12
ENDBRANCH   6  11
BRANCH   9  21
HETATM   21  C   UNK N   1      34.036  17.241   7.406  0.00  0.00     0.144 C 
BRANCH  21  22
HETATM   22  C   UNK N   1      34.475  16.514   8.651  0.00  0.00     0.219 C 
HETATM   23  O   UNK N   1      34.796  15.342   8.638  0.00  0.00    -0.273 OA
HETATM   24  N   UNK N   1      34.497  17.187   9.816  0.00  0.00    -0.370 N 
HETATM   25  H   UNK N   1      34.253  18.141   9.840  0.00  0.00     0.159 HD
HETATM   26  H   UNK N   1      34.759  16.726  10.646  0.00  0.00     0.159 HD
ENDBRANCH  21  22
ENDBRANCH   9  21
BRANCH   7  27
HETATM   27  C   UNK N   1      28.926  17.521   6.292  0.00  0.00     0.167 C 
BRANCH  27  28
HETATM   28  C   UNK N   1      28.172  18.797   6.029  0.00  0.00    -0.040 A 
HETATM   29  C   UNK N   1      27.824  19.044   4.693  0.00  0.00     0.009 A 
HETATM   30  C   UNK N   1      27.127  20.201   4.335  0.00  0.00     0.001 A 
HETATM   31  C   UNK N   1      26.769  21.126   5.316  0.00  0.00     0.000 A 
HETATM   32  C   UNK N   1      27.110  20.892   6.649  0.00  0.00     0.001 A 
HETATM   33  C   UNK N   1      27.812  19.734   6.998  0.00  0.00     0.009 A 
ENDBRANCH  27  28
ENDBRANCH   7  27
TORSDOF 11
ENDMDL
MODEL 8
REMARK VINA RESULT:      -6.8     12.217     15.236
REMARK  11 active torsions:
REMARK  status: ('A' for Active; 'I' for Inactive)
REMARK    1  A    between atoms: C_6  and  O_22 
REMARK    2  A    between atoms: N_7  and  C_15 
REMARK    3  A    between atoms: C_9  and  C_10 
REMARK    4  A    between atoms: C_10  and  C_11 
REMARK       I    between atoms: C_11  and  N_13 
REMARK    5  A    between atoms: C_15  and  C_16 
REMARK    6  A    between atoms: O_22  and  C_23 
REMARK    7  A    between atoms: C_23  and  C_24 
REMARK    8  A    between atoms: C_24  and  C_25 
REMARK    9  A    between atoms: C_25  and  P_26 
REMARK   10  A    between atoms: P_26  and  O_28 
REMARK   11  A    between atoms: P_26  and  O_29 
ROOT
HETATM    1  C   UNK N   1      26.194  14.202   6.098  0.00  0.00     0.039 A 
HETATM    2  C   UNK N   1      25.054  13.687   6.725  0.00  0.00     0.033 A 
HETATM    3  C   UNK N   1      23.905  14.476   6.751  0.00  0.00     0.046 A 
HETATM    4  C   UNK N   1      23.878  15.723   6.193  0.00  0.00     0.002 A 
HETATM    5  C   UNK N   1      24.999  16.267   5.563  0.00  0.00     0.051 A 
HETATM    6  C   UNK N   1      26.174  15.491   5.509  0.00  0.00     0.069 A 
HETATM    7  N   UNK N   1      22.714  14.153   7.289  0.00  0.00    -0.345 N 
HETATM    8  C   UNK N   1      21.902  15.238   7.071  0.00  0.00     0.016 A 
HETATM    9  C   UNK N   1      22.617  16.242   6.378  0.00  0.00    -0.015 A 
HETATM   10  C   UNK N   1      20.493  15.350   7.506  0.00  0.00     0.069 C 
ENDROOT
BRANCH   6  11
HETATM   11  O   UNK N   1      27.266  15.987   4.883  0.00  0.00    -0.351 OA
BRANCH  11  12
HETATM   12  C   UNK N   1      27.985  17.060   5.365  0.00  0.00     0.176 C 
BRANCH  12  13
HETATM   13  C   UNK N   1      28.943  16.585   6.447  0.00  0.00     0.038 C 
BRANCH  13  14
HETATM   14  C   UNK N   1      29.517  17.725   7.275  0.00  0.00     0.127 C 
BRANCH  14  15
HETATM   15  P   UNK N   1      28.372  18.195   8.671  0.00  0.00     0.235 P 
HETATM   16  O   UNK N   1      29.183  18.644   9.915  0.00  0.00    -0.653 OA
BRANCH  15  17
HETATM   17  O   UNK N   1      27.329  19.540   8.332  0.00  0.00    -0.329 OA
HETATM   18  H   UNK N   1      26.691  20.177   7.974  0.00  0.00     0.220 HD
ENDBRANCH  15  17
BRANCH  15  19
HETATM   19  O   UNK N   1      27.370  16.903   9.254  0.00  0.00    -0.329 OA
HETATM   20  H   UNK N   1      26.821  16.391   8.640  0.00  0.00     0.220 HD
ENDBRANCH  15  19
ENDBRANCH  14  15
ENDBRANCH  13  14
ENDBRANCH  12  13
ENDBRANCH  11  12
ENDBRANCH   6  11
BRANCH   9  21
HETATM   21  C   UNK N   1      22.261  17.630   5.869  0.00  0.00     0.144 C 
BRANCH  21  22
HETATM   22  C   UNK N   1      21.555  17.925   4.570  0.00  0.00     0.219 C 
HETATM   23  O   UNK N   1      21.941  18.783   3.803  0.00  0.00    -0.273 OA
HETATM   24  N   UNK N   1      20.451  17.219   4.263  0.00  0.00    -0.370 N 
HETATM   25  H   UNK N   1      20.134  16.511   4.869  0.00  0.00     0.159 HD
HETATM   26  H   UNK N   1      19.960  17.410   3.431  0.00  0.00     0.159 HD
ENDBRANCH  21  22
ENDBRANCH   9  21
BRANCH   7  27
HETATM   27  C   UNK N   1      22.567  12.825   7.931  0.00  0.00     0.167 C 
BRANCH  27  28
HETATM   28  C   UNK N   1      22.639  12.518   9.403  0.00  0.00    -0.040 A 
HETATM   29  C   UNK N   1      23.921  12.295   9.925  0.00  0.00     0.009 A 
HETATM   30  C   UNK N   1      24.103  11.997  11.277  0.00  0.00     0.001 A 
HETATM   31  C   UNK N   1      22.999  11.921  12.126  0.00  0.00     0.000 A 
HETATM   32  C   UNK N   1      21.717  12.140  11.618  0.00  0.00     0.001 A 
HETATM   33  C   UNK N   1      21.543  12.432  10.262  0.00  0.00     0.009 A 
ENDBRANCH  27  28
ENDBRANCH   7  27
TORSDOF 11
ENDMDL
MODEL 9
REMARK VINA RESULT:      -6.8      9.315     14.698
REMARK  11 active torsions:
REMARK  status: ('A' for Active; 'I' for Inactive)
REMARK    1  A    between atoms: C_6  and  O_22 
REMARK    2  A    between atoms: N_7  and  C_15 
REMARK    3  A    between atoms: C_9  and  C_10 
REMARK    4  A    between atoms: C_10  and  C_11 
REMARK       I    between atoms: C_11  and  N_13 
REMARK    5  A    between atoms: C_15  and  C_16 
REMARK    6  A    between atoms: O_22  and  C_23 
REMARK    7  A    between atoms: C_23  and  C_24 
REMARK    8  A    between atoms: C_24  and  C_25 
REMARK    9  A    between atoms: C_25  and  P_26 
REMARK   10  A    between atoms: P_26  and  O_28 
REMARK   11  A    between atoms: P_26  and  O_29 
ROOT
HETATM    1  C   UNK N   1      29.092  16.173   4.035  0.00  0.00     0.039 A 
HETATM    2  C   UNK N   1      28.237  17.271   3.884  0.00  0.00     0.033 A 
HETATM    3  C   UNK N   1      28.050  18.114   4.978  0.00  0.00     0.046 A 
HETATM    4  C   UNK N   1      28.668  17.886   6.174  0.00  0.00     0.002 A 
HETATM    5  C   UNK N   1      29.524  16.798   6.360  0.00  0.00     0.051 A 
HETATM    6  C   UNK N   1      29.745  15.932   5.270  0.00  0.00     0.069 A 
HETATM    7  N   UNK N   1      27.284  19.221   5.024  0.00  0.00    -0.345 N 
HETATM    8  C   UNK N   1      27.415  19.709   6.299  0.00  0.00     0.016 A 
HETATM    9  C   UNK N   1      28.288  18.882   7.044  0.00  0.00    -0.015 A 
HETATM   10  C   UNK N   1      26.738  20.915   6.826  0.00  0.00     0.069 C 
ENDROOT
BRANCH   6  11
HETATM   11  O   UNK N   1      30.589  14.885   5.419  0.00  0.00    -0.351 OA
BRANCH  11  12
HETATM   12  C   UNK N   1      31.746  14.744   4.682  0.00  0.00     0.176 C 
BRANCH  12  13
HETATM   13  C   UNK N   1      32.853  14.202   5.573  0.00  0.00     0.038 C 
BRANCH  13  14
HETATM   14  C   UNK N   1      32.716  14.642   7.024  0.00  0.00     0.127 C 
BRANCH  14  15
HETATM   15  P   UNK N   1      33.682  16.204   7.353  0.00  0.00     0.235 P 
HETATM   16  O   UNK N   1      32.723  17.386   7.655  0.00  0.00    -0.653 OA
BRANCH  15  17
HETATM   17  O   UNK N   1      34.723  16.133   8.740  0.00  0.00    -0.329 OA
HETATM   18  H   UNK N   1      35.387  16.269   9.434  0.00  0.00     0.220 HD
ENDBRANCH  15  17
BRANCH  15  19
HETATM   19  O   UNK N   1      34.643  16.759   6.019  0.00  0.00    -0.329 OA
HETATM   20  H   UNK N   1      34.885  17.696   5.943  0.00  0.00     0.220 HD
ENDBRANCH  15  19
ENDBRANCH  14  15
ENDBRANCH  13  14
ENDBRANCH  12  13
ENDBRANCH  11  12
ENDBRANCH   6  11
BRANCH   9  21
HETATM   21  C   UNK N   1      28.807  18.912   8.472  0.00  0.00     0.144 C 
BRANCH  21  22
HETATM   22  C   UNK N   1      28.625  17.812   9.487  0.00  0.00     0.219 C 
HETATM   23  O   UNK N   1      27.587  17.189   9.588  0.00  0.00    -0.273 OA
HETATM   24  N   UNK N   1      29.645  17.524  10.315  0.00  0.00    -0.370 N 
HETATM   25  H   UNK N   1      30.497  18.012  10.237  0.00  0.00     0.159 HD
HETATM   26  H   UNK N   1      29.541  16.825  11.001  0.00  0.00     0.159 HD
ENDBRANCH  21  22
ENDBRANCH   9  21
BRANCH   7  27
HETATM   27  C   UNK N   1      26.546  19.619   3.801  0.00  0.00     0.167 C 
BRANCH  27  28
HETATM   28  C   UNK N   1      25.053  19.650   3.614  0.00  0.00    -0.040 A 
HETATM   29  C   UNK N   1      24.334  18.610   4.222  0.00  0.00     0.009 A 
HETATM   30  C   UNK N   1      22.944  18.537   4.109  0.00  0.00     0.001 A 
HETATM   31  C   UNK N   1      22.255  19.510   3.384  0.00  0.00     0.000 A 
HETATM   32  C   UNK N   1      22.959  20.550   2.774  0.00  0.00     0.001 A 
HETATM   33  C   UNK N   1      24.351  20.612   2.888  0.00  0.00     0.009 A 
ENDBRANCH  27  28
ENDBRANCH   7  27
TORSDOF 11
ENDMDL
