MODEL 1
REMARK VINA RESULT:      -7.1      0.000      0.000
REMARK  5 active torsions:
REMARK  status: ('A' for Active; 'I' for Inactive)
REMARK    1  A    between atoms: C_6  and  O_25 
REMARK    2  A    between atoms: C_9  and  C_13 
REMARK    3  A    between atoms: C_13  and  O_14 
REMARK    4  A    between atoms: O_14  and  C_15 
REMARK    5  A    between atoms: C_18  and  N_21 
ROOT
HETATM    1  C   UNK N   1      27.954  30.226  -5.001  0.00  0.00     0.098 A 
HETATM    2  C   UNK N   1      28.308  29.625  -6.322  0.00  0.00     0.202 A 
HETATM    3  C   UNK N   1      27.644  28.367  -6.711  0.00  0.00     0.100 A 
HETATM    4  C   UNK N   1      26.740  27.786  -5.880  0.00  0.00     0.058 A 
HETATM    5  C   UNK N   1      26.383  28.369  -4.576  0.00  0.00     0.218 A 
HETATM    6  C   UNK N   1      27.052  29.650  -4.167  0.00  0.00     0.123 A 
HETATM    7  N   UNK N   1      27.782  27.627  -7.834  0.00  0.00    -0.350 N 
HETATM    8  C   UNK N   1      26.950  26.561  -7.706  0.00  0.00     0.017 A 
HETATM    9  C   UNK N   1      26.285  26.641  -6.487  0.00  0.00     0.005 A 
HETATM   10  O   UNK N   1      25.565  27.817  -3.856  0.00  0.00    -0.284 OA
HETATM   11  O   UNK N   1      29.123  30.166  -7.049  0.00  0.00    -0.286 OA
HETATM   12  C   UNK N   1      28.655  27.916  -8.962  0.00  0.00     0.156 C 
HETATM   13  C   UNK N   1      26.791  25.486  -8.729  0.00  0.00     0.069 C 
ENDROOT
BRANCH   9  14
HETATM   14  C   UNK N   1      25.275  25.790  -5.803  0.00  0.00     0.217 C 
BRANCH  14  15
HETATM   15  O   UNK N   1      25.511  24.457  -5.561  0.00  0.00    -0.347 OA
BRANCH  15  16
HETATM   16  C   UNK N   1      26.651  24.144  -4.882  0.00  0.00     0.069 A 
HETATM   17  C   UNK N   1      27.780  23.656  -5.552  0.00  0.00     0.039 A 
HETATM   18  C   UNK N   1      28.943  23.341  -4.826  0.00  0.00     0.039 A 
HETATM   19  C   UNK N   1      28.983  23.511  -3.426  0.00  0.00     0.103 A 
HETATM   20  C   UNK N   1      27.856  23.997  -2.767  0.00  0.00     0.039 A 
HETATM   21  C   UNK N   1      26.711  24.307  -3.481  0.00  0.00     0.039 A 
BRANCH  19  22
HETATM   22  N   UNK N   1      30.150  23.198  -2.677  0.00  0.00    -0.116 N 
HETATM   23  O   UNK N   1      31.304  23.033  -3.294  0.00  0.00    -0.532 OA
HETATM   24  O   UNK N   1      30.097  23.081  -1.492  0.00  0.00    -0.532 OA
ENDBRANCH  19  22
ENDBRANCH  15  16
ENDBRANCH  14  15
ENDBRANCH   9  14
BRANCH   6  25
HETATM   25  O   UNK N   1      26.787  30.264  -2.982  0.00  0.00    -0.352 OA
HETATM   26  C   UNK N   1      27.743  30.651  -2.070  0.00  0.00     0.210 C 
ENDBRANCH   6  25
TORSDOF 5
ENDMDL
MODEL 2
REMARK VINA RESULT:      -6.9     14.157     17.880
REMARK  5 active torsions:
REMARK  status: ('A' for Active; 'I' for Inactive)
REMARK    1  A    between atoms: C_6  and  O_25 
REMARK    2  A    between atoms: C_9  and  C_13 
REMARK    3  A    between atoms: C_13  and  O_14 
REMARK    4  A    between atoms: O_14  and  C_15 
REMARK    5  A    between atoms: C_18  and  N_21 
ROOT
HETATM    1  C   UNK N   1      22.360  12.731   9.941  0.00  0.00     0.098 A 
HETATM    2  C   UNK N   1      23.521  13.078   9.067  0.00  0.00     0.202 A 
HETATM    3  C   UNK N   1      23.305  14.057   7.985  0.00  0.00     0.100 A 
HETATM    4  C   UNK N   1      22.080  14.615   7.804  0.00  0.00     0.058 A 
HETATM    5  C   UNK N   1      20.929  14.281   8.658  0.00  0.00     0.218 A 
HETATM    6  C   UNK N   1      21.135  13.286   9.764  0.00  0.00     0.123 A 
HETATM    7  N   UNK N   1      24.174  14.538   7.068  0.00  0.00    -0.350 N 
HETATM    8  C   UNK N   1      23.483  15.415   6.295  0.00  0.00     0.017 A 
HETATM    9  C   UNK N   1      22.165  15.479   6.739  0.00  0.00     0.005 A 
HETATM   10  O   UNK N   1      19.843  14.804   8.463  0.00  0.00    -0.284 OA
HETATM   11  O   UNK N   1      24.610  12.562   9.252  0.00  0.00    -0.286 OA
HETATM   12  C   UNK N   1      25.580  14.183   6.934  0.00  0.00     0.156 C 
HETATM   13  C   UNK N   1      24.067  16.177   5.153  0.00  0.00     0.069 C 
ENDROOT
BRANCH   9  14
HETATM   14  C   UNK N   1      20.965  16.241   6.305  0.00  0.00     0.217 C 
BRANCH  14  15
HETATM   15  O   UNK N   1      20.423  16.066   5.053  0.00  0.00    -0.347 OA
BRANCH  15  16
HETATM   16  C   UNK N   1      20.580  17.086   4.162  0.00  0.00     0.069 A 
HETATM   17  C   UNK N   1      20.188  16.945   2.826  0.00  0.00     0.039 A 
HETATM   18  C   UNK N   1      20.363  18.014   1.928  0.00  0.00     0.039 A 
HETATM   19  C   UNK N   1      20.931  19.230   2.363  0.00  0.00     0.103 A 
HETATM   20  C   UNK N   1      21.319  19.363   3.694  0.00  0.00     0.039 A 
HETATM   21  C   UNK N   1      21.147  18.311   4.578  0.00  0.00     0.039 A 
BRANCH  19  22
HETATM   22  N   UNK N   1      21.115  20.320   1.470  0.00  0.00    -0.116 N 
HETATM   23  O   UNK N   1      20.842  20.175   0.188  0.00  0.00    -0.532 OA
HETATM   24  O   UNK N   1      21.516  21.370   1.868  0.00  0.00    -0.532 OA
ENDBRANCH  19  22
ENDBRANCH  15  16
ENDBRANCH  14  15
ENDBRANCH   9  14
BRANCH   6  25
HETATM   25  O   UNK N   1      20.131  12.914  10.605  0.00  0.00    -0.352 OA
HETATM   26  C   UNK N   1      20.289  12.084  11.692  0.00  0.00     0.210 C 
ENDBRANCH   6  25
TORSDOF 5
ENDMDL
MODEL 3
REMARK VINA RESULT:      -6.6     11.332     15.229
REMARK  5 active torsions:
REMARK  status: ('A' for Active; 'I' for Inactive)
REMARK    1  A    between atoms: C_6  and  O_25 
REMARK    2  A    between atoms: C_9  and  C_13 
REMARK    3  A    between atoms: C_13  and  O_14 
REMARK    4  A    between atoms: O_14  and  C_15 
REMARK    5  A    between atoms: C_18  and  N_21 
ROOT
HETATM    1  C   UNK N   1      34.123  16.803   7.132  0.00  0.00     0.098 A 
HETATM    2  C   UNK N   1      33.610  16.490   5.765  0.00  0.00     0.202 A 
HETATM    3  C   UNK N   1      32.165  16.649   5.514  0.00  0.00     0.100 A 
HETATM    4  C   UNK N   1      31.342  17.069   6.508  0.00  0.00     0.058 A 
HETATM    5  C   UNK N   1      31.836  17.381   7.859  0.00  0.00     0.218 A 
HETATM    6  C   UNK N   1      33.305  17.223   8.129  0.00  0.00     0.123 A 
HETATM    7  N   UNK N   1      31.455  16.435   4.383  0.00  0.00    -0.350 N 
HETATM    8  C   UNK N   1      30.161  16.726   4.673  0.00  0.00     0.017 A 
HETATM    9  C   UNK N   1      30.066  17.127   6.002  0.00  0.00     0.005 A 
HETATM   10  O   UNK N   1      31.063  17.756   8.728  0.00  0.00    -0.284 OA
HETATM   11  O   UNK N   1      34.372  16.114   4.889  0.00  0.00    -0.286 OA
HETATM   12  C   UNK N   1      31.978  15.981   3.103  0.00  0.00     0.156 C 
HETATM   13  C   UNK N   1      29.034  16.625   3.700  0.00  0.00     0.069 C 
ENDROOT
BRANCH   9  14
HETATM   14  C   UNK N   1      28.941  17.559   6.873  0.00  0.00     0.217 C 
BRANCH  14  15
HETATM   15  O   UNK N   1      28.507  18.863   6.883  0.00  0.00    -0.347 OA
BRANCH  15  16
HETATM   16  C   UNK N   1      27.590  19.217   5.938  0.00  0.00     0.069 A 
HETATM   17  C   UNK N   1      27.689  20.436   5.256  0.00  0.00     0.039 A 
HETATM   18  C   UNK N   1      26.729  20.776   4.285  0.00  0.00     0.039 A 
HETATM   19  C   UNK N   1      25.665  19.897   3.991  0.00  0.00     0.103 A 
HETATM   20  C   UNK N   1      25.573  18.686   4.673  0.00  0.00     0.039 A 
HETATM   21  C   UNK N   1      26.518  18.352   5.629  0.00  0.00     0.039 A 
BRANCH  19  22
HETATM   22  N   UNK N   1      24.686  20.224   3.014  0.00  0.00    -0.116 N 
HETATM   23  O   UNK N   1      23.420  19.923   3.223  0.00  0.00    -0.532 OA
HETATM   24  O   UNK N   1      24.999  20.769   2.001  0.00  0.00    -0.532 OA
ENDBRANCH  19  22
ENDBRANCH  15  16
ENDBRANCH  14  15
ENDBRANCH   9  14
BRANCH   6  25
HETATM   25  O   UNK N   1      33.854  17.487   9.346  0.00  0.00    -0.352 OA
HETATM   26  C   UNK N   1      34.920  16.804   9.888  0.00  0.00     0.210 C 
ENDBRANCH   6  25
TORSDOF 5
ENDMDL
MODEL 4
REMARK VINA RESULT:      -6.6      2.079      4.528
REMARK  5 active torsions:
REMARK  status: ('A' for Active; 'I' for Inactive)
REMARK    1  A    between atoms: C_6  and  O_25 
REMARK    2  A    between atoms: C_9  and  C_13 
REMARK    3  A    between atoms: C_13  and  O_14 
REMARK    4  A    between atoms: O_14  and  C_15 
REMARK    5  A    between atoms: C_18  and  N_21 
ROOT
HETATM    1  C   UNK N   1      26.148  23.934  -9.621  0.00  0.00     0.098 A 
HETATM    2  C   UNK N   1      27.101  25.046  -9.914  0.00  0.00     0.202 A 
HETATM    3  C   UNK N   1      27.301  26.078  -8.879  0.00  0.00     0.100 A 
HETATM    4  C   UNK N   1      26.631  26.001  -7.700  0.00  0.00     0.058 A 
HETATM    5  C   UNK N   1      25.690  24.910  -7.400  0.00  0.00     0.218 A 
HETATM    6  C   UNK N   1      25.476  23.853  -8.445  0.00  0.00     0.123 A 
HETATM    7  N   UNK N   1      28.094  27.172  -8.890  0.00  0.00    -0.350 N 
HETATM    8  C   UNK N   1      27.919  27.796  -7.697  0.00  0.00     0.017 A 
HETATM    9  C   UNK N   1      27.004  27.078  -6.933  0.00  0.00     0.005 A 
HETATM   10  O   UNK N   1      25.105  24.876  -6.328  0.00  0.00    -0.284 OA
HETATM   11  O   UNK N   1      27.691  25.091 -10.981  0.00  0.00    -0.286 OA
HETATM   12  C   UNK N   1      28.968  27.600  -9.974  0.00  0.00     0.156 C 
HETATM   13  C   UNK N   1      28.611  29.054  -7.291  0.00  0.00     0.069 C 
ENDROOT
BRANCH   9  14
HETATM   14  C   UNK N   1      26.424  27.258  -5.576  0.00  0.00     0.217 C 
BRANCH  14  15
HETATM   15  O   UNK N   1      27.228  27.414  -4.471  0.00  0.00    -0.347 OA
BRANCH  15  16
HETATM   16  C   UNK N   1      27.950  26.328  -4.073  0.00  0.00     0.069 A 
HETATM   17  C   UNK N   1      29.349  26.351  -4.072  0.00  0.00     0.039 A 
HETATM   18  C   UNK N   1      30.068  25.216  -3.656  0.00  0.00     0.039 A 
HETATM   19  C   UNK N   1      29.391  24.051  -3.239  0.00  0.00     0.103 A 
HETATM   20  C   UNK N   1      27.998  24.035  -3.242  0.00  0.00     0.039 A 
HETATM   21  C   UNK N   1      27.290  25.153  -3.652  0.00  0.00     0.039 A 
BRANCH  19  22
HETATM   22  N   UNK N   1      30.101  22.895  -2.815  0.00  0.00    -0.116 N 
HETATM   23  O   UNK N   1      30.082  21.803  -3.553  0.00  0.00    -0.532 OA
HETATM   24  O   UNK N   1      30.718  22.902  -1.795  0.00  0.00    -0.532 OA
ENDBRANCH  19  22
ENDBRANCH  15  16
ENDBRANCH  14  15
ENDBRANCH   9  14
BRANCH   6  25
HETATM   25  O   UNK N   1      24.627  22.806  -8.260  0.00  0.00    -0.352 OA
HETATM   26  C   UNK N   1      25.018  21.533  -7.909  0.00  0.00     0.210 C 
ENDBRANCH   6  25
TORSDOF 5
ENDMDL
MODEL 5
REMARK VINA RESULT:      -6.5     16.060     19.481
REMARK  5 active torsions:
REMARK  status: ('A' for Active; 'I' for Inactive)
REMARK    1  A    between atoms: C_6  and  O_25 
REMARK    2  A    between atoms: C_9  and  C_13 
REMARK    3  A    between atoms: C_13  and  O_14 
REMARK    4  A    between atoms: O_14  and  C_15 
REMARK    5  A    between atoms: C_18  and  N_21 
ROOT
HETATM    1  C   UNK N   1      36.216  13.634  11.223  0.00  0.00     0.098 A 
HETATM    2  C   UNK N   1      36.063  13.161   9.814  0.00  0.00     0.202 A 
HETATM    3  C   UNK N   1      35.577  14.125   8.809  0.00  0.00     0.100 A 
HETATM    4  C   UNK N   1      35.283  15.400   9.172  0.00  0.00     0.058 A 
HETATM    5  C   UNK N   1      35.430  15.877  10.557  0.00  0.00     0.218 A 
HETATM    6  C   UNK N   1      35.924  14.906  11.591  0.00  0.00     0.123 A 
HETATM    7  N   UNK N   1      35.353  13.956   7.486  0.00  0.00    -0.350 N 
HETATM    8  C   UNK N   1      34.910  15.148   7.009  0.00  0.00     0.017 A 
HETATM    9  C   UNK N   1      34.858  16.070   8.050  0.00  0.00     0.005 A 
HETATM   10  O   UNK N   1      35.155  17.032  10.844  0.00  0.00    -0.284 OA
HETATM   11  O   UNK N   1      36.334  12.010   9.515  0.00  0.00    -0.286 OA
HETATM   12  C   UNK N   1      35.549  12.733   6.722  0.00  0.00     0.156 C 
HETATM   13  C   UNK N   1      34.543  15.404   5.586  0.00  0.00     0.069 C 
ENDROOT
BRANCH   9  14
HETATM   14  C   UNK N   1      34.464  17.500   8.145  0.00  0.00     0.217 C 
BRANCH  14  15
HETATM   15  O   UNK N   1      33.554  18.050   7.273  0.00  0.00    -0.347 OA
BRANCH  15  16
HETATM   16  C   UNK N   1      32.236  17.813   7.523  0.00  0.00     0.069 A 
HETATM   17  C   UNK N   1      31.457  17.055   6.642  0.00  0.00     0.039 A 
HETATM   18  C   UNK N   1      30.098  16.827   6.926  0.00  0.00     0.039 A 
HETATM   19  C   UNK N   1      29.511  17.358   8.094  0.00  0.00     0.103 A 
HETATM   20  C   UNK N   1      30.292  18.112   8.966  0.00  0.00     0.039 A 
HETATM   21  C   UNK N   1      31.629  18.336   8.687  0.00  0.00     0.039 A 
BRANCH  19  22
HETATM   22  N   UNK N   1      28.140  17.137   8.397  0.00  0.00    -0.116 N 
HETATM   23  O   UNK N   1      27.335  16.636   7.480  0.00  0.00    -0.532 OA
HETATM   24  O   UNK N   1      27.706  17.402   9.475  0.00  0.00    -0.532 OA
ENDBRANCH  19  22
ENDBRANCH  15  16
ENDBRANCH  14  15
ENDBRANCH   9  14
BRANCH   6  25
HETATM   25  O   UNK N   1      36.092  15.255  12.896  0.00  0.00    -0.352 OA
HETATM   26  C   UNK N   1      36.403  14.373  13.907  0.00  0.00     0.210 C 
ENDBRANCH   6  25
TORSDOF 5
ENDMDL
MODEL 6
REMARK VINA RESULT:      -6.5     12.893     15.611
REMARK  5 active torsions:
REMARK  status: ('A' for Active; 'I' for Inactive)
REMARK    1  A    between atoms: C_6  and  O_25 
REMARK    2  A    between atoms: C_9  and  C_13 
REMARK    3  A    between atoms: C_13  and  O_14 
REMARK    4  A    between atoms: O_14  and  C_15 
REMARK    5  A    between atoms: C_18  and  N_21 
ROOT
HETATM    1  C   UNK N   1      25.131  19.682   3.959  0.00  0.00     0.098 A 
HETATM    2  C   UNK N   1      23.943  20.197   3.213  0.00  0.00     0.202 A 
HETATM    3  C   UNK N   1      22.686  19.430   3.298  0.00  0.00     0.100 A 
HETATM    4  C   UNK N   1      22.630  18.291   4.036  0.00  0.00     0.058 A 
HETATM    5  C   UNK N   1      23.793  17.774   4.774  0.00  0.00     0.218 A 
HETATM    6  C   UNK N   1      25.080  18.545   4.697  0.00  0.00     0.123 A 
HETATM    7  N   UNK N   1      21.485  19.673   2.729  0.00  0.00    -0.350 N 
HETATM    8  C   UNK N   1      20.657  18.668   3.116  0.00  0.00     0.017 A 
HETATM    9  C   UNK N   1      21.355  17.789   3.938  0.00  0.00     0.005 A 
HETATM   10  O   UNK N   1      23.703  16.746   5.428  0.00  0.00    -0.284 OA
HETATM   11  O   UNK N   1      24.021  21.222   2.558  0.00  0.00    -0.286 OA
HETATM   12  C   UNK N   1      21.144  20.795   1.866  0.00  0.00     0.156 C 
HETATM   13  C   UNK N   1      19.226  18.549   2.711  0.00  0.00     0.069 C 
ENDROOT
BRANCH   9  14
HETATM   14  C   UNK N   1      20.995  16.534   4.650  0.00  0.00     0.217 C 
BRANCH  14  15
HETATM   15  O   UNK N   1      20.041  16.524   5.640  0.00  0.00    -0.347 OA
BRANCH  15  16
HETATM   16  C   UNK N   1      20.278  15.728   6.721  0.00  0.00     0.069 A 
HETATM   17  C   UNK N   1      20.929  14.497   6.582  0.00  0.00     0.039 A 
HETATM   18  C   UNK N   1      21.161  13.695   7.714  0.00  0.00     0.039 A 
HETATM   19  C   UNK N   1      20.743  14.122   8.993  0.00  0.00     0.103 A 
HETATM   20  C   UNK N   1      20.096  15.349   9.123  0.00  0.00     0.039 A 
HETATM   21  C   UNK N   1      19.867  16.137   8.008  0.00  0.00     0.039 A 
BRANCH  19  22
HETATM   22  N   UNK N   1      20.969  13.326  10.148  0.00  0.00    -0.116 N 
HETATM   23  O   UNK N   1      19.948  12.795  10.793  0.00  0.00    -0.532 OA
HETATM   24  O   UNK N   1      22.077  13.130  10.543  0.00  0.00    -0.532 OA
ENDBRANCH  19  22
ENDBRANCH  15  16
ENDBRANCH  14  15
ENDBRANCH   9  14
BRANCH   6  25
HETATM   25  O   UNK N   1      26.208  18.146   5.345  0.00  0.00    -0.352 OA
HETATM   26  C   UNK N   1      27.489  18.472   4.959  0.00  0.00     0.210 C 
ENDBRANCH   6  25
TORSDOF 5
ENDMDL
MODEL 7
REMARK VINA RESULT:      -6.5     15.472     18.450
REMARK  5 active torsions:
REMARK  status: ('A' for Active; 'I' for Inactive)
REMARK    1  A    between atoms: C_6  and  O_25 
REMARK    2  A    between atoms: C_9  and  C_13 
REMARK    3  A    between atoms: C_13  and  O_14 
REMARK    4  A    between atoms: O_14  and  C_15 
REMARK    5  A    between atoms: C_18  and  N_21 
ROOT
HETATM    1  C   UNK N   1      20.007  17.343   7.780  0.00  0.00     0.098 A 
HETATM    2  C   UNK N   1      21.086  17.805   6.857  0.00  0.00     0.202 A 
HETATM    3  C   UNK N   1      21.864  16.783   6.134  0.00  0.00     0.100 A 
HETATM    4  C   UNK N   1      21.594  15.464   6.315  0.00  0.00     0.058 A 
HETATM    5  C   UNK N   1      20.533  14.996   7.222  0.00  0.00     0.218 A 
HETATM    6  C   UNK N   1      19.732  16.027   7.965  0.00  0.00     0.123 A 
HETATM    7  N   UNK N   1      22.879  16.931   5.253  0.00  0.00    -0.350 N 
HETATM    8  C   UNK N   1      23.254  15.682   4.873  0.00  0.00     0.017 A 
HETATM    9  C   UNK N   1      22.460  14.745   5.528  0.00  0.00     0.005 A 
HETATM   10  O   UNK N   1      20.320  13.801   7.358  0.00  0.00    -0.284 OA
HETATM   11  O   UNK N   1      21.308  18.996   6.712  0.00  0.00    -0.286 OA
HETATM   12  C   UNK N   1      23.459  18.187   4.799  0.00  0.00     0.156 C 
HETATM   13  C   UNK N   1      24.349  15.386   3.904  0.00  0.00     0.069 C 
ENDROOT
BRANCH   9  14
HETATM   14  C   UNK N   1      22.397  13.259   5.521  0.00  0.00     0.217 C 
BRANCH  14  15
HETATM   15  O   UNK N   1      23.430  12.498   6.015  0.00  0.00    -0.347 OA
BRANCH  15  16
HETATM   16  C   UNK N   1      23.532  12.398   7.370  0.00  0.00     0.069 A 
HETATM   17  C   UNK N   1      24.579  13.015   8.064  0.00  0.00     0.039 A 
HETATM   18  C   UNK N   1      24.660  12.895   9.463  0.00  0.00     0.039 A 
HETATM   19  C   UNK N   1      23.692  12.155  10.176  0.00  0.00     0.103 A 
HETATM   20  C   UNK N   1      22.653  11.544   9.479  0.00  0.00     0.039 A 
HETATM   21  C   UNK N   1      22.574  11.662   8.101  0.00  0.00     0.039 A 
BRANCH  19  22
HETATM   22  N   UNK N   1      23.758  12.023  11.589  0.00  0.00    -0.116 N 
HETATM   23  O   UNK N   1      22.649  11.900  12.292  0.00  0.00    -0.532 OA
HETATM   24  O   UNK N   1      24.810  12.022  12.151  0.00  0.00    -0.532 OA
ENDBRANCH  19  22
ENDBRANCH  15  16
ENDBRANCH  14  15
ENDBRANCH   9  14
BRANCH   6  25
HETATM   25  O   UNK N   1      18.733  15.692   8.825  0.00  0.00    -0.352 OA
HETATM   26  C   UNK N   1      17.966  16.597   9.525  0.00  0.00     0.210 C 
ENDBRANCH   6  25
TORSDOF 5
ENDMDL
MODEL 8
REMARK VINA RESULT:      -6.4     14.072     17.719
REMARK  5 active torsions:
REMARK  status: ('A' for Active; 'I' for Inactive)
REMARK    1  A    between atoms: C_6  and  O_25 
REMARK    2  A    between atoms: C_9  and  C_13 
REMARK    3  A    between atoms: C_13  and  O_14 
REMARK    4  A    between atoms: O_14  and  C_15 
REMARK    5  A    between atoms: C_18  and  N_21 
ROOT
HETATM    1  C   UNK N   1      19.562  15.144   9.454  0.00  0.00     0.098 A 
HETATM    2  C   UNK N   1      20.492  13.977   9.512  0.00  0.00     0.202 A 
HETATM    3  C   UNK N   1      21.672  13.988   8.628  0.00  0.00     0.100 A 
HETATM    4  C   UNK N   1      21.891  15.036   7.794  0.00  0.00     0.058 A 
HETATM    5  C   UNK N   1      20.982  16.192   7.728  0.00  0.00     0.218 A 
HETATM    6  C   UNK N   1      19.775  16.194   8.622  0.00  0.00     0.123 A 
HETATM    7  N   UNK N   1      22.655  13.070   8.487  0.00  0.00    -0.350 N 
HETATM    8  C   UNK N   1      23.508  13.551   7.545  0.00  0.00     0.017 A 
HETATM    9  C   UNK N   1      23.048  14.785   7.096  0.00  0.00     0.005 A 
HETATM   10  O   UNK N   1      21.212  17.117   6.964  0.00  0.00    -0.284 OA
HETATM   11  O   UNK N   1      20.272  13.047  10.271  0.00  0.00    -0.286 OA
HETATM   12  C   UNK N   1      22.776  11.810   9.205  0.00  0.00     0.156 C 
HETATM   13  C   UNK N   1      24.739  12.847   7.082  0.00  0.00     0.069 C 
ENDROOT
BRANCH   9  14
HETATM   14  C   UNK N   1      23.541  15.771   6.098  0.00  0.00     0.217 C 
BRANCH  14  15
HETATM   15  O   UNK N   1      23.108  15.743   4.793  0.00  0.00    -0.347 OA
BRANCH  15  16
HETATM   16  C   UNK N   1      22.741  16.932   4.237  0.00  0.00     0.069 A 
HETATM   17  C   UNK N   1      21.540  17.060   3.530  0.00  0.00     0.039 A 
HETATM   18  C   UNK N   1      21.187  18.299   2.967  0.00  0.00     0.039 A 
HETATM   19  C   UNK N   1      22.034  19.419   3.108  0.00  0.00     0.103 A 
HETATM   20  C   UNK N   1      23.228  19.284   3.813  0.00  0.00     0.039 A 
HETATM   21  C   UNK N   1      23.576  18.064   4.368  0.00  0.00     0.039 A 
BRANCH  19  22
HETATM   22  N   UNK N   1      21.693  20.679   2.546  0.00  0.00    -0.116 N 
HETATM   23  O   UNK N   1      20.610  20.797   1.804  0.00  0.00    -0.532 OA
HETATM   24  O   UNK N   1      22.379  21.635   2.738  0.00  0.00    -0.532 OA
ENDBRANCH  19  22
ENDBRANCH  15  16
ENDBRANCH  14  15
ENDBRANCH   9  14
BRANCH   6  25
HETATM   25  O   UNK N   1      18.878  17.217   8.633  0.00  0.00    -0.352 OA
HETATM   26  C   UNK N   1      17.792  17.298   9.476  0.00  0.00     0.210 C 
ENDBRANCH   6  25
TORSDOF 5
ENDMDL
MODEL 9
REMARK VINA RESULT:      -6.4     11.318     13.855
REMARK  5 active torsions:
REMARK  status: ('A' for Active; 'I' for Inactive)
REMARK    1  A    between atoms: C_6  and  O_25 
REMARK    2  A    between atoms: C_9  and  C_13 
REMARK    3  A    between atoms: C_13  and  O_14 
REMARK    4  A    between atoms: O_14  and  C_15 
REMARK    5  A    between atoms: C_18  and  N_21 
ROOT
HETATM    1  C   UNK N   1      20.948  19.444   3.378  0.00  0.00     0.098 A 
HETATM    2  C   UNK N   1      21.341  18.259   4.200  0.00  0.00     0.202 A 
HETATM    3  C   UNK N   1      22.779  18.003   4.404  0.00  0.00     0.100 A 
HETATM    4  C   UNK N   1      23.704  18.831   3.854  0.00  0.00     0.058 A 
HETATM    5  C   UNK N   1      23.330  20.001   3.043  0.00  0.00     0.218 A 
HETATM    6  C   UNK N   1      21.869  20.274   2.826  0.00  0.00     0.123 A 
HETATM    7  N   UNK N   1      23.392  17.016   5.094  0.00  0.00    -0.350 N 
HETATM    8  C   UNK N   1      24.728  17.227   4.976  0.00  0.00     0.017 A 
HETATM    9  C   UNK N   1      24.948  18.362   4.201  0.00  0.00     0.005 A 
HETATM   10  O   UNK N   1      24.192  20.722   2.564  0.00  0.00    -0.284 OA
HETATM   11  O   UNK N   1      20.489  17.532   4.683  0.00  0.00    -0.286 OA
HETATM   12  C   UNK N   1      22.745  15.935   5.824  0.00  0.00     0.156 C 
HETATM   13  C   UNK N   1      25.778  16.362   5.591  0.00  0.00     0.069 C 
ENDROOT
BRANCH   9  14
HETATM   14  C   UNK N   1      26.166  19.075   3.735  0.00  0.00     0.217 C 
BRANCH  14  15
HETATM   15  O   UNK N   1      26.942  19.806   4.604  0.00  0.00    -0.347 OA
BRANCH  15  16
HETATM   16  C   UNK N   1      27.806  19.111   5.397  0.00  0.00     0.069 A 
HETATM   17  C   UNK N   1      28.743  18.229   4.846  0.00  0.00     0.039 A 
HETATM   18  C   UNK N   1      29.622  17.525   5.688  0.00  0.00     0.039 A 
HETATM   19  C   UNK N   1      29.568  17.699   7.087  0.00  0.00     0.103 A 
HETATM   20  C   UNK N   1      28.633  18.578   7.628  0.00  0.00     0.039 A 
HETATM   21  C   UNK N   1      27.767  19.271   6.799  0.00  0.00     0.039 A 
BRANCH  19  22
HETATM   22  N   UNK N   1      30.449  16.996   7.953  0.00  0.00    -0.116 N 
HETATM   23  O   UNK N   1      31.398  16.231   7.449  0.00  0.00    -0.532 OA
HETATM   24  O   UNK N   1      30.340  17.090   9.136  0.00  0.00    -0.532 OA
ENDBRANCH  19  22
ENDBRANCH  15  16
ENDBRANCH  14  15
ENDBRANCH   9  14
BRANCH   6  25
HETATM   25  O   UNK N   1      21.426  21.330   2.092  0.00  0.00    -0.352 OA
HETATM   26  C   UNK N   1      20.663  21.225   0.951  0.00  0.00     0.210 C 
ENDBRANCH   6  25
TORSDOF 5
ENDMDL
