REMARK  5 active torsions:
REMARK  status: ('A' for Active; 'I' for Inactive)
REMARK    1  A    between atoms: C_6  and  O_25 
REMARK    2  A    between atoms: C_9  and  C_13 
REMARK    3  A    between atoms: C_13  and  O_14 
REMARK    4  A    between atoms: O_14  and  C_15 
REMARK    5  A    between atoms: C_18  and  N_21 
ROOT
HETATM    1  C   UNK N   1       4.118  -2.831   0.000  0.00  0.00     0.098 A 
HETATM    2  C   UNK N   1       2.948  -3.760   0.000  0.00  0.00     0.202 A 
HETATM    3  C   UNK N   1       1.596  -3.171   0.000  0.00  0.00     0.100 A 
HETATM    4  C   UNK N   1       1.439  -1.822  -0.000  0.00  0.00     0.058 A 
HETATM    5  C   UNK N   1       2.584  -0.897  -0.000  0.00  0.00     0.218 A 
HETATM    6  C   UNK N   1       3.967  -1.483   0.000  0.00  0.00     0.123 A 
HETATM    7  N   UNK N   1       0.388  -3.778   0.000  0.00  0.00    -0.350 N 
HETATM    8  C   UNK N   1      -0.546  -2.792  -0.000  0.00  0.00     0.017 A 
HETATM    9  C   UNK N   1       0.091  -1.555  -0.000  0.00  0.00     0.005 A 
HETATM   10  O   UNK N   1       2.402   0.311  -0.000  0.00  0.00    -0.284 OA
HETATM   11  O   UNK N   1       3.117  -4.968   0.000  0.00  0.00    -0.286 OA
HETATM   12  C   UNK N   1       0.137  -5.212   0.000  0.00  0.00     0.156 C 
HETATM   13  C   UNK N   1      -2.020  -3.025  -0.000  0.00  0.00     0.069 C 
ENDROOT
BRANCH   9  14
HETATM   14  C   UNK N   1      -0.386  -0.147  -0.000  0.00  0.00     0.217 C 
BRANCH  14  15
HETATM   15  O   UNK N   1      -1.728   0.152  -0.000  0.00  0.00    -0.347 OA
BRANCH  15  16
HETATM   16  C   UNK N   1      -2.068   1.472  -0.000  0.00  0.00     0.069 A 
HETATM   17  C   UNK N   1      -3.409   1.873   0.000  0.00  0.00     0.039 A 
HETATM   18  C   UNK N   1      -3.731   3.242   0.000  0.00  0.00     0.039 A 
HETATM   19  C   UNK N   1      -2.712   4.218   0.000  0.00  0.00     0.103 A 
HETATM   20  C   UNK N   1      -1.380   3.812   0.000  0.00  0.00     0.039 A 
HETATM   21  C   UNK N   1      -1.063   2.464   0.000  0.00  0.00     0.039 A 
BRANCH  19  22
HETATM   22  N   UNK N   1      -3.019   5.606   0.000  0.00  0.00    -0.116 N 
HETATM   23  O   UNK N   1      -2.046   6.496   0.000  0.00  0.00    -0.532 OA
HETATM   24  O   UNK N   1      -4.152   5.977   0.000  0.00  0.00    -0.532 OA
ENDBRANCH  19  22
ENDBRANCH  15  16
ENDBRANCH  14  15
ENDBRANCH   9  14
BRANCH   6  25
HETATM   25  O   UNK N   1       5.086  -0.709   0.000  0.00  0.00    -0.352 OA
HETATM   26  C   UNK N   1       5.085   0.668  -0.000  0.00  0.00     0.210 C 
ENDBRANCH   6  25
TORSDOF 5
