MODEL 1
REMARK VINA RESULT:      -7.3      0.000      0.000
REMARK  6 active torsions:
REMARK  status: ('A' for Active; 'I' for Inactive)
REMARK    1  A    between atoms: C_1  and  C_8 
REMARK    2  A    between atoms: C_8  and  N_9 
REMARK    3  A    between atoms: C_13  and  C_14 
REMARK    4  A    between atoms: C_18  and  O_19 
REMARK    5  A    between atoms: O_19  and  C_24 
REMARK    6  A    between atoms: C_20  and  O_21 
ROOT
HETATM    1  C   UNK N   1      35.690  11.131  17.529  0.00  0.00     0.030 A 
HETATM    2  C   UNK N   1      35.417  12.514  17.827  0.00  0.00     0.050 A 
HETATM    3 Cl   UNK N   1      34.937  13.071  19.424  0.00  0.00    -0.083 Cl
HETATM    4  C   UNK N   1      35.514  13.493  16.808  0.00  0.00     0.055 A 
HETATM    5  C   UNK N   1      35.886  13.081  15.535  0.00  0.00     0.044 A 
HETATM    6  C   UNK N   1      36.169  11.780  15.270  0.00  0.00    -0.006 A 
HETATM    7  C   UNK N   1      36.082  10.787  16.224  0.00  0.00     0.030 A 
HETATM    8  N   UNK N   1      35.985  13.828  14.413  0.00  0.00    -0.355 N 
HETATM    9  C   UNK N   1      36.481  11.665  13.956  0.00  0.00     0.044 A 
HETATM   10  C   UNK N   1      36.356  12.953  13.444  0.00  0.00     0.046 A 
HETATM   11  H   UNK N   1      35.823  14.795  14.320  0.00  0.00     0.166 HD
ENDROOT
BRANCH  10  12
HETATM   12  C   UNK N   1      36.456  13.264  11.995  0.00  0.00     0.027 A 
HETATM   13  C   UNK N   1      37.666  13.063  11.321  0.00  0.00     0.017 A 
HETATM   14  C   UNK N   1      37.798  13.449   9.986  0.00  0.00     0.004 A 
HETATM   15  C   UNK N   1      36.737  14.074   9.325  0.00  0.00     0.040 A 
HETATM   16  C   UNK N   1      35.518  14.298   9.977  0.00  0.00     0.103 A 
HETATM   17  C   UNK N   1      35.368  13.855  11.310  0.00  0.00     0.111 A 
BRANCH  16  18
HETATM   18  O   UNK N   1      34.548  14.978   9.297  0.00  0.00    -0.343 OA
BRANCH  18  19
HETATM   19  C   UNK N   1      34.699  16.046   8.414  0.00  0.00     0.129 C 
HETATM   20  C   UNK N   1      34.562  17.426   9.040  0.00  0.00     0.032 C 
HETATM   21  C   UNK N   1      33.998  18.312   7.937  0.00  0.00     0.002 C 
HETATM   22  C   UNK N   1      33.840  17.436   6.701  0.00  0.00     0.002 C 
HETATM   23  C   UNK N   1      33.801  16.007   7.204  0.00  0.00     0.032 C 
ENDBRANCH  18  19
ENDBRANCH  16  18
BRANCH  17  24
HETATM   24  O   UNK N   1      34.187  13.995  11.933  0.00  0.00    -0.357 OA
ATOM     25  HO  UNK N   1      33.978  13.440  12.675  1.00  0.00     0.217 HD
ENDBRANCH  17  24
ENDBRANCH  10  12
BRANCH   1  26
HETATM   26  C   UNK N   1      35.567  10.016  18.515  0.00  0.00     0.104 C 
HETATM   27  N   UNK N   1      36.603   9.625  19.165  0.00  0.00    -0.385 N 
HETATM   28  H   UNK N   1      36.518   8.935  19.861  0.00  0.00     0.157 HD
HETATM   29  H   UNK N   1      37.485  10.017  18.966  0.00  0.00     0.157 HD
BRANCH  26  30
HETATM   30  N   UNK N   1      34.348   9.334  18.713  0.00  0.00    -0.385 N 
HETATM   31  H   UNK N   1      33.504   9.834  18.782  0.00  0.00     0.157 HD
HETATM   32  H   UNK N   1      34.343   8.352  18.783  0.00  0.00     0.157 HD
ENDBRANCH  26  30
ENDBRANCH   1  26
TORSDOF 6
ENDMDL
MODEL 2
REMARK VINA RESULT:      -7.2      5.332     10.161
REMARK  6 active torsions:
REMARK  status: ('A' for Active; 'I' for Inactive)
REMARK    1  A    between atoms: C_1  and  C_8 
REMARK    2  A    between atoms: C_8  and  N_9 
REMARK    3  A    between atoms: C_13  and  C_14 
REMARK    4  A    between atoms: C_18  and  O_19 
REMARK    5  A    between atoms: O_19  and  C_24 
REMARK    6  A    between atoms: C_20  and  O_21 
ROOT
HETATM    1  C   UNK N   1      31.277  16.496   4.872  0.00  0.00     0.030 A 
HETATM    2  C   UNK N   1      30.496  17.141   5.897  0.00  0.00     0.050 A 
HETATM    3 Cl   UNK N   1      29.078  18.118   5.545  0.00  0.00    -0.083 Cl
HETATM    4  C   UNK N   1      30.870  17.018   7.258  0.00  0.00     0.055 A 
HETATM    5  C   UNK N   1      31.990  16.257   7.565  0.00  0.00     0.044 A 
HETATM    6  C   UNK N   1      32.702  15.628   6.594  0.00  0.00    -0.006 A 
HETATM    7  C   UNK N   1      32.386  15.723   5.255  0.00  0.00     0.030 A 
HETATM    8  N   UNK N   1      32.553  16.053   8.776  0.00  0.00    -0.355 N 
HETATM    9  C   UNK N   1      33.743  14.981   7.174  0.00  0.00     0.044 A 
HETATM   10  C   UNK N   1      33.629  15.263   8.532  0.00  0.00     0.046 A 
HETATM   11  H   UNK N   1      32.248  16.402   9.646  0.00  0.00     0.166 HD
ENDROOT
BRANCH  10  12
HETATM   12  C   UNK N   1      34.659  14.879   9.531  0.00  0.00     0.027 A 
HETATM   13  C   UNK N   1      35.973  14.630   9.116  0.00  0.00     0.017 A 
HETATM   14  C   UNK N   1      36.922  14.168  10.030  0.00  0.00     0.004 A 
HETATM   15  C   UNK N   1      36.558  13.915  11.355  0.00  0.00     0.040 A 
HETATM   16  C   UNK N   1      35.250  14.145  11.796  0.00  0.00     0.103 A 
HETATM   17  C   UNK N   1      34.306  14.666  10.884  0.00  0.00     0.111 A 
BRANCH  16  18
HETATM   18  O   UNK N   1      34.943  13.808  13.085  0.00  0.00    -0.343 OA
BRANCH  18  19
HETATM   19  C   UNK N   1      35.102  12.576  13.716  0.00  0.00     0.129 C 
HETATM   20  C   UNK N   1      34.401  11.407  13.038  0.00  0.00     0.032 C 
HETATM   21  C   UNK N   1      34.038  10.450  14.166  0.00  0.00     0.002 C 
HETATM   22  C   UNK N   1      34.551  11.072  15.459  0.00  0.00     0.002 C 
HETATM   23  C   UNK N   1      34.718  12.551  15.174  0.00  0.00     0.032 C 
ENDBRANCH  18  19
ENDBRANCH  16  18
BRANCH  17  24
HETATM   24  O   UNK N   1      33.063  14.960  11.300  0.00  0.00    -0.357 OA
ATOM     25  HO  UNK N   1      32.336  14.406  11.040  1.00  0.00     0.217 HD
ENDBRANCH  17  24
ENDBRANCH  10  12
BRANCH   1  26
HETATM   26  C   UNK N   1      31.001  16.603   3.408  0.00  0.00     0.104 C 
HETATM   27  N   UNK N   1      29.907  16.131   2.931  0.00  0.00    -0.385 N 
HETATM   28  H   UNK N   1      29.689  16.254   1.979  0.00  0.00     0.157 HD
HETATM   29  H   UNK N   1      29.284  15.643   3.519  0.00  0.00     0.157 HD
BRANCH  26  30
HETATM   30  N   UNK N   1      31.940  17.163   2.517  0.00  0.00    -0.385 N 
HETATM   31  H   UNK N   1      31.647  17.542   1.657  0.00  0.00     0.157 HD
HETATM   32  H   UNK N   1      32.895  17.173   2.756  0.00  0.00     0.157 HD
ENDBRANCH  26  30
ENDBRANCH   1  26
TORSDOF 6
ENDMDL
MODEL 3
REMARK VINA RESULT:      -7.2      5.724     10.347
REMARK  6 active torsions:
REMARK  status: ('A' for Active; 'I' for Inactive)
REMARK    1  A    between atoms: C_1  and  C_8 
REMARK    2  A    between atoms: C_8  and  N_9 
REMARK    3  A    between atoms: C_13  and  C_14 
REMARK    4  A    between atoms: C_18  and  O_19 
REMARK    5  A    between atoms: O_19  and  C_24 
REMARK    6  A    between atoms: C_20  and  O_21 
ROOT
HETATM    1  C   UNK N   1      29.009  17.947   6.010  0.00  0.00     0.030 A 
HETATM    2  C   UNK N   1      28.800  18.557   7.298  0.00  0.00     0.050 A 
HETATM    3 Cl   UNK N   1      27.534  19.738   7.602  0.00  0.00    -0.083 Cl
HETATM    4  C   UNK N   1      29.645  18.227   8.386  0.00  0.00     0.055 A 
HETATM    5  C   UNK N   1      30.658  17.301   8.174  0.00  0.00     0.044 A 
HETATM    6  C   UNK N   1      30.828  16.709   6.963  0.00  0.00    -0.006 A 
HETATM    7  C   UNK N   1      30.039  17.002   5.870  0.00  0.00     0.030 A 
HETATM    8  N   UNK N   1      31.603  16.885   9.045  0.00  0.00    -0.355 N 
HETATM    9  C   UNK N   1      31.892  15.872   7.039  0.00  0.00     0.044 A 
HETATM   10  C   UNK N   1      32.359  16.001   8.344  0.00  0.00     0.046 A 
HETATM   11  H   UNK N   1      31.718  17.162   9.983  0.00  0.00     0.166 HD
ENDROOT
BRANCH  10  12
HETATM   12  C   UNK N   1      33.617  15.375   8.822  0.00  0.00     0.027 A 
HETATM   13  C   UNK N   1      34.701  15.234   7.948  0.00  0.00     0.017 A 
HETATM   14  C   UNK N   1      35.850  14.554   8.359  0.00  0.00     0.004 A 
HETATM   15  C   UNK N   1      35.910  13.977   9.629  0.00  0.00     0.040 A 
HETATM   16  C   UNK N   1      34.837  14.092  10.521  0.00  0.00     0.103 A 
HETATM   17  C   UNK N   1      33.699  14.829  10.125  0.00  0.00     0.111 A 
BRANCH  16  18
HETATM   18  O   UNK N   1      34.932  13.443  11.720  0.00  0.00    -0.343 OA
BRANCH  18  19
HETATM   19  C   UNK N   1      36.011  13.412  12.602  0.00  0.00     0.129 C 
HETATM   20  C   UNK N   1      36.685  12.055  12.750  0.00  0.00     0.032 C 
HETATM   21  C   UNK N   1      37.218  12.027  14.176  0.00  0.00     0.002 C 
HETATM   22  C   UNK N   1      36.861  13.365  14.810  0.00  0.00     0.002 C 
HETATM   23  C   UNK N   1      35.718  13.925  13.988  0.00  0.00     0.032 C 
ENDBRANCH  18  19
ENDBRANCH  16  18
BRANCH  17  24
HETATM   24  O   UNK N   1      32.686  15.013  10.987  0.00  0.00    -0.357 OA
ATOM     25  HO  UNK N   1      31.920  14.454  10.939  1.00  0.00     0.217 HD
ENDBRANCH  17  24
ENDBRANCH  10  12
BRANCH   1  26
HETATM   26  C   UNK N   1      28.211  18.263   4.788  0.00  0.00     0.104 C 
HETATM   27  N   UNK N   1      28.401  19.374   4.174  0.00  0.00    -0.385 N 
HETATM   28  H   UNK N   1      27.925  19.562   3.333  0.00  0.00     0.157 HD
HETATM   29  H   UNK N   1      29.024  20.041   4.545  0.00  0.00     0.157 HD
BRANCH  26  30
HETATM   30  N   UNK N   1      27.204  17.395   4.316  0.00  0.00    -0.385 N 
HETATM   31  H   UNK N   1      27.062  17.274   3.350  0.00  0.00     0.157 HD
HETATM   32  H   UNK N   1      26.640  16.906   4.958  0.00  0.00     0.157 HD
ENDBRANCH  26  30
ENDBRANCH   1  26
TORSDOF 6
ENDMDL
MODEL 4
REMARK VINA RESULT:      -7.1      9.258     13.101
REMARK  6 active torsions:
REMARK  status: ('A' for Active; 'I' for Inactive)
REMARK    1  A    between atoms: C_1  and  C_8 
REMARK    2  A    between atoms: C_8  and  N_9 
REMARK    3  A    between atoms: C_13  and  C_14 
REMARK    4  A    between atoms: C_18  and  O_19 
REMARK    5  A    between atoms: O_19  and  C_24 
REMARK    6  A    between atoms: C_20  and  O_21 
ROOT
HETATM    1  C   UNK N   1      31.269  16.262   7.813  0.00  0.00     0.030 A 
HETATM    2  C   UNK N   1      31.364  15.355   6.698  0.00  0.00     0.050 A 
HETATM    3 Cl   UNK N   1      32.590  14.101   6.588  0.00  0.00    -0.083 Cl
HETATM    4  C   UNK N   1      30.455  15.462   5.616  0.00  0.00     0.055 A 
HETATM    5  C   UNK N   1      29.478  16.447   5.674  0.00  0.00     0.044 A 
HETATM    6  C   UNK N   1      29.378  17.278   6.743  0.00  0.00    -0.006 A 
HETATM    7  C   UNK N   1      30.243  17.223   7.817  0.00  0.00     0.030 A 
HETATM    8  N   UNK N   1      28.554  16.761   4.739  0.00  0.00    -0.355 N 
HETATM    9  C   UNK N   1      28.358  18.144   6.522  0.00  0.00     0.044 A 
HETATM   10  C   UNK N   1      27.863  17.803   5.267  0.00  0.00     0.046 A 
HETATM   11  H   UNK N   1      28.413  16.327   3.866  0.00  0.00     0.166 HD
ENDROOT
BRANCH  10  12
HETATM   12  C   UNK N   1      26.831  18.600   4.557  0.00  0.00     0.027 A 
HETATM   13  C   UNK N   1      27.214  19.695   3.773  0.00  0.00     0.017 A 
HETATM   14  C   UNK N   1      26.245  20.511   3.187  0.00  0.00     0.004 A 
HETATM   15  C   UNK N   1      24.888  20.264   3.409  0.00  0.00     0.040 A 
HETATM   16  C   UNK N   1      24.475  19.183   4.197  0.00  0.00     0.103 A 
HETATM   17  C   UNK N   1      25.456  18.325   4.743  0.00  0.00     0.111 A 
BRANCH  16  18
HETATM   18  O   UNK N   1      23.137  19.042   4.434  0.00  0.00    -0.343 OA
BRANCH  18  19
HETATM   19  C   UNK N   1      22.118  18.803   3.514  0.00  0.00     0.129 C 
HETATM   20  C   UNK N   1      21.284  20.021   3.142  0.00  0.00     0.032 C 
HETATM   21  C   UNK N   1      19.897  19.476   2.827  0.00  0.00     0.002 C 
HETATM   22  C   UNK N   1      19.964  17.965   3.003  0.00  0.00     0.002 C 
HETATM   23  C   UNK N   1      21.162  17.699   3.891  0.00  0.00     0.032 C 
ENDBRANCH  18  19
ENDBRANCH  16  18
BRANCH  17  24
HETATM   24  O   UNK N   1      25.084  17.242   5.444  0.00  0.00    -0.357 OA
ATOM     25  HO  UNK N   1      25.412  17.117   6.327  1.00  0.00     0.217 HD
ENDBRANCH  17  24
ENDBRANCH  10  12
BRANCH   1  26
HETATM   26  C   UNK N   1      32.206  16.269   8.976  0.00  0.00     0.104 C 
HETATM   27  N   UNK N   1      33.139  17.148   9.035  0.00  0.00    -0.385 N 
HETATM   28  H   UNK N   1      33.720  17.199   9.828  0.00  0.00     0.157 HD
HETATM   29  H   UNK N   1      33.275  17.772   8.285  0.00  0.00     0.157 HD
BRANCH  26  30
HETATM   30  N   UNK N   1      32.131  15.294   9.993  0.00  0.00    -0.385 N 
HETATM   31  H   UNK N   1      31.584  14.486   9.868  0.00  0.00     0.157 HD
HETATM   32  H   UNK N   1      32.628  15.424  10.833  0.00  0.00     0.157 HD
ENDBRANCH  26  30
ENDBRANCH   1  26
TORSDOF 6
ENDMDL
MODEL 5
REMARK VINA RESULT:      -7.0      5.561     10.212
REMARK  6 active torsions:
REMARK  status: ('A' for Active; 'I' for Inactive)
REMARK    1  A    between atoms: C_1  and  C_8 
REMARK    2  A    between atoms: C_8  and  N_9 
REMARK    3  A    between atoms: C_13  and  C_14 
REMARK    4  A    between atoms: C_18  and  O_19 
REMARK    5  A    between atoms: O_19  and  C_24 
REMARK    6  A    between atoms: C_20  and  O_21 
ROOT
HETATM    1  C   UNK N   1      29.533  17.189   6.050  0.00  0.00     0.030 A 
HETATM    2  C   UNK N   1      29.515  15.855   5.507  0.00  0.00     0.050 A 
HETATM    3 Cl   UNK N   1      28.292  15.302   4.371  0.00  0.00    -0.083 Cl
HETATM    4  C   UNK N   1      30.501  14.915   5.897  0.00  0.00     0.055 A 
HETATM    5  C   UNK N   1      31.476  15.322   6.798  0.00  0.00     0.044 A 
HETATM    6  C   UNK N   1      31.502  16.591   7.282  0.00  0.00    -0.006 A 
HETATM    7  C   UNK N   1      30.562  17.541   6.941  0.00  0.00     0.030 A 
HETATM    8  N   UNK N   1      32.467  14.584   7.343  0.00  0.00    -0.355 N 
HETATM    9  C   UNK N   1      32.541  16.700   8.147  0.00  0.00     0.044 A 
HETATM   10  C   UNK N   1      33.124  15.437   8.170  0.00  0.00     0.046 A 
HETATM   11  H   UNK N   1      32.669  13.634   7.177  0.00  0.00     0.166 HD
ENDROOT
BRANCH  10  12
HETATM   12  C   UNK N   1      34.209  15.061   9.111  0.00  0.00     0.027 A 
HETATM   13  C   UNK N   1      35.509  14.861   8.631  0.00  0.00     0.017 A 
HETATM   14  C   UNK N   1      36.512  14.407   9.490  0.00  0.00     0.004 A 
HETATM   15  C   UNK N   1      36.217  14.112  10.823  0.00  0.00     0.040 A 
HETATM   16  C   UNK N   1      34.924  14.291  11.328  0.00  0.00     0.103 A 
HETATM   17  C   UNK N   1      33.924  14.805  10.472  0.00  0.00     0.111 A 
BRANCH  16  18
HETATM   18  O   UNK N   1      34.687  13.915  12.620  0.00  0.00    -0.343 OA
BRANCH  18  19
HETATM   19  C   UNK N   1      35.593  13.416  13.555  0.00  0.00     0.129 C 
HETATM   20  C   UNK N   1      34.983  12.551  14.648  0.00  0.00     0.032 C 
HETATM   21  C   UNK N   1      35.867  12.767  15.869  0.00  0.00     0.002 C 
HETATM   22  C   UNK N   1      36.971  13.730  15.453  0.00  0.00     0.002 C 
HETATM   23  C   UNK N   1      36.454  14.455  14.227  0.00  0.00     0.032 C 
ENDBRANCH  18  19
ENDBRANCH  16  18
BRANCH  17  24
HETATM   24  O   UNK N   1      32.694  15.051  10.952  0.00  0.00    -0.357 OA
ATOM     25  HO  UNK N   1      32.254  14.395  11.479  1.00  0.00     0.217 HD
ENDBRANCH  17  24
ENDBRANCH  10  12
BRANCH   1  26
HETATM   26  C   UNK N   1      28.514  18.238   5.746  0.00  0.00     0.104 C 
HETATM   27  N   UNK N   1      27.542  18.434   6.560  0.00  0.00    -0.385 N 
HETATM   28  H   UNK N   1      26.903  19.165   6.399  0.00  0.00     0.157 HD
HETATM   29  H   UNK N   1      27.435  17.852   7.348  0.00  0.00     0.157 HD
BRANCH  26  30
HETATM   30  N   UNK N   1      28.556  18.986   4.550  0.00  0.00    -0.385 N 
HETATM   31  H   UNK N   1      29.112  18.687   3.795  0.00  0.00     0.157 HD
HETATM   32  H   UNK N   1      28.027  19.812   4.472  0.00  0.00     0.157 HD
ENDBRANCH  26  30
ENDBRANCH   1  26
TORSDOF 6
ENDMDL
MODEL 6
REMARK VINA RESULT:      -7.0      9.948     14.169
REMARK  6 active torsions:
REMARK  status: ('A' for Active; 'I' for Inactive)
REMARK    1  A    between atoms: C_1  and  C_8 
REMARK    2  A    between atoms: C_8  and  N_9 
REMARK    3  A    between atoms: C_13  and  C_14 
REMARK    4  A    between atoms: C_18  and  O_19 
REMARK    5  A    between atoms: O_19  and  C_24 
REMARK    6  A    between atoms: C_20  and  O_21 
ROOT
HETATM    1  C   UNK N   1      30.965  17.094   6.107  0.00  0.00     0.030 A 
HETATM    2  C   UNK N   1      30.316  17.144   7.392  0.00  0.00     0.050 A 
HETATM    3 Cl   UNK N   1      31.088  16.599   8.875  0.00  0.00    -0.083 Cl
HETATM    4  C   UNK N   1      28.991  17.633   7.500  0.00  0.00     0.055 A 
HETATM    5  C   UNK N   1      28.354  18.065   6.344  0.00  0.00     0.044 A 
HETATM    6  C   UNK N   1      28.985  18.041   5.141  0.00  0.00    -0.006 A 
HETATM    7  C   UNK N   1      30.271  17.567   4.980  0.00  0.00     0.030 A 
HETATM    8  N   UNK N   1      27.086  18.511   6.208  0.00  0.00    -0.355 N 
HETATM    9  C   UNK N   1      28.127  18.498   4.196  0.00  0.00     0.044 A 
HETATM   10  C   UNK N   1      26.951  18.781   4.884  0.00  0.00     0.046 A 
HETATM   11  H   UNK N   1      26.408  18.617   6.915  0.00  0.00     0.166 HD
ENDROOT
BRANCH  10  12
HETATM   12  C   UNK N   1      25.686  19.163   4.208  0.00  0.00     0.027 A 
HETATM   13  C   UNK N   1      25.684  20.202   3.269  0.00  0.00     0.017 A 
HETATM   14  C   UNK N   1      24.482  20.635   2.706  0.00  0.00     0.004 A 
HETATM   15  C   UNK N   1      23.271  20.062   3.103  0.00  0.00     0.040 A 
HETATM   16  C   UNK N   1      23.241  19.029   4.046  0.00  0.00     0.103 A 
HETATM   17  C   UNK N   1      24.463  18.553   4.573  0.00  0.00     0.111 A 
BRANCH  16  18
HETATM   18  O   UNK N   1      22.019  18.564   4.443  0.00  0.00    -0.343 OA
BRANCH  18  19
HETATM   19  C   UNK N   1      21.176  17.675   3.779  0.00  0.00     0.129 C 
HETATM   20  C   UNK N   1      21.854  16.422   3.242  0.00  0.00     0.032 C 
HETATM   21  C   UNK N   1      21.060  16.040   1.999  0.00  0.00     0.002 C 
HETATM   22  C   UNK N   1      19.938  17.061   1.857  0.00  0.00     0.002 C 
HETATM   23  C   UNK N   1      20.375  18.275   2.652  0.00  0.00     0.032 C 
ENDBRANCH  18  19
ENDBRANCH  16  18
BRANCH  17  24
HETATM   24  O   UNK N   1      24.466  17.517   5.427  0.00  0.00    -0.357 OA
ATOM     25  HO  UNK N   1      23.641  17.162   5.739  1.00  0.00     0.217 HD
ENDBRANCH  17  24
ENDBRANCH  10  12
BRANCH   1  26
HETATM   26  C   UNK N   1      32.338  16.551   5.876  0.00  0.00     0.104 C 
HETATM   27  N   UNK N   1      33.334  17.356   5.794  0.00  0.00    -0.385 N 
HETATM   28  H   UNK N   1      34.248  17.002   5.705  0.00  0.00     0.157 HD
HETATM   29  H   UNK N   1      33.184  18.329   5.818  0.00  0.00     0.157 HD
BRANCH  26  30
HETATM   30  N   UNK N   1      32.565  15.172   5.686  0.00  0.00    -0.385 N 
HETATM   31  H   UNK N   1      33.483  14.818   5.657  0.00  0.00     0.157 HD
HETATM   32  H   UNK N   1      31.801  14.560   5.581  0.00  0.00     0.157 HD
ENDBRANCH  26  30
ENDBRANCH   1  26
TORSDOF 6
ENDMDL
MODEL 7
REMARK VINA RESULT:      -6.9      8.005     11.897
REMARK  6 active torsions:
REMARK  status: ('A' for Active; 'I' for Inactive)
REMARK    1  A    between atoms: C_1  and  C_8 
REMARK    2  A    between atoms: C_8  and  N_9 
REMARK    3  A    between atoms: C_13  and  C_14 
REMARK    4  A    between atoms: C_18  and  O_19 
REMARK    5  A    between atoms: O_19  and  C_24 
REMARK    6  A    between atoms: C_20  and  O_21 
ROOT
HETATM    1  C   UNK N   1      32.629  16.412   8.320  0.00  0.00     0.030 A 
HETATM    2  C   UNK N   1      33.108  16.188   6.980  0.00  0.00     0.050 A 
HETATM    3 Cl   UNK N   1      34.692  15.512   6.631  0.00  0.00    -0.083 Cl
HETATM    4  C   UNK N   1      32.297  16.532   5.870  0.00  0.00     0.055 A 
HETATM    5  C   UNK N   1      31.043  17.074   6.115  0.00  0.00     0.044 A 
HETATM    6  C   UNK N   1      30.589  17.253   7.383  0.00  0.00    -0.006 A 
HETATM    7  C   UNK N   1      31.340  16.944   8.497  0.00  0.00     0.030 A 
HETATM    8  N   UNK N   1      30.137  17.520   5.217  0.00  0.00    -0.355 N 
HETATM    9  C   UNK N   1      29.354  17.810   7.323  0.00  0.00     0.044 A 
HETATM   10  C   UNK N   1      29.097  17.969   5.965  0.00  0.00     0.046 A 
HETATM   11  H   UNK N   1      30.216  17.520   4.235  0.00  0.00     0.166 HD
ENDROOT
BRANCH  10  12
HETATM   12  C   UNK N   1      27.910  18.692   5.442  0.00  0.00     0.027 A 
HETATM   13  C   UNK N   1      27.683  20.021   5.816  0.00  0.00     0.017 A 
HETATM   14  C   UNK N   1      26.516  20.674   5.413  0.00  0.00     0.004 A 
HETATM   15  C   UNK N   1      25.551  19.994   4.667  0.00  0.00     0.040 A 
HETATM   16  C   UNK N   1      25.745  18.661   4.287  0.00  0.00     0.103 A 
HETATM   17  C   UNK N   1      26.951  18.020   4.647  0.00  0.00     0.111 A 
BRANCH  16  18
HETATM   18  O   UNK N   1      24.730  18.034   3.621  0.00  0.00    -0.343 OA
BRANCH  18  19
HETATM   19  C   UNK N   1      23.519  17.571   4.131  0.00  0.00     0.129 C 
HETATM   20  C   UNK N   1      22.409  18.611   4.203  0.00  0.00     0.032 C 
HETATM   21  C   UNK N   1      21.553  18.200   5.395  0.00  0.00     0.002 C 
HETATM   22  C   UNK N   1      22.171  16.932   5.969  0.00  0.00     0.002 C 
HETATM   23  C   UNK N   1      23.606  16.908   5.482  0.00  0.00     0.032 C 
ENDBRANCH  18  19
ENDBRANCH  16  18
BRANCH  17  24
HETATM   24  O   UNK N   1      27.192  16.765   4.235  0.00  0.00    -0.357 OA
ATOM     25  HO  UNK N   1      26.465  16.197   4.006  1.00  0.00     0.217 HD
ENDBRANCH  17  24
ENDBRANCH  10  12
BRANCH   1  26
HETATM   26  C   UNK N   1      33.421  16.133   9.556  0.00  0.00     0.104 C 
HETATM   27  N   UNK N   1      33.115  15.129  10.294  0.00  0.00    -0.385 N 
HETATM   28  H   UNK N   1      33.670  14.902  11.074  0.00  0.00     0.157 HD
HETATM   29  H   UNK N   1      32.322  14.585  10.080  0.00  0.00     0.157 HD
BRANCH  26  30
HETATM   30  N   UNK N   1      34.469  16.982   9.971  0.00  0.00    -0.385 N 
HETATM   31  H   UNK N   1      35.027  16.743  10.744  0.00  0.00     0.157 HD
HETATM   32  H   UNK N   1      34.641  17.820   9.483  0.00  0.00     0.157 HD
ENDBRANCH  26  30
ENDBRANCH   1  26
TORSDOF 6
ENDMDL
MODEL 8
REMARK VINA RESULT:      -6.9      3.197      5.053
REMARK  6 active torsions:
REMARK  status: ('A' for Active; 'I' for Inactive)
REMARK    1  A    between atoms: C_1  and  C_8 
REMARK    2  A    between atoms: C_8  and  N_9 
REMARK    3  A    between atoms: C_13  and  C_14 
REMARK    4  A    between atoms: C_18  and  O_19 
REMARK    5  A    between atoms: O_19  and  C_24 
REMARK    6  A    between atoms: C_20  and  O_21 
ROOT
HETATM    1  C   UNK N   1      36.199  12.310  13.481  0.00  0.00     0.030 A 
HETATM    2  C   UNK N   1      35.630  11.291  12.637  0.00  0.00     0.050 A 
HETATM    3 Cl   UNK N   1      35.795   9.573  12.969  0.00  0.00    -0.083 Cl
HETATM    4  C   UNK N   1      34.915  11.654  11.469  0.00  0.00     0.055 A 
HETATM    5  C   UNK N   1      34.774  13.004  11.178  0.00  0.00     0.044 A 
HETATM    6  C   UNK N   1      35.288  13.959  11.996  0.00  0.00    -0.006 A 
HETATM    7  C   UNK N   1      36.000  13.659  13.140  0.00  0.00     0.030 A 
HETATM    8  N   UNK N   1      34.186  13.568  10.100  0.00  0.00    -0.355 N 
HETATM    9  C   UNK N   1      35.019  15.175  11.462  0.00  0.00     0.044 A 
HETATM   10  C   UNK N   1      34.335  14.905  10.280  0.00  0.00     0.046 A 
HETATM   11  H   UNK N   1      33.745  13.108   9.348  0.00  0.00     0.166 HD
ENDROOT
BRANCH  10  12
HETATM   12  C   UNK N   1      33.980  15.952   9.290  0.00  0.00     0.027 A 
HETATM   13  C   UNK N   1      34.760  17.111   9.191  0.00  0.00     0.017 A 
HETATM   14  C   UNK N   1      34.375  18.145   8.336  0.00  0.00     0.004 A 
HETATM   15  C   UNK N   1      33.190  18.048   7.603  0.00  0.00     0.040 A 
HETATM   16  C   UNK N   1      32.384  16.906   7.688  0.00  0.00     0.103 A 
HETATM   17  C   UNK N   1      32.805  15.837   8.511  0.00  0.00     0.111 A 
BRANCH  16  18
HETATM   18  O   UNK N   1      31.203  16.907   7.001  0.00  0.00    -0.343 OA
BRANCH  18  19
HETATM   19  C   UNK N   1      29.928  17.207   7.476  0.00  0.00     0.129 C 
HETATM   20  C   UNK N   1      29.029  17.943   6.492  0.00  0.00     0.032 C 
HETATM   21  C   UNK N   1      28.114  18.804   7.352  0.00  0.00     0.002 C 
HETATM   22  C   UNK N   1      28.488  18.535   8.804  0.00  0.00     0.002 C 
HETATM   23  C   UNK N   1      29.893  17.968   8.776  0.00  0.00     0.032 C 
ENDBRANCH  18  19
ENDBRANCH  16  18
BRANCH  17  24
HETATM   24  O   UNK N   1      32.086  14.704   8.556  0.00  0.00    -0.357 OA
ATOM     25  HO  UNK N   1      31.434  14.533   7.886  1.00  0.00     0.217 HD
ENDBRANCH  17  24
ENDBRANCH  10  12
BRANCH   1  26
HETATM   26  C   UNK N   1      37.012  12.036  14.704  0.00  0.00     0.104 C 
HETATM   27  N   UNK N   1      38.282  11.873  14.599  0.00  0.00    -0.385 N 
HETATM   28  H   UNK N   1      38.832  11.755  15.406  0.00  0.00     0.157 HD
HETATM   29  H   UNK N   1      38.704  11.866  13.709  0.00  0.00     0.157 HD
BRANCH  26  30
HETATM   30  N   UNK N   1      36.415  11.891  15.973  0.00  0.00    -0.385 N 
HETATM   31  H   UNK N   1      36.331  11.001  16.386  0.00  0.00     0.157 HD
HETATM   32  H   UNK N   1      36.080  12.685  16.449  0.00  0.00     0.157 HD
ENDBRANCH  26  30
ENDBRANCH   1  26
TORSDOF 6
ENDMDL
MODEL 9
REMARK VINA RESULT:      -6.7     19.182     21.725
REMARK  6 active torsions:
REMARK  status: ('A' for Active; 'I' for Inactive)
REMARK    1  A    between atoms: C_1  and  C_8 
REMARK    2  A    between atoms: C_8  and  N_9 
REMARK    3  A    between atoms: C_13  and  C_14 
REMARK    4  A    between atoms: C_18  and  O_19 
REMARK    5  A    between atoms: O_19  and  C_24 
REMARK    6  A    between atoms: C_20  and  O_21 
ROOT
HETATM    1  C   UNK N   1      33.501  19.961  -4.791  0.00  0.00     0.030 A 
HETATM    2  C   UNK N   1      34.093  21.251  -4.543  0.00  0.00     0.050 A 
HETATM    3 Cl   UNK N   1      35.793  21.463  -4.150  0.00  0.00    -0.083 Cl
HETATM    4  C   UNK N   1      33.294  22.420  -4.593  0.00  0.00     0.055 A 
HETATM    5  C   UNK N   1      31.946  22.282  -4.896  0.00  0.00     0.044 A 
HETATM    6  C   UNK N   1      31.404  21.064  -5.157  0.00  0.00    -0.006 A 
HETATM    7  C   UNK N   1      32.134  19.895  -5.112  0.00  0.00     0.030 A 
HETATM    8  N   UNK N   1      30.999  23.245  -4.942  0.00  0.00    -0.355 N 
HETATM    9  C   UNK N   1      30.080  21.226  -5.400  0.00  0.00     0.044 A 
HETATM   10  C   UNK N   1      29.852  22.591  -5.257  0.00  0.00     0.046 A 
HETATM   11  H   UNK N   1      31.116  24.210  -4.782  0.00  0.00     0.166 HD
ENDROOT
BRANCH  10  12
HETATM   12  C   UNK N   1      28.496  23.195  -5.283  0.00  0.00     0.027 A 
HETATM   13  C   UNK N   1      27.697  23.065  -6.426  0.00  0.00     0.017 A 
HETATM   14  C   UNK N   1      26.465  23.717  -6.498  0.00  0.00     0.004 A 
HETATM   15  C   UNK N   1      26.037  24.534  -5.448  0.00  0.00     0.040 A 
HETATM   16  C   UNK N   1      26.819  24.691  -4.297  0.00  0.00     0.103 A 
HETATM   17  C   UNK N   1      28.039  23.986  -4.203  0.00  0.00     0.111 A 
BRANCH  16  18
HETATM   18  O   UNK N   1      26.376  25.560  -3.341  0.00  0.00    -0.343 OA
BRANCH  18  19
HETATM   19  C   UNK N   1      26.604  26.932  -3.248  0.00  0.00     0.129 C 
HETATM   20  C   UNK N   1      25.502  27.809  -3.827  0.00  0.00     0.032 C 
HETATM   21  C   UNK N   1      26.210  29.063  -4.326  0.00  0.00     0.002 C 
HETATM   22  C   UNK N   1      27.690  28.893  -4.009  0.00  0.00     0.002 C 
HETATM   23  C   UNK N   1      27.911  27.404  -3.832  0.00  0.00     0.032 C 
ENDBRANCH  18  19
ENDBRANCH  16  18
BRANCH  17  24
HETATM   24  O   UNK N   1      28.773  24.065  -3.081  0.00  0.00    -0.357 OA
ATOM     25  HO  UNK N   1      29.690  23.817  -3.100  1.00  0.00     0.217 HD
ENDBRANCH  17  24
ENDBRANCH  10  12
BRANCH   1  26
HETATM   26  C   UNK N   1      34.240  18.665  -4.712  0.00  0.00     0.104 C 
HETATM   27  N   UNK N   1      34.165  17.954  -3.646  0.00  0.00    -0.385 N 
HETATM   28  H   UNK N   1      34.597  17.071  -3.610  0.00  0.00     0.157 HD
HETATM   29  H   UNK N   1      33.675  18.294  -2.862  0.00  0.00     0.157 HD
BRANCH  26  30
HETATM   30  N   UNK N   1      35.072  18.223  -5.762  0.00  0.00    -0.385 N 
HETATM   31  H   UNK N   1      35.176  17.261  -5.944  0.00  0.00     0.157 HD
HETATM   32  H   UNK N   1      35.552  18.880  -6.316  0.00  0.00     0.157 HD
ENDBRANCH  26  30
ENDBRANCH   1  26
TORSDOF 6
ENDMDL
