MODEL 1
REMARK VINA RESULT:      -7.1      0.000      0.000
REMARK  7 active torsions:
REMARK  status: ('A' for Active; 'I' for Inactive)
REMARK    1  A    between atoms: C_2  and  N_5 
REMARK       I    between atoms: N_5  and  C_10 
REMARK    2  A    between atoms: C_13  and  C_10 
REMARK       I    between atoms: N_15  and  C_17 
REMARK    3  A    between atoms: C_17  and  C_20 
REMARK    4  A    between atoms: C_20  and  N_22 
REMARK    5  A    between atoms: C_20  and  C_23 
REMARK       I    between atoms: N_22  and  C_24 
REMARK    6  A    between atoms: C_24  and  C_28 
REMARK    7  A    between atoms: C_28  and  N_30 
ROOT
HETATM    1  C   UNK N   1      26.960  24.116  -8.778  0.00  0.00     0.179 C 
HETATM    2  N   UNK N   1      28.264  23.559  -8.488  0.00  0.00    -0.337 N 
HETATM    3  C   UNK N   1      27.187  25.122  -9.891  0.00  0.00     0.037 C 
HETATM    4  C   UNK N   1      28.400  22.439  -7.695  0.00  0.00     0.244 C 
HETATM    5  C   UNK N   1      29.337  24.226  -9.155  0.00  0.00     0.127 C 
HETATM    6  C   UNK N   1      28.692  25.363  -9.933  0.00  0.00     0.022 C 
HETATM    7  O   UNK N   1      27.395  21.960  -7.190  0.00  0.00    -0.271 OA
ENDROOT
BRANCH   1   8
HETATM    8  C   UNK N   1      26.348  24.775  -7.573  0.00  0.00     0.241 C 
HETATM    9  N   UNK N   1      27.053  25.727  -6.907  0.00  0.00    -0.351 N 
HETATM   10  H   UNK N   1      27.995  25.874  -7.151  0.00  0.00     0.163 HD
HETATM   11  O   UNK N   1      25.200  24.509  -7.243  0.00  0.00    -0.271 OA
BRANCH   9  12
HETATM   12  C   UNK N   1      26.475  26.537  -5.851  0.00  0.00     0.118 C 
HETATM   13  C   UNK N   1      27.067  27.935  -5.802  0.00  0.00    -0.029 A 
HETATM   14  C   UNK N   1      26.710  28.749  -4.720  0.00  0.00    -0.050 A 
HETATM   15  C   UNK N   1      27.979  28.418  -6.756  0.00  0.00     0.010 A 
HETATM   16  C   UNK N   1      25.800  28.180  -3.677  0.00  0.00     0.039 C 
HETATM   17  C   UNK N   1      27.241  30.036  -4.597  0.00  0.00     0.007 A 
HETATM   18  C   UNK N   1      26.261  26.759  -3.292  0.00  0.00     0.007 C 
HETATM   19  C   UNK N   1      26.733  25.885  -4.487  0.00  0.00     0.030 C 
HETATM   20  C   UNK N   1      28.126  30.520  -5.568  0.00  0.00     0.001 A 
HETATM   21  C   UNK N   1      28.498  29.710  -6.644  0.00  0.00     0.001 A 
ENDBRANCH   9  12
ENDBRANCH   1   8
BRANCH   4  22
HETATM   22  C   UNK N   1      29.743  21.704  -7.438  0.00  0.00     0.184 C 
BRANCH  22  23
HETATM   23  N   UNK N   1      29.771  21.359  -6.017  0.00  0.00    -0.345 N 
HETATM   24  C   UNK N   1      30.245  22.162  -5.025  0.00  0.00     0.240 C 
HETATM   25  O   UNK N   1      30.679  23.277  -5.278  0.00  0.00    -0.271 OA
HETATM   26  H   UNK N   1      29.420  20.476  -5.757  0.00  0.00     0.163 HD
BRANCH  24  27
HETATM   27  C   UNK N   1      30.245  21.649  -3.604  0.00  0.00     0.165 C 
HETATM   28  C   UNK N   1      30.242  22.806  -2.612  0.00  0.00     0.042 C 
BRANCH  27  29
HETATM   29  N   UNK N   1      31.350  20.713  -3.350  0.00  0.00    -0.414 N 
HETATM   30  C   UNK N   1      32.604  21.407  -3.063  0.00  0.00     0.140 C 
HETATM   31  H   UNK N   1      31.253  19.697  -3.372  0.00  0.00     0.153 HD
ENDBRANCH  27  29
ENDBRANCH  24  27
ENDBRANCH  22  23
BRANCH  22  32
HETATM   32  C   UNK N   1      29.933  20.374  -8.252  0.00  0.00    -0.022 C 
HETATM   33  C   UNK N   1      31.397  19.970  -8.321  0.00  0.00     0.017 C 
HETATM   34  C   UNK N   1      29.436  20.502  -9.685  0.00  0.00     0.017 C 
HETATM   35  C   UNK N   1      29.121  19.226  -7.684  0.00  0.00     0.017 C 
ENDBRANCH  22  32
ENDBRANCH   4  22
TORSDOF 7
ENDMDL
MODEL 2
REMARK VINA RESULT:      -6.9     19.135     24.238
REMARK  7 active torsions:
REMARK  status: ('A' for Active; 'I' for Inactive)
REMARK    1  A    between atoms: C_2  and  N_5 
REMARK       I    between atoms: N_5  and  C_10 
REMARK    2  A    between atoms: C_13  and  C_10 
REMARK       I    between atoms: N_15  and  C_17 
REMARK    3  A    between atoms: C_17  and  C_20 
REMARK    4  A    between atoms: C_20  and  N_22 
REMARK    5  A    between atoms: C_20  and  C_23 
REMARK       I    between atoms: N_22  and  C_24 
REMARK    6  A    between atoms: C_24  and  C_28 
REMARK    7  A    between atoms: C_28  and  N_30 
ROOT
HETATM    1  C   UNK N   1      35.773   9.975  13.102  0.00  0.00     0.179 C 
HETATM    2  N   UNK N   1      35.486  10.623  11.840  0.00  0.00    -0.337 N 
HETATM    3  C   UNK N   1      35.254   8.557  12.958  0.00  0.00     0.037 C 
HETATM    4  C   UNK N   1      36.035  11.848  11.528  0.00  0.00     0.244 C 
HETATM    5  C   UNK N   1      34.671   9.843  10.964  0.00  0.00     0.127 C 
HETATM    6  C   UNK N   1      34.349   8.568  11.731  0.00  0.00     0.022 C 
HETATM    7  O   UNK N   1      36.725  12.407  12.368  0.00  0.00    -0.271 OA
ENDROOT
BRANCH   1   8
HETATM    8  C   UNK N   1      35.114  10.675  14.258  0.00  0.00     0.241 C 
HETATM    9  N   UNK N   1      35.864  11.034  15.333  0.00  0.00    -0.351 N 
HETATM   10  H   UNK N   1      36.794  10.716  15.387  0.00  0.00     0.163 HD
HETATM   11  O   UNK N   1      33.931  10.985  14.196  0.00  0.00    -0.271 OA
BRANCH   9  12
HETATM   12  C   UNK N   1      35.352  11.868  16.404  0.00  0.00     0.118 C 
HETATM   13  C   UNK N   1      35.988  13.248  16.420  0.00  0.00    -0.029 A 
HETATM   14  C   UNK N   1      35.698  14.078  17.509  0.00  0.00    -0.050 A 
HETATM   15  C   UNK N   1      36.875  13.697  15.428  0.00  0.00     0.010 A 
HETATM   16  C   UNK N   1      34.812  13.543  18.591  0.00  0.00     0.039 C 
HETATM   17  C   UNK N   1      36.272  15.349  17.602  0.00  0.00     0.007 A 
HETATM   18  C   UNK N   1      35.245  12.111  18.968  0.00  0.00     0.007 C 
HETATM   19  C   UNK N   1      35.644  11.216  17.762  0.00  0.00     0.030 C 
HETATM   20  C   UNK N   1      37.133  15.800  16.594  0.00  0.00     0.001 A 
HETATM   21  C   UNK N   1      37.437  14.972  15.510  0.00  0.00     0.001 A 
ENDBRANCH   9  12
ENDBRANCH   1   8
BRANCH   4  22
HETATM   22  C   UNK N   1      35.884  12.552  10.153  0.00  0.00     0.184 C 
BRANCH  22  23
HETATM   23  N   UNK N   1      35.045  13.730  10.370  0.00  0.00    -0.345 N 
HETATM   24  C   UNK N   1      33.952  14.061   9.629  0.00  0.00     0.240 C 
HETATM   25  O   UNK N   1      33.585  13.348   8.706  0.00  0.00    -0.271 OA
HETATM   26  H   UNK N   1      35.289  14.332  11.111  0.00  0.00     0.163 HD
BRANCH  24  27
HETATM   27  C   UNK N   1      33.206  15.335   9.951  0.00  0.00     0.165 C 
HETATM   28  C   UNK N   1      32.149  15.624   8.893  0.00  0.00     0.042 C 
BRANCH  27  29
HETATM   29  N   UNK N   1      34.112  16.476  10.147  0.00  0.00    -0.414 N 
HETATM   30  C   UNK N   1      34.420  17.156   8.889  0.00  0.00     0.140 C 
HETATM   31  H   UNK N   1      34.484  16.761  11.054  0.00  0.00     0.153 HD
ENDBRANCH  27  29
ENDBRANCH  24  27
ENDBRANCH  22  23
BRANCH  22  32
HETATM   32  C   UNK N   1      37.231  13.043   9.511  0.00  0.00    -0.022 C 
HETATM   33  C   UNK N   1      37.564  14.464   9.939  0.00  0.00     0.017 C 
HETATM   34  C   UNK N   1      37.180  13.034   7.990  0.00  0.00     0.017 C 
HETATM   35  C   UNK N   1      38.397  12.132   9.844  0.00  0.00     0.017 C 
ENDBRANCH  22  32
ENDBRANCH   4  22
TORSDOF 7
ENDMDL
MODEL 3
REMARK VINA RESULT:      -6.8     13.153     15.995
REMARK  7 active torsions:
REMARK  status: ('A' for Active; 'I' for Inactive)
REMARK    1  A    between atoms: C_2  and  N_5 
REMARK       I    between atoms: N_5  and  C_10 
REMARK    2  A    between atoms: C_13  and  C_10 
REMARK       I    between atoms: N_15  and  C_17 
REMARK    3  A    between atoms: C_17  and  C_20 
REMARK    4  A    between atoms: C_20  and  N_22 
REMARK    5  A    between atoms: C_20  and  C_23 
REMARK       I    between atoms: N_22  and  C_24 
REMARK    6  A    between atoms: C_24  and  C_28 
REMARK    7  A    between atoms: C_28  and  N_30 
ROOT
HETATM    1  C   UNK N   1      31.412  15.136   4.369  0.00  0.00     0.179 C 
HETATM    2  N   UNK N   1      32.787  15.418   4.721  0.00  0.00    -0.337 N 
HETATM    3  C   UNK N   1      31.142  15.941   3.112  0.00  0.00     0.037 C 
HETATM    4  C   UNK N   1      33.447  14.671   5.674  0.00  0.00     0.244 C 
HETATM    5  C   UNK N   1      33.379  16.460   3.944  0.00  0.00     0.127 C 
HETATM    6  C   UNK N   1      32.281  16.949   3.011  0.00  0.00     0.022 C 
HETATM    7  O   UNK N   1      32.823  13.799   6.262  0.00  0.00    -0.271 OA
ENDROOT
BRANCH   1   8
HETATM    8  C   UNK N   1      30.460  15.517   5.469  0.00  0.00     0.241 C 
HETATM    9  N   UNK N   1      30.749  16.586   6.258  0.00  0.00    -0.351 N 
HETATM   10  H   UNK N   1      31.634  17.008   6.174  0.00  0.00     0.163 HD
HETATM   11  O   UNK N   1      29.401  14.917   5.601  0.00  0.00    -0.271 OA
BRANCH   9  12
HETATM   12  C   UNK N   1      29.807  17.131   7.217  0.00  0.00     0.118 C 
HETATM   13  C   UNK N   1      28.932  18.218   6.618  0.00  0.00    -0.029 A 
HETATM   14  C   UNK N   1      28.105  18.934   7.492  0.00  0.00    -0.050 A 
HETATM   15  C   UNK N   1      28.954  18.559   5.255  0.00  0.00     0.010 A 
HETATM   16  C   UNK N   1      28.161  18.603   8.950  0.00  0.00     0.039 C 
HETATM   17  C   UNK N   1      27.295  19.967   7.012  0.00  0.00     0.007 A 
HETATM   18  C   UNK N   1      29.630  18.479   9.408  0.00  0.00     0.007 C 
HETATM   19  C   UNK N   1      30.563  17.754   8.399  0.00  0.00     0.030 C 
HETATM   20  C   UNK N   1      27.301  20.281   5.647  0.00  0.00     0.001 A 
HETATM   21  C   UNK N   1      28.134  19.580   4.771  0.00  0.00     0.001 A 
ENDBRANCH   9  12
ENDBRANCH   1   8
BRANCH   4  22
HETATM   22  C   UNK N   1      34.952  14.821   6.020  0.00  0.00     0.184 C 
BRANCH  22  23
HETATM   23  N   UNK N   1      35.070  14.678   7.471  0.00  0.00    -0.345 N 
HETATM   24  C   UNK N   1      34.900  15.682   8.374  0.00  0.00     0.240 C 
HETATM   25  O   UNK N   1      34.611  16.811   8.005  0.00  0.00    -0.271 OA
HETATM   26  H   UNK N   1      35.289  13.784   7.823  0.00  0.00     0.163 HD
BRANCH  24  27
HETATM   27  C   UNK N   1      35.094  15.387   9.843  0.00  0.00     0.165 C 
HETATM   28  C   UNK N   1      35.359  16.670  10.621  0.00  0.00     0.042 C 
BRANCH  27  29
HETATM   29  N   UNK N   1      36.138  14.379  10.076  0.00  0.00    -0.414 N 
HETATM   30  C   UNK N   1      35.621  13.204  10.777  0.00  0.00     0.140 C 
HETATM   31  H   UNK N   1      37.110  14.485   9.782  0.00  0.00     0.153 HD
ENDBRANCH  27  29
ENDBRANCH  24  27
ENDBRANCH  22  23
BRANCH  22  32
HETATM   32  C   UNK N   1      35.891  13.748   5.361  0.00  0.00    -0.022 C 
HETATM   33  C   UNK N   1      35.887  12.448   6.149  0.00  0.00     0.017 C 
HETATM   34  C   UNK N   1      37.336  14.219   5.282  0.00  0.00     0.017 C 
HETATM   35  C   UNK N   1      35.520  13.462   3.918  0.00  0.00     0.017 C 
ENDBRANCH  22  32
ENDBRANCH   4  22
TORSDOF 7
ENDMDL
MODEL 4
REMARK VINA RESULT:      -6.8     12.336     15.724
REMARK  7 active torsions:
REMARK  status: ('A' for Active; 'I' for Inactive)
REMARK    1  A    between atoms: C_2  and  N_5 
REMARK       I    between atoms: N_5  and  C_10 
REMARK    2  A    between atoms: C_13  and  C_10 
REMARK       I    between atoms: N_15  and  C_17 
REMARK    3  A    between atoms: C_17  and  C_20 
REMARK    4  A    between atoms: C_20  and  N_22 
REMARK    5  A    between atoms: C_20  and  C_23 
REMARK       I    between atoms: N_22  and  C_24 
REMARK    6  A    between atoms: C_24  and  C_28 
REMARK    7  A    between atoms: C_28  and  N_30 
ROOT
HETATM    1  C   UNK N   1      29.000  16.076   3.028  0.00  0.00     0.179 C 
HETATM    2  N   UNK N   1      28.092  16.594   4.029  0.00  0.00    -0.337 N 
HETATM    3  C   UNK N   1      28.128  15.334   2.034  0.00  0.00     0.037 C 
HETATM    4  C   UNK N   1      28.509  17.525   4.957  0.00  0.00     0.244 C 
HETATM    5  C   UNK N   1      26.754  16.112   3.898  0.00  0.00     0.127 C 
HETATM    6  C   UNK N   1      26.780  15.147   2.721  0.00  0.00     0.022 C 
HETATM    7  O   UNK N   1      29.685  17.860   4.954  0.00  0.00    -0.271 OA
ENDROOT
BRANCH   1   8
HETATM    8  C   UNK N   1      30.034  15.162   3.626  0.00  0.00     0.241 C 
HETATM    9  N   UNK N   1      31.312  15.603   3.761  0.00  0.00    -0.351 N 
HETATM   10  H   UNK N   1      31.561  16.463   3.350  0.00  0.00     0.163 HD
HETATM   11  O   UNK N   1      29.709  14.062   4.053  0.00  0.00    -0.271 OA
BRANCH   9  12
HETATM   12  C   UNK N   1      32.326  14.862   4.487  0.00  0.00     0.118 C 
HETATM   13  C   UNK N   1      33.005  15.701   5.556  0.00  0.00    -0.029 A 
HETATM   14  C   UNK N   1      34.115  15.145   6.203  0.00  0.00    -0.050 A 
HETATM   15  C   UNK N   1      32.601  17.007   5.881  0.00  0.00     0.010 A 
HETATM   16  C   UNK N   1      34.572  13.784   5.781  0.00  0.00     0.039 C 
HETATM   17  C   UNK N   1      34.805  15.874   7.176  0.00  0.00     0.007 A 
HETATM   18  C   UNK N   1      34.611  13.693   4.241  0.00  0.00     0.007 C 
HETATM   19  C   UNK N   1      33.419  14.383   3.522  0.00  0.00     0.030 C 
HETATM   20  C   UNK N   1      34.378  17.163   7.515  0.00  0.00     0.001 A 
HETATM   21  C   UNK N   1      33.279  17.730   6.864  0.00  0.00     0.001 A 
ENDBRANCH   9  12
ENDBRANCH   1   8
BRANCH   4  22
HETATM   22  C   UNK N   1      27.575  18.225   5.979  0.00  0.00     0.184 C 
BRANCH  22  23
HETATM   23  N   UNK N   1      28.365  18.455   7.188  0.00  0.00    -0.345 N 
HETATM   24  C   UNK N   1      28.292  17.711   8.326  0.00  0.00     0.240 C 
HETATM   25  O   UNK N   1      27.535  16.753   8.397  0.00  0.00    -0.271 OA
HETATM   26  H   UNK N   1      29.001  19.207   7.179  0.00  0.00     0.163 HD
BRANCH  24  27
HETATM   27  C   UNK N   1      29.147  18.096   9.510  0.00  0.00     0.165 C 
HETATM   28  C   UNK N   1      30.196  19.125   9.108  0.00  0.00     0.042 C 
BRANCH  27  29
HETATM   29  N   UNK N   1      29.749  16.926  10.165  0.00  0.00    -0.414 N 
HETATM   30  C   UNK N   1      30.873  16.386   9.401  0.00  0.00     0.140 C 
HETATM   31  H   UNK N   1      29.423  16.536  11.050  0.00  0.00     0.153 HD
ENDBRANCH  27  29
ENDBRANCH  24  27
ENDBRANCH  22  23
BRANCH  22  32
HETATM   32  C   UNK N   1      27.009  19.614   5.512  0.00  0.00    -0.022 C 
HETATM   33  C   UNK N   1      25.542  19.513   5.125  0.00  0.00     0.017 C 
HETATM   34  C   UNK N   1      27.754  20.160   4.302  0.00  0.00     0.017 C 
HETATM   35  C   UNK N   1      27.179  20.693   6.564  0.00  0.00     0.017 C 
ENDBRANCH  22  32
ENDBRANCH   4  22
TORSDOF 7
ENDMDL
MODEL 5
REMARK VINA RESULT:      -6.8     13.079     16.225
REMARK  7 active torsions:
REMARK  status: ('A' for Active; 'I' for Inactive)
REMARK    1  A    between atoms: C_2  and  N_5 
REMARK       I    between atoms: N_5  and  C_10 
REMARK    2  A    between atoms: C_13  and  C_10 
REMARK       I    between atoms: N_15  and  C_17 
REMARK    3  A    between atoms: C_17  and  C_20 
REMARK    4  A    between atoms: C_20  and  N_22 
REMARK    5  A    between atoms: C_20  and  C_23 
REMARK       I    between atoms: N_22  and  C_24 
REMARK    6  A    between atoms: C_24  and  C_28 
REMARK    7  A    between atoms: C_28  and  N_30 
ROOT
HETATM    1  C   UNK N   1      22.995  17.238   4.156  0.00  0.00     0.179 C 
HETATM    2  N   UNK N   1      24.381  17.653   4.105  0.00  0.00    -0.337 N 
HETATM    3  C   UNK N   1      22.203  18.400   3.587  0.00  0.00     0.037 C 
HETATM    4  C   UNK N   1      25.403  16.752   4.318  0.00  0.00     0.244 C 
HETATM    5  C   UNK N   1      24.560  19.023   3.744  0.00  0.00     0.127 C 
HETATM    6  C   UNK N   1      23.157  19.589   3.577  0.00  0.00     0.022 C 
HETATM    7  O   UNK N   1      25.111  15.602   4.613  0.00  0.00    -0.271 OA
ENDROOT
BRANCH   1   8
HETATM    8  C   UNK N   1      22.554  16.920   5.558  0.00  0.00     0.241 C 
HETATM    9  N   UNK N   1      22.411  15.621   5.931  0.00  0.00    -0.351 N 
HETATM   10  H   UNK N   1      22.476  14.922   5.240  0.00  0.00     0.163 HD
HETATM   11  O   UNK N   1      22.401  17.819   6.373  0.00  0.00    -0.271 OA
BRANCH   9  12
HETATM   12  C   UNK N   1      22.167  15.220   7.304  0.00  0.00     0.118 C 
HETATM   13  C   UNK N   1      22.740  13.849   7.618  0.00  0.00    -0.029 A 
HETATM   14  C   UNK N   1      22.419  13.286   8.860  0.00  0.00    -0.050 A 
HETATM   15  C   UNK N   1      23.525  13.117   6.712  0.00  0.00     0.010 A 
HETATM   16  C   UNK N   1      21.516  14.054   9.772  0.00  0.00     0.039 C 
HETATM   17  C   UNK N   1      22.889  12.015   9.202  0.00  0.00     0.007 A 
HETATM   18  C   UNK N   1      20.310  14.605   8.983  0.00  0.00     0.007 C 
HETATM   19  C   UNK N   1      20.657  15.156   7.572  0.00  0.00     0.030 C 
HETATM   20  C   UNK N   1      23.695  11.304   8.305  0.00  0.00     0.001 A 
HETATM   21  C   UNK N   1      24.009  11.854   7.059  0.00  0.00     0.001 A 
ENDBRANCH   9  12
ENDBRANCH   1   8
BRANCH   4  22
HETATM   22  C   UNK N   1      26.911  17.082   4.158  0.00  0.00     0.184 C 
BRANCH  22  23
HETATM   23  N   UNK N   1      27.444  17.294   5.503  0.00  0.00    -0.345 N 
HETATM   24  C   UNK N   1      28.040  18.438   5.938  0.00  0.00     0.240 C 
HETATM   25  O   UNK N   1      28.153  19.404   5.196  0.00  0.00    -0.271 OA
HETATM   26  H   UNK N   1      27.366  16.551   6.145  0.00  0.00     0.163 HD
BRANCH  24  27
HETATM   27  C   UNK N   1      28.578  18.494   7.349  0.00  0.00     0.165 C 
HETATM   28  C   UNK N   1      29.785  17.579   7.503  0.00  0.00     0.042 C 
BRANCH  27  29
HETATM   29  N   UNK N   1      27.541  18.209   8.351  0.00  0.00    -0.414 N 
HETATM   30  C   UNK N   1      27.999  17.252   9.358  0.00  0.00     0.140 C 
HETATM   31  H   UNK N   1      26.611  18.629   8.347  0.00  0.00     0.153 HD
ENDBRANCH  27  29
ENDBRANCH  24  27
ENDBRANCH  22  23
BRANCH  22  32
HETATM   32  C   UNK N   1      27.766  15.949   3.484  0.00  0.00    -0.022 C 
HETATM   33  C   UNK N   1      28.073  14.828   4.465  0.00  0.00     0.017 C 
HETATM   34  C   UNK N   1      29.100  16.466   2.965  0.00  0.00     0.017 C 
HETATM   35  C   UNK N   1      27.094  15.370   2.254  0.00  0.00     0.017 C 
ENDBRANCH  22  32
ENDBRANCH   4  22
TORSDOF 7
ENDMDL
MODEL 6
REMARK VINA RESULT:      -6.8     13.496     16.359
REMARK  7 active torsions:
REMARK  status: ('A' for Active; 'I' for Inactive)
REMARK    1  A    between atoms: C_2  and  N_5 
REMARK       I    between atoms: N_5  and  C_10 
REMARK    2  A    between atoms: C_13  and  C_10 
REMARK       I    between atoms: N_15  and  C_17 
REMARK    3  A    between atoms: C_17  and  C_20 
REMARK    4  A    between atoms: C_20  and  N_22 
REMARK    5  A    between atoms: C_20  and  C_23 
REMARK       I    between atoms: N_22  and  C_24 
REMARK    6  A    between atoms: C_24  and  C_28 
REMARK    7  A    between atoms: C_28  and  N_30 
ROOT
HETATM    1  C   UNK N   1      26.261  17.195   4.144  0.00  0.00     0.179 C 
HETATM    2  N   UNK N   1      25.311  16.151   4.467  0.00  0.00    -0.337 N 
HETATM    3  C   UNK N   1      27.372  16.508   3.374  0.00  0.00     0.037 C 
HETATM    4  C   UNK N   1      24.057  16.454   4.955  0.00  0.00     0.244 C 
HETATM    5  C   UNK N   1      25.774  14.835   4.158  0.00  0.00     0.127 C 
HETATM    6  C   UNK N   1      27.184  15.014   3.614  0.00  0.00     0.022 C 
HETATM    7  O   UNK N   1      23.786  17.626   5.168  0.00  0.00    -0.271 OA
ENDROOT
BRANCH   1   8
HETATM    8  C   UNK N   1      26.796  17.869   5.377  0.00  0.00     0.241 C 
HETATM    9  N   UNK N   1      27.583  17.164   6.232  0.00  0.00    -0.351 N 
HETATM   10  H   UNK N   1      27.680  16.195   6.092  0.00  0.00     0.163 HD
HETATM   11  O   UNK N   1      26.586  19.060   5.566  0.00  0.00    -0.271 OA
BRANCH   9  12
HETATM   12  C   UNK N   1      28.285  17.780   7.342  0.00  0.00     0.118 C 
HETATM   13  C   UNK N   1      29.791  17.601   7.246  0.00  0.00    -0.029 A 
HETATM   14  C   UNK N   1      30.558  18.004   8.346  0.00  0.00    -0.050 A 
HETATM   15  C   UNK N   1      30.427  17.014   6.140  0.00  0.00     0.010 A 
HETATM   16  C   UNK N   1      29.847  18.552   9.543  0.00  0.00     0.039 C 
HETATM   17  C   UNK N   1      31.946  17.841   8.336  0.00  0.00     0.007 A 
HETATM   18  C   UNK N   1      28.637  17.660   9.893  0.00  0.00     0.007 C 
HETATM   19  C   UNK N   1      27.834  17.148   8.665  0.00  0.00     0.030 C 
HETATM   20  C   UNK N   1      32.576  17.283   7.218  0.00  0.00     0.001 A 
HETATM   21  C   UNK N   1      31.815  16.866   6.122  0.00  0.00     0.001 A 
ENDBRANCH   9  12
ENDBRANCH   1   8
BRANCH   4  22
HETATM   22  C   UNK N   1      22.937  15.409   5.206  0.00  0.00     0.184 C 
BRANCH  22  23
HETATM   23  N   UNK N   1      22.173  15.877   6.361  0.00  0.00    -0.345 N 
HETATM   24  C   UNK N   1      21.795  15.104   7.416  0.00  0.00     0.240 C 
HETATM   25  O   UNK N   1      22.103  13.921   7.464  0.00  0.00    -0.271 OA
HETATM   26  H   UNK N   1      21.910  16.826   6.378  0.00  0.00     0.163 HD
BRANCH  24  27
HETATM   27  C   UNK N   1      20.971  15.722   8.520  0.00  0.00     0.165 C 
HETATM   28  C   UNK N   1      20.388  14.646   9.428  0.00  0.00     0.042 C 
BRANCH  27  29
HETATM   29  N   UNK N   1      19.932  16.624   8.001  0.00  0.00    -0.414 N 
HETATM   30  C   UNK N   1      18.787  16.722   8.907  0.00  0.00     0.140 C 
HETATM   31  H   UNK N   1      20.000  17.123   7.114  0.00  0.00     0.153 HD
ENDBRANCH  27  29
ENDBRANCH  24  27
ENDBRANCH  22  23
BRANCH  22  32
HETATM   32  C   UNK N   1      21.930  15.224   4.014  0.00  0.00    -0.022 C 
HETATM   33  C   UNK N   1      22.616  15.424   2.672  0.00  0.00     0.017 C 
HETATM   34  C   UNK N   1      20.776  16.215   4.079  0.00  0.00     0.017 C 
HETATM   35  C   UNK N   1      21.251  13.869   4.035  0.00  0.00     0.017 C 
ENDBRANCH  22  32
ENDBRANCH   4  22
TORSDOF 7
ENDMDL
MODEL 7
REMARK VINA RESULT:      -6.7      2.420      6.152
REMARK  7 active torsions:
REMARK  status: ('A' for Active; 'I' for Inactive)
REMARK    1  A    between atoms: C_2  and  N_5 
REMARK       I    between atoms: N_5  and  C_10 
REMARK    2  A    between atoms: C_13  and  C_10 
REMARK       I    between atoms: N_15  and  C_17 
REMARK    3  A    between atoms: C_17  and  C_20 
REMARK    4  A    between atoms: C_20  and  N_22 
REMARK    5  A    between atoms: C_20  and  C_23 
REMARK       I    between atoms: N_22  and  C_24 
REMARK    6  A    between atoms: C_24  and  C_28 
REMARK    7  A    between atoms: C_28  and  N_30 
ROOT
HETATM    1  C   UNK N   1      26.513  26.779  -5.903  0.00  0.00     0.179 C 
HETATM    2  N   UNK N   1      27.513  26.647  -4.865  0.00  0.00    -0.337 N 
HETATM    3  C   UNK N   1      25.408  27.624  -5.297  0.00  0.00     0.037 C 
HETATM    4  C   UNK N   1      28.766  26.144  -5.143  0.00  0.00     0.244 C 
HETATM    5  C   UNK N   1      27.095  27.150  -3.595  0.00  0.00     0.127 C 
HETATM    6  C   UNK N   1      25.664  27.628  -3.794  0.00  0.00     0.022 C 
HETATM    7  O   UNK N   1      28.996  25.755  -6.279  0.00  0.00    -0.271 OA
ENDROOT
BRANCH   1   8
HETATM    8  C   UNK N   1      25.986  25.444  -6.351  0.00  0.00     0.241 C 
HETATM    9  N   UNK N   1      26.583  24.810  -7.394  0.00  0.00    -0.351 N 
HETATM   10  H   UNK N   1      27.264  25.295  -7.913  0.00  0.00     0.163 HD
HETATM   11  O   UNK N   1      25.079  24.902  -5.734  0.00  0.00    -0.271 OA
BRANCH   9  12
HETATM   12  C   UNK N   1      26.259  23.448  -7.775  0.00  0.00     0.118 C 
HETATM   13  C   UNK N   1      27.407  22.486  -7.519  0.00  0.00    -0.029 A 
HETATM   14  C   UNK N   1      27.273  21.179  -8.004  0.00  0.00    -0.050 A 
HETATM   15  C   UNK N   1      28.596  22.861  -6.871  0.00  0.00     0.010 A 
HETATM   16  C   UNK N   1      26.030  20.830  -8.761  0.00  0.00     0.039 C 
HETATM   17  C   UNK N   1      28.303  20.251  -7.829  0.00  0.00     0.007 A 
HETATM   18  C   UNK N   1      25.708  21.936  -9.788  0.00  0.00     0.007 C 
HETATM   19  C   UNK N   1      25.936  23.384  -9.273  0.00  0.00     0.030 C 
HETATM   20  C   UNK N   1      29.472  20.625  -7.156  0.00  0.00     0.001 A 
HETATM   21  C   UNK N   1      29.619  21.931  -6.681  0.00  0.00     0.001 A 
ENDBRANCH   9  12
ENDBRANCH   1   8
BRANCH   4  22
HETATM   22  C   UNK N   1      29.935  26.087  -4.123  0.00  0.00     0.184 C 
BRANCH  22  23
HETATM   23  N   UNK N   1      30.704  24.881  -4.428  0.00  0.00    -0.345 N 
HETATM   24  C   UNK N   1      30.915  23.847  -3.567  0.00  0.00     0.240 C 
HETATM   25  O   UNK N   1      30.435  23.865  -2.442  0.00  0.00    -0.271 OA
HETATM   26  H   UNK N   1      31.101  24.810  -5.326  0.00  0.00     0.163 HD
BRANCH  24  27
HETATM   27  C   UNK N   1      31.767  22.683  -4.014  0.00  0.00     0.165 C 
HETATM   28  C   UNK N   1      32.072  21.756  -2.844  0.00  0.00     0.042 C 
BRANCH  27  29
HETATM   29  N   UNK N   1      32.991  23.120  -4.701  0.00  0.00    -0.414 N 
HETATM   30  C   UNK N   1      33.972  22.042  -4.815  0.00  0.00     0.140 C 
HETATM   31  H   UNK N   1      33.139  24.065  -5.056  0.00  0.00     0.153 HD
ENDBRANCH  27  29
ENDBRANCH  24  27
ENDBRANCH  22  23
BRANCH  22  32
HETATM   32  C   UNK N   1      30.923  27.306  -4.183  0.00  0.00    -0.022 C 
HETATM   33  C   UNK N   1      30.394  28.405  -5.092  0.00  0.00     0.017 C 
HETATM   34  C   UNK N   1      32.294  26.910  -4.712  0.00  0.00     0.017 C 
HETATM   35  C   UNK N   1      31.213  27.885  -2.812  0.00  0.00     0.017 C 
ENDBRANCH  22  32
ENDBRANCH   4  22
TORSDOF 7
ENDMDL
MODEL 8
REMARK VINA RESULT:      -6.7     12.278     15.009
REMARK  7 active torsions:
REMARK  status: ('A' for Active; 'I' for Inactive)
REMARK    1  A    between atoms: C_2  and  N_5 
REMARK       I    between atoms: N_5  and  C_10 
REMARK    2  A    between atoms: C_13  and  C_10 
REMARK       I    between atoms: N_15  and  C_17 
REMARK    3  A    between atoms: C_17  and  C_20 
REMARK    4  A    between atoms: C_20  and  N_22 
REMARK    5  A    between atoms: C_20  and  C_23 
REMARK       I    between atoms: N_22  and  C_24 
REMARK    6  A    between atoms: C_24  and  C_28 
REMARK    7  A    between atoms: C_28  and  N_30 
ROOT
HETATM    1  C   UNK N   1      21.265  19.145   3.440  0.00  0.00     0.179 C 
HETATM    2  N   UNK N   1      21.286  17.717   3.676  0.00  0.00    -0.337 N 
HETATM    3  C   UNK N   1      20.625  19.321   2.076  0.00  0.00     0.037 C 
HETATM    4  C   UNK N   1      21.579  17.206   4.923  0.00  0.00     0.244 C 
HETATM    5  C   UNK N   1      20.907  16.939   2.540  0.00  0.00     0.127 C 
HETATM    6  C   UNK N   1      20.646  17.942   1.425  0.00  0.00     0.022 C 
HETATM    7  O   UNK N   1      21.880  17.986   5.814  0.00  0.00    -0.271 OA
ENDROOT
BRANCH   1   8
HETATM    8  C   UNK N   1      22.644  19.742   3.469  0.00  0.00     0.241 C 
HETATM    9  N   UNK N   1      23.662  19.035   4.027  0.00  0.00    -0.351 N 
HETATM   10  H   UNK N   1      23.450  18.204   4.511  0.00  0.00     0.163 HD
HETATM   11  O   UNK N   1      22.860  20.819   2.930  0.00  0.00    -0.271 OA
BRANCH   9  12
HETATM   12  C   UNK N   1      25.049  19.451   3.937  0.00  0.00     0.118 C 
HETATM   13  C   UNK N   1      25.995  18.280   3.736  0.00  0.00    -0.029 A 
HETATM   14  C   UNK N   1      27.369  18.542   3.806  0.00  0.00    -0.050 A 
HETATM   15  C   UNK N   1      25.555  16.961   3.534  0.00  0.00     0.010 A 
HETATM   16  C   UNK N   1      27.808  19.941   4.102  0.00  0.00     0.039 C 
HETATM   17  C   UNK N   1      28.294  17.505   3.660  0.00  0.00     0.007 A 
HETATM   18  C   UNK N   1      26.981  20.520   5.269  0.00  0.00     0.007 C 
HETATM   19  C   UNK N   1      25.470  20.159   5.232  0.00  0.00     0.030 C 
HETATM   20  C   UNK N   1      27.847  16.198   3.429  0.00  0.00     0.001 A 
HETATM   21  C   UNK N   1      26.478  15.927   3.371  0.00  0.00     0.001 A 
ENDBRANCH   9  12
ENDBRANCH   1   8
BRANCH   4  22
HETATM   22  C   UNK N   1      21.500  15.701   5.294  0.00  0.00     0.184 C 
BRANCH  22  23
HETATM   23  N   UNK N   1      22.557  15.450   6.273  0.00  0.00    -0.345 N 
HETATM   24  C   UNK N   1      23.666  14.692   6.052  0.00  0.00     0.240 C 
HETATM   25  O   UNK N   1      23.856  14.166   4.965  0.00  0.00    -0.271 OA
HETATM   26  H   UNK N   1      22.460  15.862   7.162  0.00  0.00     0.163 HD
BRANCH  24  27
HETATM   27  C   UNK N   1      24.654  14.492   7.178  0.00  0.00     0.165 C 
HETATM   28  C   UNK N   1      25.916  15.312   6.941  0.00  0.00     0.042 C 
BRANCH  27  29
HETATM   29  N   UNK N   1      24.957  13.072   7.406  0.00  0.00    -0.414 N 
HETATM   30  C   UNK N   1      24.448  12.601   8.694  0.00  0.00     0.140 C 
HETATM   31  H   UNK N   1      25.463  12.482   6.744  0.00  0.00     0.153 HD
ENDBRANCH  27  29
ENDBRANCH  24  27
ENDBRANCH  22  23
BRANCH  22  32
HETATM   32  C   UNK N   1      20.141  15.251   5.940  0.00  0.00    -0.022 C 
HETATM   33  C   UNK N   1      20.108  15.553   7.431  0.00  0.00     0.017 C 
HETATM   34  C   UNK N   1      19.894  13.758   5.780  0.00  0.00     0.017 C 
HETATM   35  C   UNK N   1      18.941  15.894   5.272  0.00  0.00     0.017 C 
ENDBRANCH  22  32
ENDBRANCH   4  22
TORSDOF 7
ENDMDL
MODEL 9
REMARK VINA RESULT:      -6.7     13.462     16.639
REMARK  7 active torsions:
REMARK  status: ('A' for Active; 'I' for Inactive)
REMARK    1  A    between atoms: C_2  and  N_5 
REMARK       I    between atoms: N_5  and  C_10 
REMARK    2  A    between atoms: C_13  and  C_10 
REMARK       I    between atoms: N_15  and  C_17 
REMARK    3  A    between atoms: C_17  and  C_20 
REMARK    4  A    between atoms: C_20  and  N_22 
REMARK    5  A    between atoms: C_20  and  C_23 
REMARK       I    between atoms: N_22  and  C_24 
REMARK    6  A    between atoms: C_24  and  C_28 
REMARK    7  A    between atoms: C_28  and  N_30 
ROOT
HETATM    1  C   UNK N   1      26.534  15.899   3.617  0.00  0.00     0.179 C 
HETATM    2  N   UNK N   1      25.429  15.090   4.084  0.00  0.00    -0.337 N 
HETATM    3  C   UNK N   1      26.718  15.532   2.157  0.00  0.00     0.037 C 
HETATM    4  C   UNK N   1      24.829  15.336   5.301  0.00  0.00     0.244 C 
HETATM    5  C   UNK N   1      24.999  14.104   3.144  0.00  0.00     0.127 C 
HETATM    6  C   UNK N   1      25.934  14.240   1.951  0.00  0.00     0.022 C 
HETATM    7  O   UNK N   1      25.292  16.219   6.007  0.00  0.00    -0.271 OA
ENDROOT
BRANCH   1   8
HETATM    8  C   UNK N   1      27.791  15.641   4.400  0.00  0.00     0.241 C 
HETATM    9  N   UNK N   1      28.592  16.686   4.737  0.00  0.00    -0.351 N 
HETATM   10  H   UNK N   1      28.398  17.571   4.352  0.00  0.00     0.163 HD
HETATM   11  O   UNK N   1      28.049  14.511   4.794  0.00  0.00    -0.271 OA
BRANCH   9  12
HETATM   12  C   UNK N   1      29.720  16.553   5.639  0.00  0.00     0.118 C 
HETATM   13  C   UNK N   1      29.498  17.277   6.956  0.00  0.00    -0.029 A 
HETATM   14  C   UNK N   1      30.584  17.361   7.836  0.00  0.00    -0.050 A 
HETATM   15  C   UNK N   1      28.284  17.895   7.299  0.00  0.00     0.010 A 
HETATM   16  C   UNK N   1      31.888  16.764   7.410  0.00  0.00     0.039 C 
HETATM   17  C   UNK N   1      30.457  18.039   9.052  0.00  0.00     0.007 A 
HETATM   18  C   UNK N   1      32.204  17.167   5.954  0.00  0.00     0.007 C 
HETATM   19  C   UNK N   1      30.979  17.150   4.998  0.00  0.00     0.030 C 
HETATM   20  C   UNK N   1      29.235  18.626   9.399  0.00  0.00     0.001 A 
HETATM   21  C   UNK N   1      28.151  18.558   8.521  0.00  0.00     0.001 A 
ENDBRANCH   9  12
ENDBRANCH   1   8
BRANCH   4  22
HETATM   22  C   UNK N   1      23.563  14.603   5.819  0.00  0.00     0.184 C 
BRANCH  22  23
HETATM   23  N   UNK N   1      23.724  14.451   7.264  0.00  0.00    -0.345 N 
HETATM   24  C   UNK N   1      23.559  13.289   7.954  0.00  0.00     0.240 C 
HETATM   25  O   UNK N   1      23.268  12.254   7.370  0.00  0.00    -0.271 OA
HETATM   26  H   UNK N   1      23.971  15.253   7.781  0.00  0.00     0.163 HD
BRANCH  24  27
HETATM   27  C   UNK N   1      23.721  13.297   9.456  0.00  0.00     0.165 C 
HETATM   28  C   UNK N   1      24.574  12.121   9.913  0.00  0.00     0.042 C 
BRANCH  27  29
HETATM   29  N   UNK N   1      22.429  13.343  10.155  0.00  0.00    -0.414 N 
HETATM   30  C   UNK N   1      22.242  12.193  11.039  0.00  0.00     0.140 C 
HETATM   31  H   UNK N   1      21.742  14.088  10.037  0.00  0.00     0.153 HD
ENDBRANCH  27  29
ENDBRANCH  24  27
ENDBRANCH  22  23
BRANCH  22  32
HETATM   32  C   UNK N   1      22.212  15.365   5.571  0.00  0.00    -0.022 C 
HETATM   33  C   UNK N   1      21.844  16.244   6.756  0.00  0.00     0.017 C 
HETATM   34  C   UNK N   1      21.047  14.411   5.343  0.00  0.00     0.017 C 
HETATM   35  C   UNK N   1      22.245  16.209   4.311  0.00  0.00     0.017 C 
ENDBRANCH  22  32
ENDBRANCH   4  22
TORSDOF 7
ENDMDL
