MODEL 1
REMARK VINA RESULT:      -7.0      0.000      0.000
REMARK  5 active torsions:
REMARK  status: ('A' for Active; 'I' for Inactive)
REMARK    1  A    between atoms: C_1  and  C_16 
REMARK    2  A    between atoms: C_10  and  N_26 
REMARK    3  A    between atoms: C_13  and  O_23 
REMARK    4  A    between atoms: C_14  and  O_18 
REMARK    5  A    between atoms: C_16  and  O_22 
ROOT
HETATM    1  C   UNK N   1      26.221  24.342  -7.047  0.00  0.00     0.054 A 
HETATM    2  C   UNK N   1      25.602  25.399  -6.354  0.00  0.00     0.059 A 
HETATM    3  C   UNK N   1      26.064  25.764  -5.114  0.00  0.00     0.107 A 
HETATM    4  C   UNK N   1      27.082  25.153  -4.521  0.00  0.00     0.117 A 
HETATM    5  C   UNK N   1      27.752  24.059  -5.102  0.00  0.00     0.025 A 
HETATM    6  C   UNK N   1      27.312  23.603  -6.405  0.00  0.00     0.028 A 
HETATM    7  C   UNK N   1      28.827  23.421  -4.426  0.00  0.00    -0.009 A 
HETATM    8  C   UNK N   1      29.493  22.329  -5.022  0.00  0.00     0.014 A 
HETATM    9  C   UNK N   1      29.061  21.888  -6.265  0.00  0.00     0.052 A 
HETATM   10  C   UNK N   1      27.988  22.455  -6.962  0.00  0.00     0.116 A 
HETATM   11  C   UNK N   1      29.243  23.858  -3.158  0.00  0.00     0.016 A 
HETATM   12  C   UNK N   1      30.281  23.229  -2.484  0.00  0.00     0.040 A 
HETATM   13  C   UNK N   1      30.935  22.148  -3.060  0.00  0.00     0.099 A 
HETATM   14  C   UNK N   1      30.565  21.678  -4.329  0.00  0.00     0.112 A 
HETATM   15  C   UNK N   1      26.405  26.797  -3.187  0.00  0.00     0.352 A 
HETATM   16  O   UNK N   1      25.625  26.757  -4.343  0.00  0.00    -0.323 OA
HETATM   17  O   UNK N   1      27.314  25.751  -3.348  0.00  0.00    -0.322 OA
ENDROOT
BRANCH   1  18
HETATM   18  C   UNK N   1      25.737  24.194  -8.448  0.00  0.00     0.177 C 
HETATM   19  O   UNK N   1      26.166  24.906  -9.340  0.00  0.00    -0.646 OA
BRANCH  18  20
HETATM   20  O   UNK N   1      24.680  23.396  -8.705  0.00  0.00    -0.773 OA
HETATM   21  H   UNK N   1      23.844  23.727  -8.971  0.00  0.00     0.167 HD
ENDBRANCH  18  20
ENDBRANCH   1  18
BRANCH  10  22
HETATM   22  N   UNK N   1      27.571  21.758  -8.137  0.00  0.00    -0.115 N 
HETATM   23  O   UNK N   1      28.340  21.631  -9.043  0.00  0.00    -0.532 OA
HETATM   24  O   UNK N   1      26.564  20.912  -8.056  0.00  0.00    -0.532 OA
ENDBRANCH  10  22
BRANCH  14  25
HETATM   25  O   UNK N   1      31.258  20.609  -4.819  0.00  0.00    -0.352 OA
HETATM   26  C   UNK N   1      32.372  20.640  -5.625  0.00  0.00     0.210 C 
ENDBRANCH  14  25
BRANCH  13  27
HETATM   27  O   UNK N   1      31.930  21.549  -2.383  0.00  0.00    -0.358 OA
HETATM   28  H   UNK N   1      32.492  20.938  -2.818  0.00  0.00     0.217 HD
ENDBRANCH  13  27
TORSDOF 5
ENDMDL
MODEL 2
REMARK VINA RESULT:      -6.9     22.667     25.902
REMARK  5 active torsions:
REMARK  status: ('A' for Active; 'I' for Inactive)
REMARK    1  A    between atoms: C_1  and  C_16 
REMARK    2  A    between atoms: C_10  and  N_26 
REMARK    3  A    between atoms: C_13  and  O_23 
REMARK    4  A    between atoms: C_14  and  O_18 
REMARK    5  A    between atoms: C_16  and  O_22 
ROOT
HETATM    1  C   UNK N   1      35.483  10.295  13.242  0.00  0.00     0.054 A 
HETATM    2  C   UNK N   1      35.621   8.899  13.356  0.00  0.00     0.059 A 
HETATM    3  C   UNK N   1      35.653   8.316  14.599  0.00  0.00     0.107 A 
HETATM    4  C   UNK N   1      35.564   9.019  15.721  0.00  0.00     0.117 A 
HETATM    5  C   UNK N   1      35.462  10.423  15.730  0.00  0.00     0.025 A 
HETATM    6  C   UNK N   1      35.439  11.114  14.457  0.00  0.00     0.028 A 
HETATM    7  C   UNK N   1      35.387  11.140  16.955  0.00  0.00    -0.009 A 
HETATM    8  C   UNK N   1      35.280  12.548  16.949  0.00  0.00     0.014 A 
HETATM    9  C   UNK N   1      35.269  13.206  15.728  0.00  0.00     0.052 A 
HETATM   10  C   UNK N   1      35.374  12.556  14.492  0.00  0.00     0.116 A 
HETATM   11  C   UNK N   1      35.421  10.468  18.187  0.00  0.00     0.016 A 
HETATM   12  C   UNK N   1      35.366  11.163  19.388  0.00  0.00     0.040 A 
HETATM   13  C   UNK N   1      35.270  12.549  19.391  0.00  0.00     0.099 A 
HETATM   14  C   UNK N   1      35.221  13.267  18.187  0.00  0.00     0.112 A 
HETATM   15  C   UNK N   1      35.697   6.870  16.273  0.00  0.00     0.352 A 
HETATM   16  O   UNK N   1      35.738   7.019  14.887  0.00  0.00    -0.323 OA
HETATM   17  O   UNK N   1      35.591   8.174  16.757  0.00  0.00    -0.322 OA
ENDROOT
BRANCH   1  18
HETATM   18  C   UNK N   1      35.272  10.751  11.840  0.00  0.00     0.177 C 
HETATM   19  O   UNK N   1      36.215  10.957  11.097  0.00  0.00    -0.646 OA
BRANCH  18  20
HETATM   20  O   UNK N   1      34.037  11.122  11.441  0.00  0.00    -0.773 OA
HETATM   21  H   UNK N   1      33.793  12.016  11.302  0.00  0.00     0.167 HD
ENDBRANCH  18  20
ENDBRANCH   1  18
BRANCH  10  22
HETATM   22  N   UNK N   1      35.530  13.405  13.354  0.00  0.00    -0.115 N 
HETATM   23  O   UNK N   1      34.556  13.815  12.796  0.00  0.00    -0.532 OA
HETATM   24  O   UNK N   1      36.658  14.066  13.198  0.00  0.00    -0.532 OA
ENDBRANCH  10  22
BRANCH  14  25
HETATM   25  O   UNK N   1      35.131  14.625  18.281  0.00  0.00    -0.352 OA
HETATM   26  C   UNK N   1      36.145  15.540  18.111  0.00  0.00     0.210 C 
ENDBRANCH  14  25
BRANCH  13  27
HETATM   27  O   UNK N   1      35.228  13.199  20.567  0.00  0.00    -0.358 OA
HETATM   28  H   UNK N   1      35.577  14.067  20.635  0.00  0.00     0.217 HD
ENDBRANCH  13  27
TORSDOF 5
ENDMDL
MODEL 3
REMARK VINA RESULT:      -6.8      2.005      6.769
REMARK  5 active torsions:
REMARK  status: ('A' for Active; 'I' for Inactive)
REMARK    1  A    between atoms: C_1  and  C_16 
REMARK    2  A    between atoms: C_10  and  N_26 
REMARK    3  A    between atoms: C_13  and  O_23 
REMARK    4  A    between atoms: C_14  and  O_18 
REMARK    5  A    between atoms: C_16  and  O_22 
ROOT
HETATM    1  C   UNK N   1      30.351  22.661  -3.864  0.00  0.00     0.054 A 
HETATM    2  C   UNK N   1      31.389  21.726  -4.029  0.00  0.00     0.059 A 
HETATM    3  C   UNK N   1      31.435  20.953  -5.164  0.00  0.00     0.107 A 
HETATM    4  C   UNK N   1      30.528  21.041  -6.127  0.00  0.00     0.117 A 
HETATM    5  C   UNK N   1      29.425  21.913  -6.052  0.00  0.00     0.025 A 
HETATM    6  C   UNK N   1      29.296  22.751  -4.877  0.00  0.00     0.028 A 
HETATM    7  C   UNK N   1      28.465  21.965  -7.098  0.00  0.00    -0.009 A 
HETATM    8  C   UNK N   1      27.366  22.848  -7.013  0.00  0.00     0.014 A 
HETATM    9  C   UNK N   1      27.241  23.640  -5.881  0.00  0.00     0.052 A 
HETATM   10  C   UNK N   1      28.136  23.608  -4.805  0.00  0.00     0.116 A 
HETATM   11  C   UNK N   1      28.586  21.143  -8.230  0.00  0.00     0.016 A 
HETATM   12  C   UNK N   1      27.643  21.175  -9.249  0.00  0.00     0.040 A 
HETATM   13  C   UNK N   1      26.555  22.034  -9.167  0.00  0.00     0.099 A 
HETATM   14  C   UNK N   1      26.392  22.884  -8.062  0.00  0.00     0.112 A 
HETATM   15  C   UNK N   1      32.038  19.534  -6.751  0.00  0.00     0.352 A 
HETATM   16  O   UNK N   1      32.360  20.054  -5.498  0.00  0.00    -0.323 OA
HETATM   17  O   UNK N   1      30.860  20.192  -7.105  0.00  0.00    -0.322 OA
ENDROOT
BRANCH   1  18
HETATM   18  C   UNK N   1      30.545  23.551  -2.685  0.00  0.00     0.177 C 
HETATM   19  O   UNK N   1      30.344  23.148  -1.552  0.00  0.00    -0.646 OA
BRANCH  18  20
HETATM   20  O   UNK N   1      30.765  24.869  -2.876  0.00  0.00    -0.773 OA
HETATM   21  H   UNK N   1      30.878  25.474  -2.170  0.00  0.00     0.167 HD
ENDBRANCH  18  20
ENDBRANCH   1  18
BRANCH  10  22
HETATM   22  N   UNK N   1      27.750  24.356  -3.651  0.00  0.00    -0.115 N 
HETATM   23  O   UNK N   1      27.858  25.546  -3.666  0.00  0.00    -0.532 OA
HETATM   24  O   UNK N   1      26.903  23.822  -2.795  0.00  0.00    -0.532 OA
ENDBRANCH  10  22
BRANCH  14  25
HETATM   25  O   UNK N   1      25.293  23.693  -8.061  0.00  0.00    -0.352 OA
HETATM   26  C   UNK N   1      25.199  24.968  -8.570  0.00  0.00     0.210 C 
ENDBRANCH  14  25
BRANCH  13  27
HETATM   27  O   UNK N   1      25.649  22.040 -10.161  0.00  0.00    -0.358 OA
HETATM   28  H   UNK N   1      24.785  22.366 -10.006  0.00  0.00     0.217 HD
ENDBRANCH  13  27
TORSDOF 5
ENDMDL
MODEL 4
REMARK VINA RESULT:      -6.7     11.495     12.695
REMARK  5 active torsions:
REMARK  status: ('A' for Active; 'I' for Inactive)
REMARK    1  A    between atoms: C_1  and  C_16 
REMARK    2  A    between atoms: C_10  and  N_26 
REMARK    3  A    between atoms: C_13  and  O_23 
REMARK    4  A    between atoms: C_14  and  O_18 
REMARK    5  A    between atoms: C_16  and  O_22 
ROOT
HETATM    1  C   UNK N   1      21.170  18.959   3.168  0.00  0.00     0.054 A 
HETATM    2  C   UNK N   1      20.129  18.025   3.327  0.00  0.00     0.059 A 
HETATM    3  C   UNK N   1      20.362  16.855   4.007  0.00  0.00     0.107 A 
HETATM    4  C   UNK N   1      21.545  16.552   4.525  0.00  0.00     0.117 A 
HETATM    5  C   UNK N   1      22.668  17.391   4.394  0.00  0.00     0.025 A 
HETATM    6  C   UNK N   1      22.507  18.638   3.675  0.00  0.00     0.028 A 
HETATM    7  C   UNK N   1      23.922  17.021   4.950  0.00  0.00    -0.009 A 
HETATM    8  C   UNK N   1      25.039  17.874   4.816  0.00  0.00     0.014 A 
HETATM    9  C   UNK N   1      24.883  19.063   4.117  0.00  0.00     0.052 A 
HETATM   10  C   UNK N   1      23.682  19.464   3.520  0.00  0.00     0.116 A 
HETATM   11  C   UNK N   1      24.077  15.806   5.636  0.00  0.00     0.016 A 
HETATM   12  C   UNK N   1      25.303  15.429   6.167  0.00  0.00     0.040 A 
HETATM   13  C   UNK N   1      26.409  16.259   6.031  0.00  0.00     0.099 A 
HETATM   14  C   UNK N   1      26.305  17.489   5.364  0.00  0.00     0.112 A 
HETATM   15  C   UNK N   1      20.140  14.903   5.024  0.00  0.00     0.352 A 
HETATM   16  O   UNK N   1      19.489  15.887   4.281  0.00  0.00    -0.323 OA
HETATM   17  O   UNK N   1      21.448  15.372   5.147  0.00  0.00    -0.322 OA
ENDROOT
BRANCH   1  18
HETATM   18  C   UNK N   1      20.715  20.251   2.583  0.00  0.00     0.177 C 
HETATM   19  O   UNK N   1      20.679  20.418   1.376  0.00  0.00    -0.646 OA
BRANCH  18  20
HETATM   20  O   UNK N   1      20.518  21.313   3.392  0.00  0.00    -0.773 OA
HETATM   21  H   UNK N   1      19.819  21.357   4.015  0.00  0.00     0.167 HD
ENDBRANCH  18  20
ENDBRANCH   1  18
BRANCH  10  22
HETATM   22  N   UNK N   1      23.756  20.624   2.690  0.00  0.00    -0.115 N 
HETATM   23  O   UNK N   1      23.347  21.666   3.109  0.00  0.00    -0.532 OA
HETATM   24  O   UNK N   1      24.629  20.652   1.705  0.00  0.00    -0.532 OA
ENDBRANCH  10  22
BRANCH  14  25
HETATM   25  O   UNK N   1      27.440  18.241   5.272  0.00  0.00    -0.352 OA
HETATM   26  C   UNK N   1      27.805  19.297   6.076  0.00  0.00     0.210 C 
ENDBRANCH  14  25
BRANCH  13  27
HETATM   27  O   UNK N   1      27.588  15.868   6.544  0.00  0.00    -0.358 OA
HETATM   28  H   UNK N   1      28.346  16.411   6.447  0.00  0.00     0.217 HD
ENDBRANCH  13  27
TORSDOF 5
ENDMDL
MODEL 5
REMARK VINA RESULT:      -6.7      1.927      5.197
REMARK  5 active torsions:
REMARK  status: ('A' for Active; 'I' for Inactive)
REMARK    1  A    between atoms: C_1  and  C_16 
REMARK    2  A    between atoms: C_10  and  N_26 
REMARK    3  A    between atoms: C_13  and  O_23 
REMARK    4  A    between atoms: C_14  and  O_18 
REMARK    5  A    between atoms: C_16  and  O_22 
ROOT
HETATM    1  C   UNK N   1      28.428  23.938  -3.997  0.00  0.00     0.054 A 
HETATM    2  C   UNK N   1      29.369  23.711  -2.976  0.00  0.00     0.059 A 
HETATM    3  C   UNK N   1      30.341  22.755  -3.146  0.00  0.00     0.107 A 
HETATM    4  C   UNK N   1      30.433  22.016  -4.243  0.00  0.00     0.117 A 
HETATM    5  C   UNK N   1      29.524  22.128  -5.312  0.00  0.00     0.025 A 
HETATM    6  C   UNK N   1      28.459  23.104  -5.202  0.00  0.00     0.028 A 
HETATM    7  C   UNK N   1      29.648  21.305  -6.464  0.00  0.00    -0.009 A 
HETATM    8  C   UNK N   1      28.733  21.432  -7.531  0.00  0.00     0.014 A 
HETATM    9  C   UNK N   1      27.708  22.360  -7.417  0.00  0.00     0.052 A 
HETATM   10  C   UNK N   1      27.516  23.174  -6.294  0.00  0.00     0.116 A 
HETATM   11  C   UNK N   1      30.674  20.351  -6.562  0.00  0.00     0.016 A 
HETATM   12  C   UNK N   1      30.792  19.531  -7.676  0.00  0.00     0.040 A 
HETATM   13  C   UNK N   1      29.890  19.644  -8.726  0.00  0.00     0.099 A 
HETATM   14  C   UNK N   1      28.852  20.588  -8.682  0.00  0.00     0.112 A 
HETATM   15  C   UNK N   1      32.104  21.443  -2.893  0.00  0.00     0.352 A 
HETATM   16  O   UNK N   1      31.325  22.439  -2.306  0.00  0.00    -0.323 OA
HETATM   17  O   UNK N   1      31.490  21.205  -4.123  0.00  0.00    -0.322 OA
ENDROOT
BRANCH   1  18
HETATM   18  C   UNK N   1      27.568  25.128  -3.748  0.00  0.00     0.177 C 
HETATM   19  O   UNK N   1      26.550  25.040  -3.082  0.00  0.00    -0.646 OA
BRANCH  18  20
HETATM   20  O   UNK N   1      27.809  26.275  -4.417  0.00  0.00    -0.773 OA
HETATM   21  H   UNK N   1      27.200  26.650  -5.022  0.00  0.00     0.167 HD
ENDBRANCH  18  20
ENDBRANCH   1  18
BRANCH  10  22
HETATM   22  N   UNK N   1      26.308  23.936  -6.276  0.00  0.00    -0.115 N 
HETATM   23  O   UNK N   1      26.271  24.982  -6.853  0.00  0.00    -0.532 OA
HETATM   24  O   UNK N   1      25.168  23.324  -6.030  0.00  0.00    -0.532 OA
ENDBRANCH  10  22
BRANCH  14  25
HETATM   25  O   UNK N   1      28.009  20.629  -9.754  0.00  0.00    -0.352 OA
HETATM   26  C   UNK N   1      28.120  21.427 -10.869  0.00  0.00     0.210 C 
ENDBRANCH  14  25
BRANCH  13  27
HETATM   27  O   UNK N   1      30.018  18.831  -9.789  0.00  0.00    -0.358 OA
HETATM   28  H   UNK N   1      30.830  18.392  -9.948  0.00  0.00     0.217 HD
ENDBRANCH  13  27
TORSDOF 5
ENDMDL
MODEL 6
REMARK VINA RESULT:      -6.7     11.219     15.053
REMARK  5 active torsions:
REMARK  status: ('A' for Active; 'I' for Inactive)
REMARK    1  A    between atoms: C_1  and  C_16 
REMARK    2  A    between atoms: C_10  and  N_26 
REMARK    3  A    between atoms: C_13  and  O_23 
REMARK    4  A    between atoms: C_14  and  O_18 
REMARK    5  A    between atoms: C_16  and  O_22 
ROOT
HETATM    1  C   UNK N   1      31.262  16.408   7.524  0.00  0.00     0.054 A 
HETATM    2  C   UNK N   1      31.831  15.601   6.522  0.00  0.00     0.059 A 
HETATM    3  C   UNK N   1      31.340  15.659   5.240  0.00  0.00     0.107 A 
HETATM    4  C   UNK N   1      30.331  16.447   4.896  0.00  0.00     0.117 A 
HETATM    5  C   UNK N   1      29.659  17.268   5.822  0.00  0.00     0.025 A 
HETATM    6  C   UNK N   1      30.108  17.251   7.199  0.00  0.00     0.028 A 
HETATM    7  C   UNK N   1      28.570  18.086   5.415  0.00  0.00    -0.009 A 
HETATM    8  C   UNK N   1      27.909  18.907   6.353  0.00  0.00     0.014 A 
HETATM    9  C   UNK N   1      28.335  18.880   7.674  0.00  0.00     0.052 A 
HETATM   10  C   UNK N   1      29.378  18.071   8.139  0.00  0.00     0.116 A 
HETATM   11  C   UNK N   1      28.130  18.090   4.082  0.00  0.00     0.016 A 
HETATM   12  C   UNK N   1      27.056  18.873   3.680  0.00  0.00     0.040 A 
HETATM   13  C   UNK N   1      26.394  19.677   4.600  0.00  0.00     0.099 A 
HETATM   14  C   UNK N   1      26.801  19.717   5.942  0.00  0.00     0.112 A 
HETATM   15  C   UNK N   1      31.020  15.386   3.068  0.00  0.00     0.352 A 
HETATM   16  O   UNK N   1      31.782  15.000   4.171  0.00  0.00    -0.323 OA
HETATM   17  O   UNK N   1      30.107  16.305   3.585  0.00  0.00    -0.322 OA
ENDROOT
BRANCH   1  18
HETATM   18  C   UNK N   1      32.022  16.378   8.805  0.00  0.00     0.177 C 
HETATM   19  O   UNK N   1      33.059  17.007   8.936  0.00  0.00    -0.646 OA
BRANCH  18  20
HETATM   20  O   UNK N   1      31.667  15.503   9.768  0.00  0.00    -0.773 OA
HETATM   21  H   UNK N   1      30.846  15.545  10.218  0.00  0.00     0.167 HD
ENDBRANCH  18  20
ENDBRANCH   1  18
BRANCH  10  22
HETATM   22  N   UNK N   1      29.557  18.037   9.556  0.00  0.00    -0.115 N 
HETATM   23  O   UNK N   1      29.789  19.055  10.137  0.00  0.00    -0.532 OA
HETATM   24  O   UNK N   1      29.049  17.034  10.242  0.00  0.00    -0.532 OA
ENDBRANCH  10  22
BRANCH  14  25
HETATM   25  O   UNK N   1      26.093  20.531   6.778  0.00  0.00    -0.352 OA
HETATM   26  C   UNK N   1      26.346  21.854   7.061  0.00  0.00     0.210 C 
ENDBRANCH  14  25
BRANCH  13  27
HETATM   27  O   UNK N   1      25.350  20.418   4.189  0.00  0.00    -0.358 OA
HETATM   28  H   UNK N   1      24.907  20.980   4.794  0.00  0.00     0.217 HD
ENDBRANCH  13  27
TORSDOF 5
ENDMDL
MODEL 7
REMARK VINA RESULT:      -6.6      2.066      4.733
REMARK  5 active torsions:
REMARK  status: ('A' for Active; 'I' for Inactive)
REMARK    1  A    between atoms: C_1  and  C_16 
REMARK    2  A    between atoms: C_10  and  N_26 
REMARK    3  A    between atoms: C_13  and  O_23 
REMARK    4  A    between atoms: C_14  and  O_18 
REMARK    5  A    between atoms: C_16  and  O_22 
ROOT
HETATM    1  C   UNK N   1      27.250  24.136  -4.797  0.00  0.00     0.054 A 
HETATM    2  C   UNK N   1      26.123  24.164  -5.639  0.00  0.00     0.059 A 
HETATM    3  C   UNK N   1      26.082  23.355  -6.749  0.00  0.00     0.107 A 
HETATM    4  C   UNK N   1      27.075  22.539  -7.076  0.00  0.00     0.117 A 
HETATM    5  C   UNK N   1      28.266  22.457  -6.330  0.00  0.00     0.025 A 
HETATM    6  C   UNK N   1      28.394  23.291  -5.153  0.00  0.00     0.028 A 
HETATM    7  C   UNK N   1      29.314  21.581  -6.725  0.00  0.00    -0.009 A 
HETATM    8  C   UNK N   1      30.501  21.504  -5.965  0.00  0.00     0.014 A 
HETATM    9  C   UNK N   1      30.623  22.314  -4.845  0.00  0.00     0.052 A 
HETATM   10  C   UNK N   1      29.640  23.218  -4.427  0.00  0.00     0.116 A 
HETATM   11  C   UNK N   1      29.192  20.782  -7.874  0.00  0.00     0.016 A 
HETATM   12  C   UNK N   1      30.217  19.937  -8.276  0.00  0.00     0.040 A 
HETATM   13  C   UNK N   1      31.393  19.863  -7.538  0.00  0.00     0.099 A 
HETATM   14  C   UNK N   1      31.561  20.633  -6.377  0.00  0.00     0.112 A 
HETATM   15  C   UNK N   1      25.451  22.270  -8.570  0.00  0.00     0.352 A 
HETATM   16  O   UNK N   1      25.087  23.227  -7.624  0.00  0.00    -0.323 OA
HETATM   17  O   UNK N   1      26.728  21.867  -8.179  0.00  0.00    -0.322 OA
ENDROOT
BRANCH   1  18
HETATM   18  C   UNK N   1      27.064  24.917  -3.542  0.00  0.00     0.177 C 
HETATM   19  O   UNK N   1      26.720  24.372  -2.507  0.00  0.00    -0.646 OA
BRANCH  18  20
HETATM   20  O   UNK N   1      27.094  26.265  -3.587  0.00  0.00    -0.773 OA
HETATM   21  H   UNK N   1      26.440  26.775  -4.023  0.00  0.00     0.167 HD
ENDBRANCH  18  20
ENDBRANCH   1  18
BRANCH  10  22
HETATM   22  N   UNK N   1      30.012  24.096  -3.363  0.00  0.00    -0.115 N 
HETATM   23  O   UNK N   1      30.185  23.644  -2.270  0.00  0.00    -0.532 OA
HETATM   24  O   UNK N   1      30.576  25.250  -3.652  0.00  0.00    -0.532 OA
ENDBRANCH  10  22
BRANCH  14  25
HETATM   25  O   UNK N   1      32.747  20.502  -5.715  0.00  0.00    -0.352 OA
HETATM   26  C   UNK N   1      33.013  19.687  -4.639  0.00  0.00     0.210 C 
ENDBRANCH  14  25
BRANCH  13  27
HETATM   27  O   UNK N   1      32.375  19.046  -7.954  0.00  0.00    -0.358 OA
HETATM   28  H   UNK N   1      32.178  18.164  -8.204  0.00  0.00     0.217 HD
ENDBRANCH  13  27
TORSDOF 5
ENDMDL
MODEL 8
REMARK VINA RESULT:      -6.6     12.028     15.006
REMARK  5 active torsions:
REMARK  status: ('A' for Active; 'I' for Inactive)
REMARK    1  A    between atoms: C_1  and  C_16 
REMARK    2  A    between atoms: C_10  and  N_26 
REMARK    3  A    between atoms: C_13  and  O_23 
REMARK    4  A    between atoms: C_14  and  O_18 
REMARK    5  A    between atoms: C_16  and  O_22 
ROOT
HETATM    1  C   UNK N   1      33.412  15.510   5.270  0.00  0.00     0.054 A 
HETATM    2  C   UNK N   1      34.491  15.533   6.172  0.00  0.00     0.059 A 
HETATM    3  C   UNK N   1      34.330  16.101   7.413  0.00  0.00     0.107 A 
HETATM    4  C   UNK N   1      33.186  16.645   7.807  0.00  0.00     0.117 A 
HETATM    5  C   UNK N   1      32.052  16.714   6.975  0.00  0.00     0.025 A 
HETATM    6  C   UNK N   1      32.148  16.151   5.644  0.00  0.00     0.028 A 
HETATM    7  C   UNK N   1      30.851  17.321   7.430  0.00  0.00    -0.009 A 
HETATM    8  C   UNK N   1      29.720  17.379   6.588  0.00  0.00     0.014 A 
HETATM    9  C   UNK N   1      29.819  16.848   5.309  0.00  0.00     0.052 A 
HETATM   10  C   UNK N   1      30.985  16.269   4.795  0.00  0.00     0.116 A 
HETATM   11  C   UNK N   1      30.765  17.876   8.717  0.00  0.00     0.016 A 
HETATM   12  C   UNK N   1      29.601  18.486   9.163  0.00  0.00     0.040 A 
HETATM   13  C   UNK N   1      28.486  18.555   8.336  0.00  0.00     0.099 A 
HETATM   14  C   UNK N   1      28.516  18.007   7.045  0.00  0.00     0.112 A 
HETATM   15  C   UNK N   1      34.628  16.794   9.492  0.00  0.00     0.352 A 
HETATM   16  O   UNK N   1      35.225  16.173   8.396  0.00  0.00    -0.323 OA
HETATM   17  O   UNK N   1      33.332  17.079   9.063  0.00  0.00    -0.322 OA
ENDROOT
BRANCH   1  18
HETATM   18  C   UNK N   1      33.682  14.696   4.052  0.00  0.00     0.177 C 
HETATM   19  O   UNK N   1      33.777  13.482   4.115  0.00  0.00    -0.646 OA
BRANCH  18  20
HETATM   20  O   UNK N   1      34.011  15.314   2.899  0.00  0.00    -0.773 OA
HETATM   21  H   UNK N   1      34.817  15.156   2.447  0.00  0.00     0.167 HD
ENDBRANCH  18  20
ENDBRANCH   1  18
BRANCH  10  22
HETATM   22  N   UNK N   1      30.958  15.944   3.404  0.00  0.00    -0.115 N 
HETATM   23  O   UNK N   1      30.187  15.119   3.015  0.00  0.00    -0.532 OA
HETATM   24  O   UNK N   1      31.426  16.815   2.534  0.00  0.00    -0.532 OA
ENDBRANCH  10  22
BRANCH  14  25
HETATM   25  O   UNK N   1      27.380  18.122   6.299  0.00  0.00    -0.352 OA
HETATM   26  C   UNK N   1      27.062  19.131   5.418  0.00  0.00     0.210 C 
ENDBRANCH  14  25
BRANCH  13  27
HETATM   27  O   UNK N   1      27.374  19.161   8.787  0.00  0.00    -0.358 OA
HETATM   28  H   UNK N   1      26.809  19.609   8.188  0.00  0.00     0.217 HD
ENDBRANCH  13  27
TORSDOF 5
ENDMDL
MODEL 9
REMARK VINA RESULT:      -6.6     11.582     12.717
REMARK  5 active torsions:
REMARK  status: ('A' for Active; 'I' for Inactive)
REMARK    1  A    between atoms: C_1  and  C_16 
REMARK    2  A    between atoms: C_10  and  N_26 
REMARK    3  A    between atoms: C_13  and  O_23 
REMARK    4  A    between atoms: C_14  and  O_18 
REMARK    5  A    between atoms: C_16  and  O_22 
ROOT
HETATM    1  C   UNK N   1      20.690  17.279   4.139  0.00  0.00     0.054 A 
HETATM    2  C   UNK N   1      19.923  18.203   3.406  0.00  0.00     0.059 A 
HETATM    3  C   UNK N   1      20.535  19.289   2.828  0.00  0.00     0.107 A 
HETATM    4  C   UNK N   1      21.837  19.517   2.934  0.00  0.00     0.117 A 
HETATM    5  C   UNK N   1      22.695  18.683   3.676  0.00  0.00     0.025 A 
HETATM    6  C   UNK N   1      22.123  17.524   4.330  0.00  0.00     0.028 A 
HETATM    7  C   UNK N   1      24.082  18.973   3.779  0.00  0.00    -0.009 A 
HETATM    8  C   UNK N   1      24.933  18.125   4.521  0.00  0.00     0.014 A 
HETATM    9  C   UNK N   1      24.378  17.022   5.156  0.00  0.00     0.052 A 
HETATM   10  C   UNK N   1      23.015  16.705   5.117  0.00  0.00     0.116 A 
HETATM   11  C   UNK N   1      24.632  20.103   3.154  0.00  0.00     0.016 A 
HETATM   12  C   UNK N   1      25.983  20.403   3.264  0.00  0.00     0.040 A 
HETATM   13  C   UNK N   1      26.825  19.578   4.001  0.00  0.00     0.099 A 
HETATM   14  C   UNK N   1      26.327  18.430   4.637  0.00  0.00     0.112 A 
HETATM   15  C   UNK N   1      20.966  21.120   1.663  0.00  0.00     0.352 A 
HETATM   16  O   UNK N   1      19.972  20.232   2.074  0.00  0.00    -0.323 OA
HETATM   17  O   UNK N   1      22.134  20.623   2.243  0.00  0.00    -0.322 OA
ENDROOT
BRANCH   1  18
HETATM   18  C   UNK N   1      19.924  16.065   4.536  0.00  0.00     0.177 C 
HETATM   19  O   UNK N   1      19.702  15.172   3.736  0.00  0.00    -0.646 OA
BRANCH  18  20
HETATM   20  O   UNK N   1      19.309  16.030   5.736  0.00  0.00    -0.773 OA
HETATM   21  H   UNK N   1      19.776  16.017   6.549  0.00  0.00     0.167 HD
ENDBRANCH  18  20
ENDBRANCH   1  18
BRANCH  10  22
HETATM   22  N   UNK N   1      22.598  15.643   5.975  0.00  0.00    -0.115 N 
HETATM   23  O   UNK N   1      23.072  14.556   5.828  0.00  0.00    -0.532 OA
HETATM   24  O   UNK N   1      22.069  15.935   7.145  0.00  0.00    -0.532 OA
ENDBRANCH  10  22
BRANCH  14  25
HETATM   25  O   UNK N   1      27.222  17.679   5.342  0.00  0.00    -0.352 OA
HETATM   26  C   UNK N   1      27.944  16.600   4.885  0.00  0.00     0.210 C 
ENDBRANCH  14  25
BRANCH  13  27
HETATM   27  O   UNK N   1      28.127  19.895   4.102  0.00  0.00    -0.358 OA
HETATM   28  H   UNK N   1      28.681  19.420   4.690  0.00  0.00     0.217 HD
ENDBRANCH  13  27
TORSDOF 5
ENDMDL
