MODEL 1
REMARK VINA RESULT:      -5.0      0.000      0.000
REMARK  2 active torsions:
REMARK  status: ('A' for Active; 'I' for Inactive)
REMARK    1  A    between atoms: O_2  and  C_3 
REMARK    2  A    between atoms: C_6  and  S_9 
ROOT
HETATM    1  C   UNK N   1      34.572  14.963  11.128  0.00  0.00     0.068 A 
HETATM    2  C   UNK N   1      33.583  14.849  10.147  0.00  0.00     0.038 A 
HETATM    3  C   UNK N   1      33.407  15.861   9.198  0.00  0.00     0.027 A 
HETATM    4  C   UNK N   1      34.232  16.995   9.212  0.00  0.00     0.075 A 
HETATM    5  C   UNK N   1      35.228  17.109  10.191  0.00  0.00     0.027 A 
HETATM    6  C   UNK N   1      35.402  16.098  11.140  0.00  0.00     0.038 A 
ENDROOT
BRANCH   4   7
HETATM    7  S   UNK N   1      33.942  18.345   8.051  0.00  0.00     0.286 S 
HETATM    8  O   UNK N   1      34.627  17.622   6.881  0.00  0.00    -0.206 OA
HETATM    9  O   UNK N   1      35.243  19.075   8.418  0.00  0.00    -0.206 OA
ENDBRANCH   4   7
BRANCH   1  10
HETATM   10  O   UNK N   1      34.694  13.983  12.054  0.00  0.00    -0.356 OA
HETATM   11  C   UNK N   1      35.593  14.038  13.096  0.00  0.00     0.210 C 
ENDBRANCH   1  10
TORSDOF 2
ENDMDL
MODEL 2
REMARK VINA RESULT:      -4.7     19.187     20.299
REMARK  2 active torsions:
REMARK  status: ('A' for Active; 'I' for Inactive)
REMARK    1  A    between atoms: O_2  and  C_3 
REMARK    2  A    between atoms: C_6  and  S_9 
ROOT
HETATM    1  C   UNK N   1      25.822  27.286  -3.964  0.00  0.00     0.068 A 
HETATM    2  C   UNK N   1      25.253  27.332  -5.240  0.00  0.00     0.038 A 
HETATM    3  C   UNK N   1      25.346  26.231  -6.097  0.00  0.00     0.027 A 
HETATM    4  C   UNK N   1      25.998  25.063  -5.679  0.00  0.00     0.075 A 
HETATM    5  C   UNK N   1      26.565  25.011  -4.399  0.00  0.00     0.027 A 
HETATM    6  C   UNK N   1      26.473  26.112  -3.543  0.00  0.00     0.038 A 
ENDROOT
BRANCH   4   7
HETATM    7  S   UNK N   1      26.205  23.679  -6.819  0.00  0.00     0.286 S 
HETATM    8  O   UNK N   1      25.219  24.250  -7.851  0.00  0.00    -0.206 OA
HETATM    9  O   UNK N   1      25.098  22.841  -6.161  0.00  0.00    -0.206 OA
ENDBRANCH   4   7
BRANCH   1  10
HETATM   10  O   UNK N   1      25.747  28.380  -3.170  0.00  0.00    -0.356 OA
HETATM   11  C   UNK N   1      26.395  29.562  -3.452  0.00  0.00     0.210 C 
ENDBRANCH   1  10
TORSDOF 2
ENDMDL
MODEL 3
REMARK VINA RESULT:      -4.5     12.089     12.884
REMARK  2 active torsions:
REMARK  status: ('A' for Active; 'I' for Inactive)
REMARK    1  A    between atoms: O_2  and  C_3 
REMARK    2  A    between atoms: C_6  and  S_9 
ROOT
HETATM    1  C   UNK N   1      23.491  12.180  10.974  0.00  0.00     0.068 A 
HETATM    2  C   UNK N   1      22.130  12.498  10.934  0.00  0.00     0.038 A 
HETATM    3  C   UNK N   1      21.506  12.781   9.715  0.00  0.00     0.027 A 
HETATM    4  C   UNK N   1      22.236  12.733   8.518  0.00  0.00     0.075 A 
HETATM    5  C   UNK N   1      23.598  12.409   8.556  0.00  0.00     0.027 A 
HETATM    6  C   UNK N   1      24.222  12.128   9.774  0.00  0.00     0.038 A 
ENDROOT
BRANCH   4   7
HETATM    7  S   UNK N   1      21.455  13.193   6.958  0.00  0.00     0.286 S 
HETATM    8  O   UNK N   1      20.234  13.832   7.640  0.00  0.00    -0.206 OA
HETATM    9  O   UNK N   1      20.725  11.850   6.810  0.00  0.00    -0.206 OA
ENDBRANCH   4   7
BRANCH   1  10
HETATM   10  O   UNK N   1      24.075  11.947  12.174  0.00  0.00    -0.356 OA
HETATM   11  C   UNK N   1      23.384  11.962  13.365  0.00  0.00     0.210 C 
ENDBRANCH   1  10
TORSDOF 2
ENDMDL
MODEL 4
REMARK VINA RESULT:      -4.4      4.047      5.709
REMARK  2 active torsions:
REMARK  status: ('A' for Active; 'I' for Inactive)
REMARK    1  A    between atoms: O_2  and  C_3 
REMARK    2  A    between atoms: C_6  and  S_9 
ROOT
HETATM    1  C   UNK N   1      29.662  17.518   7.281  0.00  0.00     0.068 A 
HETATM    2  C   UNK N   1      30.241  17.947   8.479  0.00  0.00     0.038 A 
HETATM    3  C   UNK N   1      31.630  17.935   8.637  0.00  0.00     0.027 A 
HETATM    4  C   UNK N   1      32.458  17.507   7.589  0.00  0.00     0.075 A 
HETATM    5  C   UNK N   1      31.880  17.083   6.386  0.00  0.00     0.027 A 
HETATM    6  C   UNK N   1      30.491  17.093   6.228  0.00  0.00     0.038 A 
ENDROOT
BRANCH   4   7
HETATM    7  S   UNK N   1      34.243  17.398   7.827  0.00  0.00     0.286 S 
HETATM    8  O   UNK N   1      34.385  18.878   8.213  0.00  0.00    -0.206 OA
HETATM    9  O   UNK N   1      34.560  17.706   6.356  0.00  0.00    -0.206 OA
ENDBRANCH   4   7
BRANCH   1  10
HETATM   10  O   UNK N   1      28.312  17.508   7.171  0.00  0.00    -0.356 OA
HETATM   11  C   UNK N   1      27.615  16.505   6.536  0.00  0.00     0.210 C 
ENDBRANCH   1  10
TORSDOF 2
ENDMDL
MODEL 5
REMARK VINA RESULT:      -4.3     18.988     20.040
REMARK  2 active torsions:
REMARK  status: ('A' for Active; 'I' for Inactive)
REMARK    1  A    between atoms: O_2  and  C_3 
REMARK    2  A    between atoms: C_6  and  S_9 
ROOT
HETATM    1  C   UNK N   1      25.615  25.041  -5.242  0.00  0.00     0.068 A 
HETATM    2  C   UNK N   1      26.274  25.207  -4.020  0.00  0.00     0.038 A 
HETATM    3  C   UNK N   1      26.495  26.488  -3.505  0.00  0.00     0.027 A 
HETATM    4  C   UNK N   1      26.045  27.619  -4.201  0.00  0.00     0.075 A 
HETATM    5  C   UNK N   1      25.379  27.454  -5.423  0.00  0.00     0.027 A 
HETATM    6  C   UNK N   1      25.160  26.174  -5.939  0.00  0.00     0.038 A 
ENDROOT
BRANCH   4   7
HETATM    7  S   UNK N   1      26.418  29.274  -3.586  0.00  0.00     0.286 S 
HETATM    8  O   UNK N   1      27.768  29.352  -4.317  0.00  0.00    -0.206 OA
HETATM    9  O   UNK N   1      27.090  28.757  -2.306  0.00  0.00    -0.206 OA
ENDBRANCH   4   7
BRANCH   1  10
HETATM   10  O   UNK N   1      25.447  23.789  -5.732  0.00  0.00    -0.356 OA
HETATM   11  C   UNK N   1      25.909  23.395  -6.968  0.00  0.00     0.210 C 
ENDBRANCH   1  10
TORSDOF 2
ENDMDL
MODEL 6
REMARK VINA RESULT:      -4.3     12.141     13.521
REMARK  2 active torsions:
REMARK  status: ('A' for Active; 'I' for Inactive)
REMARK    1  A    between atoms: O_2  and  C_3 
REMARK    2  A    between atoms: C_6  and  S_9 
ROOT
HETATM    1  C   UNK N   1      25.088  19.245   4.164  0.00  0.00     0.068 A 
HETATM    2  C   UNK N   1      24.838  20.305   3.288  0.00  0.00     0.038 A 
HETATM    3  C   UNK N   1      23.542  20.547   2.822  0.00  0.00     0.027 A 
HETATM    4  C   UNK N   1      22.477  19.737   3.241  0.00  0.00     0.075 A 
HETATM    5  C   UNK N   1      22.724  18.677   4.123  0.00  0.00     0.027 A 
HETATM    6  C   UNK N   1      24.020  18.435   4.587  0.00  0.00     0.038 A 
ENDROOT
BRANCH   4   7
HETATM    7  S   UNK N   1      20.823  19.987   2.564  0.00  0.00     0.286 S 
HETATM    8  O   UNK N   1      21.192  21.313   1.880  0.00  0.00    -0.206 OA
HETATM    9  O   UNK N   1      20.313  20.721   3.812  0.00  0.00    -0.206 OA
ENDBRANCH   4   7
BRANCH   1  10
HETATM   10  O   UNK N   1      26.360  19.015   4.570  0.00  0.00    -0.356 OA
HETATM   11  C   UNK N   1      26.999  19.781   5.518  0.00  0.00     0.210 C 
ENDBRANCH   1  10
TORSDOF 2
ENDMDL
MODEL 7
REMARK VINA RESULT:      -4.2      4.617      6.176
REMARK  2 active torsions:
REMARK  status: ('A' for Active; 'I' for Inactive)
REMARK    1  A    between atoms: O_2  and  C_3 
REMARK    2  A    between atoms: C_6  and  S_9 
ROOT
HETATM    1  C   UNK N   1      33.288  17.599   6.234  0.00  0.00     0.068 A 
HETATM    2  C   UNK N   1      33.224  17.594   4.837  0.00  0.00     0.038 A 
HETATM    3  C   UNK N   1      32.050  17.207   4.184  0.00  0.00     0.027 A 
HETATM    4  C   UNK N   1      30.919  16.834   4.923  0.00  0.00     0.075 A 
HETATM    5  C   UNK N   1      30.978  16.843   6.323  0.00  0.00     0.027 A 
HETATM    6  C   UNK N   1      32.152  17.228   6.976  0.00  0.00     0.038 A 
ENDROOT
BRANCH   4   7
HETATM    7  S   UNK N   1      29.437  16.240   4.081  0.00  0.00     0.286 S 
HETATM    8  O   UNK N   1      30.009  16.495   2.677  0.00  0.00    -0.206 OA
HETATM    9  O   UNK N   1      28.753  17.615   4.100  0.00  0.00    -0.206 OA
ENDBRANCH   4   7
BRANCH   1  10
HETATM   10  O   UNK N   1      34.450  17.945   6.837  0.00  0.00    -0.356 OA
HETATM   11  C   UNK N   1      34.526  18.345   8.153  0.00  0.00     0.210 C 
ENDBRANCH   1  10
TORSDOF 2
ENDMDL
MODEL 8
REMARK VINA RESULT:      -4.2     15.818     17.617
REMARK  2 active torsions:
REMARK  status: ('A' for Active; 'I' for Inactive)
REMARK    1  A    between atoms: O_2  and  C_3 
REMARK    2  A    between atoms: C_6  and  S_9 
ROOT
HETATM    1  C   UNK N   1      26.783  24.121  -4.861  0.00  0.00     0.068 A 
HETATM    2  C   UNK N   1      27.000  24.273  -3.489  0.00  0.00     0.038 A 
HETATM    3  C   UNK N   1      28.232  23.925  -2.925  0.00  0.00     0.027 A 
HETATM    4  C   UNK N   1      29.267  23.433  -3.733  0.00  0.00     0.075 A 
HETATM    5  C   UNK N   1      29.053  23.285  -5.109  0.00  0.00     0.027 A 
HETATM    6  C   UNK N   1      27.822  23.631  -5.673  0.00  0.00     0.038 A 
ENDROOT
BRANCH   4   7
HETATM    7  S   UNK N   1      30.820  22.891  -2.992  0.00  0.00     0.286 S 
HETATM    8  O   UNK N   1      30.465  21.399  -3.093  0.00  0.00    -0.206 OA
HETATM    9  O   UNK N   1      30.279  22.968  -1.556  0.00  0.00    -0.206 OA
ENDBRANCH   4   7
BRANCH   1  10
HETATM   10  O   UNK N   1      25.568  24.433  -5.373  0.00  0.00    -0.356 OA
HETATM   11  C   UNK N   1      25.184  25.722  -5.668  0.00  0.00     0.210 C 
ENDBRANCH   1  10
TORSDOF 2
ENDMDL
MODEL 9
REMARK VINA RESULT:      -4.1      6.473      7.890
REMARK  2 active torsions:
REMARK  status: ('A' for Active; 'I' for Inactive)
REMARK    1  A    between atoms: O_2  and  C_3 
REMARK    2  A    between atoms: C_6  and  S_9 
ROOT
HETATM    1  C   UNK N   1      35.389  11.522  18.008  0.00  0.00     0.068 A 
HETATM    2  C   UNK N   1      35.958  10.706  17.026  0.00  0.00     0.038 A 
HETATM    3  C   UNK N   1      36.281  11.231  15.770  0.00  0.00     0.027 A 
HETATM    4  C   UNK N   1      36.052  12.585  15.489  0.00  0.00     0.075 A 
HETATM    5  C   UNK N   1      35.488  13.406  16.474  0.00  0.00     0.027 A 
HETATM    6  C   UNK N   1      35.163  12.881  17.728  0.00  0.00     0.038 A 
ENDROOT
BRANCH   4   7
HETATM    7  S   UNK N   1      36.377  13.239  13.839  0.00  0.00     0.286 S 
HETATM    8  O   UNK N   1      36.652  14.663  14.347  0.00  0.00    -0.206 OA
HETATM    9  O   UNK N   1      34.902  13.573  13.571  0.00  0.00    -0.206 OA
ENDBRANCH   4   7
BRANCH   1  10
HETATM   10  O   UNK N   1      35.055  10.977  19.202  0.00  0.00    -0.356 OA
HETATM   11  C   UNK N   1      35.928  10.893  20.264  0.00  0.00     0.210 C 
ENDBRANCH   1  10
TORSDOF 2
ENDMDL
