MODEL 1
REMARK VINA RESULT:      -9.0      0.000      0.000
REMARK  2 active torsions:
REMARK  status: ('A' for Active; 'I' for Inactive)
REMARK    1  A    between atoms: C_12  and  C_17 
REMARK    2  A    between atoms: C_32  and  O_35 
ROOT
HETATM    1  C   UNK N   1      27.533  18.137   4.446  0.00  0.00     0.109 A 
HETATM    2  N   UNK N   1      26.319  18.838   4.218  0.00  0.00    -0.307 N 
HETATM    3  C   UNK N   1      28.535  18.979   4.591  0.00  0.00     0.011 A 
HETATM    4  C   UNK N   1      27.764  16.663   4.562  0.00  0.00     0.310 C 
HETATM    5  C   UNK N   1      25.086  18.303   3.918  0.00  0.00     0.277 C 
HETATM    6  C   UNK N   1      26.554  20.260   4.273  0.00  0.00     0.136 A 
HETATM    7  C   UNK N   1      28.064  20.397   4.522  0.00  0.00     0.050 A 
HETATM    8  O   UNK N   1      28.991  16.159   4.249  0.00  0.00    -0.310 OA
HETATM    9  O   UNK N   1      26.882  15.924   4.961  0.00  0.00    -0.258 OA
HETATM   10  C   UNK N   1      23.910  19.163   3.588  0.00  0.00     0.125 A 
HETATM   11  O   UNK N   1      24.928  17.097   3.902  0.00  0.00    -0.265 OA
HETATM   12  C   UNK N   1      29.781  15.371   5.072  0.00  0.00     0.143 C 
HETATM   13  N   UNK N   1      22.641  18.714   3.594  0.00  0.00    -0.334 N 
ATOM     14  HN  UNK N   1      22.310  17.772   3.799  1.00  0.00     0.168 HD
HETATM   15  C   UNK N   1      23.910  20.505   3.249  0.00  0.00     0.179 A 
HETATM   16  C   UNK N   1      30.019  13.960   4.430  0.00  0.00     0.034 C 
HETATM   17  C   UNK N   1      21.906  19.796   3.264  0.00  0.00     0.130 A 
HETATM   18  O   UNK N   1      22.658  20.852   3.059  0.00  0.00    -0.307 OA
HETATM   19  C   UNK N   1      28.858  13.008   4.329  0.00  0.00    -0.014 C 
HETATM   20  C   UNK N   1      31.048  13.141   5.191  0.00  0.00     0.017 C 
HETATM   21  C   UNK N   1      20.405  19.842   3.287  0.00  0.00     0.162 C 
HETATM   22  C   UNK N   1      27.587  13.254   4.633  0.00  0.00     0.070 C 
HETATM   23  C   UNK N   1      19.699  18.754   2.527  0.00  0.00     0.137 C 
HETATM   24  C   UNK N   1      26.603  12.142   4.683  0.00  0.00     0.241 C 
HETATM   25  C   UNK N   1      20.455  17.734   1.743  0.00  0.00     0.114 C 
HETATM   26  O   UNK N   1      18.481  18.691   2.579  0.00  0.00    -0.297 OA
HETATM   27  N   UNK N   1      25.270  12.384   4.675  0.00  0.00    -0.354 N 
HETATM   28  O   UNK N   1      26.995  10.987   4.745  0.00  0.00    -0.269 OA
HETATM   29  C   UNK N   1      20.402  16.383   2.430  0.00  0.00     0.148 C 
HETATM   30  C   UNK N   1      24.735  13.703   4.464  0.00  0.00     0.150 C 
HETATM   31  C   UNK N   1      21.617  15.630   2.010  0.00  0.00     0.011 C 
HETATM   32  C   UNK N   1      24.731  13.962   2.992  0.00  0.00    -0.007 C 
HETATM   33  C   UNK N   1      22.522  15.176   2.879  0.00  0.00    -0.064 C 
HETATM   34  C   UNK N   1      23.739  14.553   2.317  0.00  0.00     0.004 C 
HETATM   35  C   UNK N   1      22.338  15.381   4.356  0.00  0.00     0.048 C 
HETATM   36  H   UNK N   1      24.648  11.634   4.816  0.00  0.00     0.163 HD
ENDROOT
BRANCH  12  37
HETATM   37  C   UNK N   1      31.119  16.160   5.220  0.00  0.00     0.008 C 
HETATM   38  C   UNK N   1      31.442  16.963   3.975  0.00  0.00     0.012 C 
HETATM   39  C   UNK N   1      31.194  17.137   6.379  0.00  0.00     0.012 C 
ENDBRANCH  12  37
BRANCH  29  40
HETATM   40  O   UNK N   1      19.252  15.691   2.053  0.00  0.00    -0.391 OA
HETATM   41  H   UNK N   1      18.481  16.175   1.721  0.00  0.00     0.210 HD
ENDBRANCH  29  40
TORSDOF 2
ENDMDL
MODEL 2
REMARK VINA RESULT:      -9.0      5.404      9.161
REMARK  2 active torsions:
REMARK  status: ('A' for Active; 'I' for Inactive)
REMARK    1  A    between atoms: C_12  and  C_17 
REMARK    2  A    between atoms: C_32  and  O_35 
ROOT
HETATM    1  C   UNK N   1      34.519  14.600   4.657  0.00  0.00     0.109 A 
HETATM    2  N   UNK N   1      33.313  15.224   4.242  0.00  0.00    -0.307 N 
HETATM    3  C   UNK N   1      35.077  13.953   3.655  0.00  0.00     0.011 A 
HETATM    4  C   UNK N   1      35.183  14.628   5.998  0.00  0.00     0.310 C 
HETATM    5  C   UNK N   1      32.404  15.896   5.027  0.00  0.00     0.277 C 
HETATM    6  C   UNK N   1      33.104  14.999   2.832  0.00  0.00     0.136 A 
HETATM    7  C   UNK N   1      34.290  14.127   2.395  0.00  0.00     0.050 A 
HETATM    8  O   UNK N   1      35.991  13.592   6.359  0.00  0.00    -0.310 OA
HETATM    9  O   UNK N   1      35.033  15.577   6.747  0.00  0.00    -0.258 OA
HETATM   10  C   UNK N   1      31.113  16.409   4.479  0.00  0.00     0.125 A 
HETATM   11  O   UNK N   1      32.631  16.080   6.208  0.00  0.00    -0.265 OA
HETATM   12  C   UNK N   1      37.309  13.695   6.777  0.00  0.00     0.143 C 
HETATM   13  N   UNK N   1      30.351  17.322   5.111  0.00  0.00    -0.334 N 
ATOM     14  HN  UNK N   1      30.523  17.765   6.013  1.00  0.00     0.168 HD
HETATM   15  C   UNK N   1      30.506  16.070   3.282  0.00  0.00     0.179 A 
HETATM   16  C   UNK N   1      37.468  13.168   8.247  0.00  0.00     0.034 C 
HETATM   17  C   UNK N   1      29.306  17.515   4.280  0.00  0.00     0.130 A 
HETATM   18  O   UNK N   1      29.400  16.773   3.201  0.00  0.00    -0.307 OA
HETATM   19  C   UNK N   1      36.859  13.964   9.369  0.00  0.00    -0.014 C 
HETATM   20  C   UNK N   1      38.923  13.064   8.673  0.00  0.00     0.017 C 
HETATM   21  C   UNK N   1      28.250  18.564   4.474  0.00  0.00     0.162 C 
HETATM   22  C   UNK N   1      36.088  15.043   9.264  0.00  0.00     0.070 C 
HETATM   23  C   UNK N   1      27.574  18.582   5.816  0.00  0.00     0.137 C 
HETATM   24  C   UNK N   1      35.748  15.837  10.473  0.00  0.00     0.241 C 
HETATM   25  C   UNK N   1      27.894  17.568   6.863  0.00  0.00     0.114 C 
HETATM   26  O   UNK N   1      26.767  19.464   6.061  0.00  0.00    -0.297 OA
HETATM   27  N   UNK N   1      34.733  16.734  10.460  0.00  0.00    -0.354 N 
HETATM   28  O   UNK N   1      36.398  15.693  11.497  0.00  0.00    -0.269 OA
HETATM   29  C   UNK N   1      28.692  18.194   7.991  0.00  0.00     0.148 C 
HETATM   30  C   UNK N   1      33.838  16.859   9.339  0.00  0.00     0.150 C 
HETATM   31  C   UNK N   1      29.494  17.107   8.617  0.00  0.00     0.011 C 
HETATM   32  C   UNK N   1      32.808  15.783   9.461  0.00  0.00    -0.007 C 
HETATM   33  C   UNK N   1      30.827  17.140   8.687  0.00  0.00    -0.064 C 
HETATM   34  C   UNK N   1      31.500  15.939   9.225  0.00  0.00     0.004 C 
HETATM   35  C   UNK N   1      31.594  18.315   8.153  0.00  0.00     0.048 C 
HETATM   36  H   UNK N   1      34.603  17.319  11.242  0.00  0.00     0.163 HD
ENDROOT
BRANCH  12  37
HETATM   37  C   UNK N   1      38.120  12.821   5.771  0.00  0.00     0.008 C 
HETATM   38  C   UNK N   1      37.340  11.601   5.326  0.00  0.00     0.012 C 
HETATM   39  C   UNK N   1      38.574  13.515   4.500  0.00  0.00     0.012 C 
ENDBRANCH  12  37
BRANCH  29  40
HETATM   40  O   UNK N   1      27.837  18.766   8.931  0.00  0.00    -0.391 OA
HETATM   41  H   UNK N   1      27.916  19.707   9.152  0.00  0.00     0.210 HD
ENDBRANCH  29  40
TORSDOF 2
ENDMDL
MODEL 3
REMARK VINA RESULT:      -8.9      8.410     13.917
REMARK  2 active torsions:
REMARK  status: ('A' for Active; 'I' for Inactive)
REMARK    1  A    between atoms: C_12  and  C_17 
REMARK    2  A    between atoms: C_32  and  O_35 
ROOT
HETATM    1  C   UNK N   1      33.194  12.005   6.844  0.00  0.00     0.109 A 
HETATM    2  N   UNK N   1      33.499  11.085   7.882  0.00  0.00    -0.307 N 
HETATM    3  C   UNK N   1      32.687  11.379   5.802  0.00  0.00     0.011 A 
HETATM    4  C   UNK N   1      33.347  13.493   6.828  0.00  0.00     0.310 C 
HETATM    5  C   UNK N   1      34.135  11.346   9.074  0.00  0.00     0.277 C 
HETATM    6  C   UNK N   1      33.104   9.753   7.490  0.00  0.00     0.136 A 
HETATM    7  C   UNK N   1      32.548   9.913   6.068  0.00  0.00     0.050 A 
HETATM    8  O   UNK N   1      33.519  14.128   5.634  0.00  0.00    -0.310 OA
HETATM    9  O   UNK N   1      33.289  14.136   7.860  0.00  0.00    -0.258 OA
HETATM   10  C   UNK N   1      34.496  10.260  10.033  0.00  0.00     0.125 A 
HETATM   11  O   UNK N   1      34.432  12.488   9.373  0.00  0.00    -0.265 OA
HETATM   12  C   UNK N   1      32.743  15.169   5.147  0.00  0.00     0.143 C 
HETATM   13  N   UNK N   1      34.828  10.487  11.319  0.00  0.00    -0.334 N 
ATOM     14  HN  UNK N   1      34.891  11.384  11.801  1.00  0.00     0.168 HD
HETATM   15  C   UNK N   1      34.540   8.897   9.793  0.00  0.00     0.179 A 
HETATM   16  C   UNK N   1      33.608  16.462   4.950  0.00  0.00     0.034 C 
HETATM   17  C   UNK N   1      35.058   9.258  11.824  0.00  0.00     0.130 A 
HETATM   18  O   UNK N   1      34.889   8.322  10.920  0.00  0.00    -0.307 OA
HETATM   19  C   UNK N   1      34.127  17.177   6.169  0.00  0.00    -0.014 C 
HETATM   20  C   UNK N   1      32.854  17.563   4.223  0.00  0.00     0.017 C 
HETATM   21  C   UNK N   1      35.313   8.972  13.275  0.00  0.00     0.162 C 
HETATM   22  C   UNK N   1      34.027  16.783   7.436  0.00  0.00     0.070 C 
HETATM   23  C   UNK N   1      36.405   9.775  13.926  0.00  0.00     0.137 C 
HETATM   24  C   UNK N   1      34.400  17.709   8.536  0.00  0.00     0.241 C 
HETATM   25  C   UNK N   1      37.225  10.748  13.148  0.00  0.00     0.114 C 
HETATM   26  O   UNK N   1      36.601   9.645  15.124  0.00  0.00    -0.297 OA
HETATM   27  N   UNK N   1      34.613  17.254   9.794  0.00  0.00    -0.354 N 
HETATM   28  O   UNK N   1      34.508  18.906   8.312  0.00  0.00    -0.269 OA
HETATM   29  C   UNK N   1      36.860  12.173  13.517  0.00  0.00     0.148 C 
HETATM   30  C   UNK N   1      34.641  15.849  10.103  0.00  0.00     0.150 C 
HETATM   31  C   UNK N   1      37.187  13.027  12.342  0.00  0.00     0.011 C 
HETATM   32  C   UNK N   1      35.999  15.334   9.751  0.00  0.00    -0.007 C 
HETATM   33  C   UNK N   1      36.276  13.773  11.713  0.00  0.00    -0.064 C 
HETATM   34  C   UNK N   1      36.713  14.476  10.489  0.00  0.00     0.004 C 
HETATM   35  C   UNK N   1      34.852  13.808  12.190  0.00  0.00     0.048 C 
HETATM   36  H   UNK N   1      34.753  17.905  10.520  0.00  0.00     0.163 HD
ENDROOT
BRANCH  12  37
HETATM   37  C   UNK N   1      32.180  14.650   3.788  0.00  0.00     0.008 C 
HETATM   38  C   UNK N   1      33.186  13.788   3.053  0.00  0.00     0.012 C 
HETATM   39  C   UNK N   1      30.903  13.834   3.861  0.00  0.00     0.012 C 
ENDBRANCH  12  37
BRANCH  29  40
HETATM   40  O   UNK N   1      37.586  12.588  14.632  0.00  0.00    -0.391 OA
HETATM   41  H   UNK N   1      37.731  11.977  15.371  0.00  0.00     0.210 HD
ENDBRANCH  29  40
TORSDOF 2
ENDMDL
MODEL 4
REMARK VINA RESULT:      -8.8      9.995     13.306
REMARK  2 active torsions:
REMARK  status: ('A' for Active; 'I' for Inactive)
REMARK    1  A    between atoms: C_12  and  C_17 
REMARK    2  A    between atoms: C_32  and  O_35 
ROOT
HETATM    1  C   UNK N   1      35.910  12.462  13.420  0.00  0.00     0.109 A 
HETATM    2  N   UNK N   1      35.749  13.700  12.743  0.00  0.00    -0.307 N 
HETATM    3  C   UNK N   1      36.477  12.645  14.595  0.00  0.00     0.011 A 
HETATM    4  C   UNK N   1      35.506  11.089  12.984  0.00  0.00     0.310 C 
HETATM    5  C   UNK N   1      35.296  13.900  11.459  0.00  0.00     0.277 C 
HETATM    6  C   UNK N   1      36.207  14.782  13.582  0.00  0.00     0.136 A 
HETATM    7  C   UNK N   1      36.717  14.098  14.858  0.00  0.00     0.050 A 
HETATM    8  O   UNK N   1      36.186  10.013  13.471  0.00  0.00    -0.310 OA
HETATM    9  O   UNK N   1      34.563  10.928  12.231  0.00  0.00    -0.258 OA
HETATM   10  C   UNK N   1      35.283  15.253  10.827  0.00  0.00     0.125 A 
HETATM   11  O   UNK N   1      34.902  12.961  10.795  0.00  0.00    -0.265 OA
HETATM   12  C   UNK N   1      35.628   8.923  14.122  0.00  0.00     0.143 C 
HETATM   13  N   UNK N   1      34.578  15.545   9.717  0.00  0.00    -0.334 N 
ATOM     14  HN  UNK N   1      33.991  14.920   9.165  1.00  0.00     0.168 HD
HETATM   15  C   UNK N   1      35.944  16.394  11.251  0.00  0.00     0.179 A 
HETATM   16  C   UNK N   1      35.886   7.602  13.316  0.00  0.00     0.034 C 
HETATM   17  C   UNK N   1      34.826  16.853   9.501  0.00  0.00     0.130 A 
HETATM   18  O   UNK N   1      35.634  17.351  10.408  0.00  0.00    -0.307 OA
HETATM   19  C   UNK N   1      35.180   7.410  12.000  0.00  0.00    -0.014 C 
HETATM   20  C   UNK N   1      35.479   6.360  14.089  0.00  0.00     0.017 C 
HETATM   21  C   UNK N   1      34.140  17.686   8.458  0.00  0.00     0.162 C 
HETATM   22  C   UNK N   1      34.415   8.291  11.361  0.00  0.00     0.070 C 
HETATM   23  C   UNK N   1      34.159  17.140   7.057  0.00  0.00     0.137 C 
HETATM   24  C   UNK N   1      33.618   7.868  10.181  0.00  0.00     0.241 C 
HETATM   25  C   UNK N   1      34.881  15.877   6.724  0.00  0.00     0.114 C 
HETATM   26  O   UNK N   1      33.546  17.731   6.183  0.00  0.00    -0.297 OA
HETATM   27  N   UNK N   1      33.089   8.779   9.330  0.00  0.00    -0.354 N 
HETATM   28  O   UNK N   1      33.421   6.679   9.975  0.00  0.00    -0.269 OA
HETATM   29  C   UNK N   1      33.899  14.756   6.443  0.00  0.00     0.148 C 
HETATM   30  C   UNK N   1      33.392  10.182   9.427  0.00  0.00     0.150 C 
HETATM   31  C   UNK N   1      34.596  13.477   6.753  0.00  0.00     0.011 C 
HETATM   32  C   UNK N   1      34.708  10.409   8.758  0.00  0.00    -0.007 C 
HETATM   33  C   UNK N   1      34.143  12.608   7.660  0.00  0.00    -0.064 C 
HETATM   34  C   UNK N   1      34.997  11.438   7.953  0.00  0.00     0.004 C 
HETATM   35  C   UNK N   1      32.866  12.874   8.406  0.00  0.00     0.048 C 
HETATM   36  H   UNK N   1      32.477   8.471   8.621  0.00  0.00     0.163 HD
ENDROOT
BRANCH  12  37
HETATM   37  C   UNK N   1      36.329   8.884  15.515  0.00  0.00     0.008 C 
HETATM   38  C   UNK N   1      37.778   9.320  15.431  0.00  0.00     0.012 C 
HETATM   39  C   UNK N   1      35.699   9.732  16.604  0.00  0.00     0.012 C 
ENDBRANCH  12  37
BRANCH  29  40
HETATM   40  O   UNK N   1      33.505  14.780   5.106  0.00  0.00    -0.391 OA
HETATM   41  H   UNK N   1      32.617  14.480   4.857  0.00  0.00     0.210 HD
ENDBRANCH  29  40
TORSDOF 2
ENDMDL
MODEL 5
REMARK VINA RESULT:      -8.1      4.712     11.224
REMARK  2 active torsions:
REMARK  status: ('A' for Active; 'I' for Inactive)
REMARK    1  A    between atoms: C_12  and  C_17 
REMARK    2  A    between atoms: C_32  and  O_35 
ROOT
HETATM    1  C   UNK N   1      31.269  12.190   4.444  0.00  0.00     0.109 A 
HETATM    2  N   UNK N   1      32.294  11.956   5.399  0.00  0.00    -0.307 N 
HETATM    3  C   UNK N   1      31.207  11.201   3.577  0.00  0.00     0.011 A 
HETATM    4  C   UNK N   1      30.310  13.334   4.351  0.00  0.00     0.310 C 
HETATM    5  C   UNK N   1      32.726  12.807   6.390  0.00  0.00     0.277 C 
HETATM    6  C   UNK N   1      32.912  10.676   5.153  0.00  0.00     0.136 A 
HETATM    7  C   UNK N   1      32.198  10.130   3.908  0.00  0.00     0.050 A 
HETATM    8  O   UNK N   1      29.789  13.665   3.136  0.00  0.00    -0.310 OA
HETATM    9  O   UNK N   1      29.970  13.945   5.349  0.00  0.00    -0.258 OA
HETATM   10  C   UNK N   1      33.896  12.481   7.259  0.00  0.00     0.125 A 
HETATM   11  O   UNK N   1      32.162  13.869   6.576  0.00  0.00    -0.265 OA
HETATM   12  C   UNK N   1      28.441  13.767   2.828  0.00  0.00     0.143 C 
HETATM   13  N   UNK N   1      34.159  13.117   8.416  0.00  0.00    -0.334 N 
ATOM     14  HN  UNK N   1      33.638  13.882   8.844  1.00  0.00     0.168 HD
HETATM   15  C   UNK N   1      34.861  11.510   7.052  0.00  0.00     0.179 A 
HETATM   16  C   UNK N   1      28.080  15.229   2.389  0.00  0.00     0.034 C 
HETATM   17  C   UNK N   1      35.271  12.513   8.882  0.00  0.00     0.130 A 
HETATM   18  O   UNK N   1      35.684  11.565   8.073  0.00  0.00    -0.307 OA
HETATM   19  C   UNK N   1      28.114  16.322   3.423  0.00  0.00    -0.014 C 
HETATM   20  C   UNK N   1      26.667  15.340   1.842  0.00  0.00     0.017 C 
HETATM   21  C   UNK N   1      35.875  12.769  10.232  0.00  0.00     0.162 C 
HETATM   22  C   UNK N   1      28.522  16.224   4.685  0.00  0.00     0.070 C 
HETATM   23  C   UNK N   1      36.149  14.207  10.572  0.00  0.00     0.137 C 
HETATM   24  C   UNK N   1      28.287  17.343   5.634  0.00  0.00     0.241 C 
HETATM   25  C   UNK N   1      35.896  15.302   9.590  0.00  0.00     0.114 C 
HETATM   26  O   UNK N   1      36.561  14.484  11.687  0.00  0.00    -0.297 OA
HETATM   27  N   UNK N   1      28.952  17.414   6.812  0.00  0.00    -0.354 N 
HETATM   28  O   UNK N   1      27.473  18.211   5.359  0.00  0.00    -0.269 OA
HETATM   29  C   UNK N   1      34.687  16.121   9.999  0.00  0.00     0.148 C 
HETATM   30  C   UNK N   1      30.021  16.509   7.142  0.00  0.00     0.150 C 
HETATM   31  C   UNK N   1      34.120  16.716   8.757  0.00  0.00     0.011 C 
HETATM   32  C   UNK N   1      31.262  17.012   6.479  0.00  0.00    -0.007 C 
HETATM   33  C   UNK N   1      32.868  16.490   8.353  0.00  0.00    -0.064 C 
HETATM   34  C   UNK N   1      32.476  17.045   7.041  0.00  0.00     0.004 C 
HETATM   35  C   UNK N   1      31.943  15.630   9.166  0.00  0.00     0.048 C 
HETATM   36  H   UNK N   1      28.695  18.107   7.463  0.00  0.00     0.163 HD
ENDROOT
BRANCH  12  37
HETATM   37  C   UNK N   1      28.216  12.753   1.664  0.00  0.00     0.008 C 
HETATM   38  C   UNK N   1      29.443  12.622   0.784  0.00  0.00     0.012 C 
HETATM   39  C   UNK N   1      27.841  11.341   2.071  0.00  0.00     0.012 C 
ENDBRANCH  12  37
BRANCH  29  40
HETATM   40  O   UNK N   1      35.060  17.126  10.889  0.00  0.00    -0.391 OA
HETATM   41  H   UNK N   1      34.417  17.474  11.526  0.00  0.00     0.210 HD
ENDBRANCH  29  40
TORSDOF 2
ENDMDL
MODEL 6
REMARK VINA RESULT:      -8.0     13.877     17.495
REMARK  2 active torsions:
REMARK  status: ('A' for Active; 'I' for Inactive)
REMARK    1  A    between atoms: C_12  and  C_17 
REMARK    2  A    between atoms: C_32  and  O_35 
ROOT
HETATM    1  C   UNK N   1      37.518   9.391  12.227  0.00  0.00     0.109 A 
HETATM    2  N   UNK N   1      37.110   8.969  13.520  0.00  0.00    -0.307 N 
HETATM    3  C   UNK N   1      38.037   8.387  11.552  0.00  0.00     0.011 A 
HETATM    4  C   UNK N   1      37.397  10.742  11.595  0.00  0.00     0.310 C 
HETATM    5  C   UNK N   1      36.624   9.751  14.544  0.00  0.00     0.277 C 
HETATM    6  C   UNK N   1      37.341   7.552  13.670  0.00  0.00     0.136 A 
HETATM    7  C   UNK N   1      37.981   7.118  12.343  0.00  0.00     0.050 A 
HETATM    8  O   UNK N   1      38.280  11.098  10.620  0.00  0.00    -0.310 OA
HETATM    9  O   UNK N   1      36.504  11.504  11.920  0.00  0.00    -0.258 OA
HETATM   10  C   UNK N   1      36.338   9.192  15.899  0.00  0.00     0.125 A 
HETATM   11  O   UNK N   1      36.425  10.938  14.367  0.00  0.00    -0.265 OA
HETATM   12  C   UNK N   1      37.953  11.537   9.346  0.00  0.00     0.143 C 
HETATM   13  N   UNK N   1      35.587   9.828  16.818  0.00  0.00    -0.334 N 
ATOM     14  HN  UNK N   1      35.137  10.739  16.738  1.00  0.00     0.168 HD
HETATM   15  C   UNK N   1      36.757   7.981  16.422  0.00  0.00     0.179 A 
HETATM   16  C   UNK N   1      38.470  13.000   9.113  0.00  0.00     0.034 C 
HETATM   17  C   UNK N   1      35.566   8.985  17.870  0.00  0.00     0.130 A 
HETATM   18  O   UNK N   1      36.260   7.895  17.634  0.00  0.00    -0.307 OA
HETATM   19  C   UNK N   1      37.816  14.126   9.867  0.00  0.00    -0.014 C 
HETATM   20  C   UNK N   1      38.323  13.445   7.668  0.00  0.00     0.017 C 
HETATM   21  C   UNK N   1      34.725   9.180  19.098  0.00  0.00     0.162 C 
HETATM   22  C   UNK N   1      36.888  14.027  10.816  0.00  0.00     0.070 C 
HETATM   23  C   UNK N   1      34.852  10.512  19.782  0.00  0.00     0.137 C 
HETATM   24  C   UNK N   1      36.190  15.244  11.306  0.00  0.00     0.241 C 
HETATM   25  C   UNK N   1      35.813  11.547  19.299  0.00  0.00     0.114 C 
HETATM   26  O   UNK N   1      34.131  10.760  20.736  0.00  0.00    -0.297 OA
HETATM   27  N   UNK N   1      35.488  15.230  12.463  0.00  0.00    -0.354 N 
HETATM   28  O   UNK N   1      36.236  16.275  10.652  0.00  0.00    -0.269 OA
HETATM   29  C   UNK N   1      35.076  12.696  18.639  0.00  0.00     0.148 C 
HETATM   30  C   UNK N   1      35.503  14.099  13.353  0.00  0.00     0.150 C 
HETATM   31  C   UNK N   1      36.015  13.316  17.664  0.00  0.00     0.011 C 
HETATM   32  C   UNK N   1      36.746  14.187  14.177  0.00  0.00    -0.007 C 
HETATM   33  C   UNK N   1      35.748  13.407  16.359  0.00  0.00    -0.064 C 
HETATM   34  C   UNK N   1      36.820  13.935  15.489  0.00  0.00     0.004 C 
HETATM   35  C   UNK N   1      34.445  12.903  15.807  0.00  0.00     0.048 C 
HETATM   36  H   UNK N   1      34.950  16.019  12.704  0.00  0.00     0.163 HD
ENDROOT
BRANCH  12  37
HETATM   37  C   UNK N   1      38.650  10.528   8.382  0.00  0.00     0.008 C 
HETATM   38  C   UNK N   1      39.980  10.051   8.928  0.00  0.00     0.012 C 
HETATM   39  C   UNK N   1      37.863   9.276   8.042  0.00  0.00     0.012 C 
ENDBRANCH  12  37
BRANCH  29  40
HETATM   40  O   UNK N   1      34.682  13.634  19.593  0.00  0.00    -0.391 OA
HETATM   41  H   UNK N   1      35.026  14.539  19.554  0.00  0.00     0.210 HD
ENDBRANCH  29  40
TORSDOF 2
ENDMDL
MODEL 7
REMARK VINA RESULT:      -8.0      8.913     14.010
REMARK  2 active torsions:
REMARK  status: ('A' for Active; 'I' for Inactive)
REMARK    1  A    between atoms: C_12  and  C_17 
REMARK    2  A    between atoms: C_32  and  O_35 
ROOT
HETATM    1  C   UNK N   1      33.192  10.969   7.235  0.00  0.00     0.109 A 
HETATM    2  N   UNK N   1      33.446  10.337   8.482  0.00  0.00    -0.307 N 
HETATM    3  C   UNK N   1      32.703  10.106   6.368  0.00  0.00     0.011 A 
HETATM    4  C   UNK N   1      33.377  12.402   6.849  0.00  0.00     0.310 C 
HETATM    5  C   UNK N   1      34.052  10.884   9.590  0.00  0.00     0.277 C 
HETATM    6  C   UNK N   1      33.035   8.955   8.426  0.00  0.00     0.136 A 
HETATM    7  C   UNK N   1      32.525   8.757   6.991  0.00  0.00     0.050 A 
HETATM    8  O   UNK N   1      33.596  12.712   5.540  0.00  0.00    -0.310 OA
HETATM    9  O   UNK N   1      33.301  13.286   7.683  0.00  0.00    -0.258 OA
HETATM   10  C   UNK N   1      34.362  10.071  10.804  0.00  0.00     0.125 A 
HETATM   11  O   UNK N   1      34.364  12.060   9.601  0.00  0.00    -0.265 OA
HETATM   12  C   UNK N   1      32.857  13.606   4.780  0.00  0.00     0.143 C 
HETATM   13  N   UNK N   1      34.660  10.613  12.001  0.00  0.00    -0.334 N 
ATOM     14  HN  UNK N   1      34.727  11.601  12.243  1.00  0.00     0.168 HD
HETATM   15  C   UNK N   1      34.384   8.692  10.918  0.00  0.00     0.179 A 
HETATM   16  C   UNK N   1      33.755  14.796   4.292  0.00  0.00     0.034 C 
HETATM   17  C   UNK N   1      34.849   9.548  12.808  0.00  0.00     0.130 A 
HETATM   18  O   UNK N   1      34.687   8.416  12.165  0.00  0.00    -0.307 OA
HETATM   19  C   UNK N   1      34.252  15.789   5.308  0.00  0.00    -0.014 C 
HETATM   20  C   UNK N   1      33.046  15.686   3.286  0.00  0.00     0.017 C 
HETATM   21  C   UNK N   1      35.055   9.635  14.292  0.00  0.00     0.162 C 
HETATM   22  C   UNK N   1      34.106  15.730   6.629  0.00  0.00     0.070 C 
HETATM   23  C   UNK N   1      36.143  10.563  14.756  0.00  0.00     0.137 C 
HETATM   24  C   UNK N   1      34.467  16.900   7.472  0.00  0.00     0.241 C 
HETATM   25  C   UNK N   1      37.007  11.297  13.785  0.00  0.00     0.114 C 
HETATM   26  O   UNK N   1      36.302  10.738  15.954  0.00  0.00    -0.297 OA
HETATM   27  N   UNK N   1      34.632  16.775   8.810  0.00  0.00    -0.354 N 
HETATM   28  O   UNK N   1      34.605  17.999   6.957  0.00  0.00    -0.269 OA
HETATM   29  C   UNK N   1      36.661  12.774  13.770  0.00  0.00     0.148 C 
HETATM   30  C   UNK N   1      34.621  15.493   9.465  0.00  0.00     0.150 C 
HETATM   31  C   UNK N   1      37.041  13.298  12.429  0.00  0.00     0.011 C 
HETATM   32  C   UNK N   1      35.978  14.889   9.301  0.00  0.00    -0.007 C 
HETATM   33  C   UNK N   1      36.164  13.872  11.602  0.00  0.00    -0.064 C 
HETATM   34  C   UNK N   1      36.652  14.237  10.255  0.00  0.00     0.004 C 
HETATM   35  C   UNK N   1      34.728  14.045  12.006  0.00  0.00     0.048 C 
HETATM   36  H   UNK N   1      34.764  17.587   9.353  0.00  0.00     0.163 HD
ENDROOT
BRANCH  12  37
HETATM   37  C   UNK N   1      32.324  12.767   3.578  0.00  0.00     0.008 C 
HETATM   38  C   UNK N   1      33.322  11.715   3.137  0.00  0.00     0.012 C 
HETATM   39  C   UNK N   1      31.014  12.035   3.802  0.00  0.00     0.012 C 
ENDBRANCH  12  37
BRANCH  29  40
HETATM   40  O   UNK N   1      37.362  13.448  14.769  0.00  0.00    -0.391 OA
HETATM   41  H   UNK N   1      37.029  13.449  15.679  0.00  0.00     0.210 HD
ENDBRANCH  29  40
TORSDOF 2
ENDMDL
MODEL 8
REMARK VINA RESULT:      -7.8      3.112      6.007
REMARK  2 active torsions:
REMARK  status: ('A' for Active; 'I' for Inactive)
REMARK    1  A    between atoms: C_12  and  C_17 
REMARK    2  A    between atoms: C_32  and  O_35 
ROOT
HETATM    1  C   UNK N   1      30.367  13.780   4.085  0.00  0.00     0.109 A 
HETATM    2  N   UNK N   1      29.405  13.182   3.228  0.00  0.00    -0.307 N 
HETATM    3  C   UNK N   1      31.531  13.174   3.972  0.00  0.00     0.011 A 
HETATM    4  C   UNK N   1      30.214  14.952   5.002  0.00  0.00     0.310 C 
HETATM    5  C   UNK N   1      28.061  13.470   3.147  0.00  0.00     0.277 C 
HETATM    6  C   UNK N   1      30.020  12.130   2.457  0.00  0.00     0.136 A 
HETATM    7  C   UNK N   1      31.477  12.090   2.942  0.00  0.00     0.050 A 
HETATM    8  O   UNK N   1      31.023  15.047   6.095  0.00  0.00    -0.310 OA
HETATM    9  O   UNK N   1      29.402  15.828   4.764  0.00  0.00    -0.258 OA
HETATM   10  C   UNK N   1      27.135  12.684   2.279  0.00  0.00     0.125 A 
HETATM   11  O   UNK N   1      27.588  14.380   3.801  0.00  0.00    -0.265 OA
HETATM   12  C   UNK N   1      31.831  16.127   6.419  0.00  0.00     0.143 C 
HETATM   13  N   UNK N   1      25.905  13.109   1.932  0.00  0.00    -0.334 N 
ATOM     14  HN  UNK N   1      25.442  13.976   2.203  1.00  0.00     0.168 HD
HETATM   15  C   UNK N   1      27.364  11.450   1.694  0.00  0.00     0.179 A 
HETATM   16  C   UNK N   1      31.396  16.756   7.788  0.00  0.00     0.034 C 
HETATM   17  C   UNK N   1      25.425  12.127   1.143  0.00  0.00     0.130 A 
HETATM   18  O   UNK N   1      26.288  11.147   1.006  0.00  0.00    -0.307 OA
HETATM   19  C   UNK N   1      30.081  17.485   7.863  0.00  0.00    -0.014 C 
HETATM   20  C   UNK N   1      32.378  17.803   8.286  0.00  0.00     0.017 C 
HETATM   21  C   UNK N   1      24.135  12.206   0.378  0.00  0.00     0.162 C 
HETATM   22  C   UNK N   1      29.160  17.581   6.908  0.00  0.00     0.070 C 
HETATM   23  C   UNK N   1      22.916  12.577   1.175  0.00  0.00     0.137 C 
HETATM   24  C   UNK N   1      28.017  18.517   7.068  0.00  0.00     0.241 C 
HETATM   25  C   UNK N   1      22.983  12.784   2.651  0.00  0.00     0.114 C 
HETATM   26  O   UNK N   1      21.855  12.739   0.593  0.00  0.00    -0.297 OA
HETATM   27  N   UNK N   1      26.915  18.417   6.286  0.00  0.00    -0.354 N 
HETATM   28  O   UNK N   1      28.070  19.403   7.907  0.00  0.00    -0.269 OA
HETATM   29  C   UNK N   1      22.845  14.256   2.993  0.00  0.00     0.148 C 
HETATM   30  C   UNK N   1      26.721  17.320   5.375  0.00  0.00     0.150 C 
HETATM   31  C   UNK N   1      23.533  14.468   4.297  0.00  0.00     0.011 C 
HETATM   32  C   UNK N   1      26.196  16.164   6.163  0.00  0.00    -0.007 C 
HETATM   33  C   UNK N   1      24.551  15.320   4.447  0.00  0.00    -0.064 C 
HETATM   34  C   UNK N   1      25.218  15.342   5.765  0.00  0.00     0.004 C 
HETATM   35  C   UNK N   1      25.040  16.141   3.289  0.00  0.00     0.048 C 
HETATM   36  H   UNK N   1      26.223  19.117   6.344  0.00  0.00     0.163 HD
ENDROOT
BRANCH  12  37
HETATM   37  C   UNK N   1      33.274  15.540   6.497  0.00  0.00     0.008 C 
HETATM   38  C   UNK N   1      33.278  14.118   7.022  0.00  0.00     0.012 C 
HETATM   39  C   UNK N   1      34.054  15.508   5.196  0.00  0.00     0.012 C 
ENDBRANCH  12  37
BRANCH  29  40
HETATM   40  O   UNK N   1      21.500  14.607   3.094  0.00  0.00    -0.391 OA
HETATM   41  H   UNK N   1      20.987  14.800   2.294  0.00  0.00     0.210 HD
ENDBRANCH  29  40
TORSDOF 2
ENDMDL
MODEL 9
REMARK VINA RESULT:      -7.7      9.888     13.875
REMARK  2 active torsions:
REMARK  status: ('A' for Active; 'I' for Inactive)
REMARK    1  A    between atoms: C_12  and  C_17 
REMARK    2  A    between atoms: C_32  and  O_35 
ROOT
HETATM    1  C   UNK N   1      34.396   9.032   9.051  0.00  0.00     0.109 A 
HETATM    2  N   UNK N   1      34.159  10.123   8.172  0.00  0.00    -0.307 N 
HETATM    3  C   UNK N   1      33.922   7.914   8.542  0.00  0.00     0.011 A 
HETATM    4  C   UNK N   1      35.101   9.020  10.370  0.00  0.00     0.310 C 
HETATM    5  C   UNK N   1      34.414  11.455   8.403  0.00  0.00     0.277 C 
HETATM    6  C   UNK N   1      33.520   9.653   6.967  0.00  0.00     0.136 A 
HETATM    7  C   UNK N   1      33.336   8.144   7.185  0.00  0.00     0.050 A 
HETATM    8  O   UNK N   1      34.778   8.061  11.284  0.00  0.00    -0.310 OA
HETATM    9  O   UNK N   1      35.974   9.833  10.618  0.00  0.00    -0.258 OA
HETATM   10  C   UNK N   1      34.009  12.518   7.434  0.00  0.00     0.125 A 
HETATM   11  O   UNK N   1      34.973  11.805   9.426  0.00  0.00    -0.265 OA
HETATM   12  C   UNK N   1      35.665   7.186  11.893  0.00  0.00     0.143 C 
HETATM   13  N   UNK N   1      34.499  13.772   7.464  0.00  0.00    -0.334 N 
ATOM     14  HN  UNK N   1      35.171  14.167   8.121  1.00  0.00     0.168 HD
HETATM   15  C   UNK N   1      33.118  12.409   6.380  0.00  0.00     0.179 A 
HETATM   16  C   UNK N   1      35.683   7.404  13.447  0.00  0.00     0.034 C 
HETATM   17  C   UNK N   1      33.897  14.387   6.425  0.00  0.00     0.130 A 
HETATM   18  O   UNK N   1      33.081  13.580   5.789  0.00  0.00    -0.307 OA
HETATM   19  C   UNK N   1      36.280   8.674  13.990  0.00  0.00    -0.014 C 
HETATM   20  C   UNK N   1      36.476   6.332  14.175  0.00  0.00     0.017 C 
HETATM   21  C   UNK N   1      34.233  15.769   5.947  0.00  0.00     0.162 C 
HETATM   22  C   UNK N   1      36.719   9.719  13.294  0.00  0.00     0.070 C 
HETATM   23  C   UNK N   1      34.218  16.852   6.989  0.00  0.00     0.137 C 
HETATM   24  C   UNK N   1      37.478  10.801  13.973  0.00  0.00     0.241 C 
HETATM   25  C   UNK N   1      33.823  16.570   8.400  0.00  0.00     0.114 C 
HETATM   26  O   UNK N   1      34.565  17.980   6.677  0.00  0.00    -0.297 OA
HETATM   27  N   UNK N   1      37.663  12.005  13.382  0.00  0.00    -0.354 N 
HETATM   28  O   UNK N   1      37.958  10.604  15.080  0.00  0.00    -0.269 OA
HETATM   29  C   UNK N   1      35.031  16.616   9.315  0.00  0.00     0.148 C 
HETATM   30  C   UNK N   1      37.014  12.357  12.146  0.00  0.00     0.150 C 
HETATM   31  C   UNK N   1      34.729  15.744  10.484  0.00  0.00     0.011 C 
HETATM   32  C   UNK N   1      35.624  12.797  12.474  0.00  0.00    -0.007 C 
HETATM   33  C   UNK N   1      35.481  14.692  10.816  0.00  0.00    -0.064 C 
HETATM   34  C   UNK N   1      34.997  13.843  11.924  0.00  0.00     0.004 C 
HETATM   35  C   UNK N   1      36.711  14.350  10.024  0.00  0.00     0.048 C 
HETATM   36  H   UNK N   1      38.259  12.661  13.811  0.00  0.00     0.163 HD
ENDROOT
BRANCH  12  37
HETATM   37  C   UNK N   1      35.141   5.763  11.526  0.00  0.00     0.008 C 
HETATM   38  C   UNK N   1      33.627   5.716  11.467  0.00  0.00     0.012 C 
HETATM   39  C   UNK N   1      35.629   5.191  10.208  0.00  0.00     0.012 C 
ENDBRANCH  12  37
BRANCH  29  40
HETATM   40  O   UNK N   1      35.271  17.923   9.737  0.00  0.00    -0.391 OA
HETATM   41  H   UNK N   1      34.637  18.625   9.526  0.00  0.00     0.210 HD
ENDBRANCH  29  40
TORSDOF 2
ENDMDL
