MODEL 1
REMARK VINA RESULT:      -4.5      0.000      0.000
REMARK  3 active torsions:
REMARK  status: ('A' for Active; 'I' for Inactive)
REMARK       I    between atoms: N_3  and  C_6 
REMARK    1  A    between atoms: C_6  and  C_7 
REMARK    2  A    between atoms: C_7  and  C_8 
REMARK    3  A    between atoms: C_7  and  N_11 
ROOT
HETATM    1  C   UNK N   1      34.877  13.697  11.750  0.00  0.00     0.021 A 
HETATM    2  C   UNK N   1      34.316  14.501  10.589  0.00  0.00     0.126 A 
HETATM    3  N   UNK N   1      34.980  15.771  10.650  0.00  0.00    -0.350 N 
HETATM    4  C   UNK N   1      35.923  15.911  11.720  0.00  0.00     0.126 A 
HETATM    5  C   UNK N   1      35.909  14.579  12.448  0.00  0.00     0.021 A 
HETATM    6  C   UNK N   1      34.759  16.769   9.744  0.00  0.00     0.242 C 
HETATM    7  O   UNK N   1      35.392  17.813   9.834  0.00  0.00    -0.271 OA
ENDROOT
BRANCH   6   8
HETATM    8  C   UNK N   1      33.747  16.596   8.620  0.00  0.00     0.170 C 
BRANCH   8   9
HETATM    9  C   UNK N   1      34.313  16.895   7.215  0.00  0.00     0.009 C 
HETATM   10  C   UNK N   1      34.874  15.635   6.572  0.00  0.00     0.012 C 
HETATM   11  C   UNK N   1      33.295  17.515   6.270  0.00  0.00     0.012 C 
ENDBRANCH   8   9
BRANCH   8  12
HETATM   12  N   UNK N   1      32.588  17.440   8.881  0.00  0.00    -0.418 N 
HETATM   13  H   UNK N   1      31.616  17.512   9.184  0.00  0.00     0.150 HD
HETATM   14  H   UNK N   1      32.882  18.391   8.661  0.00  0.00     0.150 HD
ENDBRANCH   8  12
ENDBRANCH   6   8
TORSDOF 3
ENDMDL
MODEL 2
REMARK VINA RESULT:      -4.4     15.694     17.957
REMARK  3 active torsions:
REMARK  status: ('A' for Active; 'I' for Inactive)
REMARK       I    between atoms: N_3  and  C_6 
REMARK    1  A    between atoms: C_6  and  C_7 
REMARK    2  A    between atoms: C_7  and  C_8 
REMARK    3  A    between atoms: C_7  and  N_11 
ROOT
HETATM    1  C   UNK N   1      30.719  24.266  -4.205  0.00  0.00     0.021 A 
HETATM    2  C   UNK N   1      29.356  24.707  -4.707  0.00  0.00     0.126 A 
HETATM    3  N   UNK N   1      28.413  24.187  -3.758  0.00  0.00    -0.350 N 
HETATM    4  C   UNK N   1      28.991  23.446  -2.676  0.00  0.00     0.126 A 
HETATM    5  C   UNK N   1      30.490  23.491  -2.909  0.00  0.00     0.021 A 
HETATM    6  C   UNK N   1      27.068  24.400  -3.854  0.00  0.00     0.242 C 
HETATM    7  O   UNK N   1      26.327  23.959  -2.984  0.00  0.00    -0.271 OA
ENDROOT
BRANCH   6   8
HETATM    8  C   UNK N   1      26.481  25.186  -5.018  0.00  0.00     0.170 C 
BRANCH   8   9
HETATM    9  C   UNK N   1      25.883  26.552  -4.614  0.00  0.00     0.009 C 
HETATM   10  C   UNK N   1      26.973  27.600  -4.453  0.00  0.00     0.012 C 
HETATM   11  C   UNK N   1      24.844  27.073  -5.595  0.00  0.00     0.012 C 
ENDBRANCH   8   9
BRANCH   8  12
HETATM   12  N   UNK N   1      25.469  24.376  -5.685  0.00  0.00    -0.418 N 
HETATM   13  H   UNK N   1      24.895  24.210  -6.512  0.00  0.00     0.150 HD
HETATM   14  H   UNK N   1      25.222  23.640  -5.023  0.00  0.00     0.150 HD
ENDBRANCH   8  12
ENDBRANCH   6   8
TORSDOF 3
ENDMDL
MODEL 3
REMARK VINA RESULT:      -4.4     10.479     13.167
REMARK  3 active torsions:
REMARK  status: ('A' for Active; 'I' for Inactive)
REMARK       I    between atoms: N_3  and  C_6 
REMARK    1  A    between atoms: C_6  and  C_7 
REMARK    2  A    between atoms: C_7  and  C_8 
REMARK    3  A    between atoms: C_7  and  N_11 
ROOT
HETATM    1  C   UNK N   1      21.005  18.881   4.141  0.00  0.00     0.021 A 
HETATM    2  C   UNK N   1      22.514  18.909   4.307  0.00  0.00     0.126 A 
HETATM    3  N   UNK N   1      22.987  19.846   3.329  0.00  0.00    -0.350 N 
HETATM    4  C   UNK N   1      21.966  20.449   2.524  0.00  0.00     0.126 A 
HETATM    5  C   UNK N   1      20.658  19.872   3.032  0.00  0.00     0.021 A 
HETATM    6  C   UNK N   1      24.307  20.166   3.186  0.00  0.00     0.242 C 
HETATM    7  O   UNK N   1      24.634  21.005   2.355  0.00  0.00    -0.271 OA
ENDROOT
BRANCH   6   8
HETATM    8  C   UNK N   1      25.372  19.505   4.049  0.00  0.00     0.170 C 
BRANCH   8   9
HETATM    9  C   UNK N   1      26.556  20.431   4.402  0.00  0.00     0.009 C 
HETATM   10  C   UNK N   1      26.382  21.039   5.786  0.00  0.00     0.012 C 
HETATM   11  C   UNK N   1      27.908  19.737   4.340  0.00  0.00     0.012 C 
ENDBRANCH   8   9
BRANCH   8  12
HETATM   12  N   UNK N   1      25.859  18.305   3.381  0.00  0.00    -0.418 N 
HETATM   13  H   UNK N   1      25.904  17.741   2.532  0.00  0.00     0.150 HD
HETATM   14  H   UNK N   1      26.402  17.799   4.080  0.00  0.00     0.150 HD
ENDBRANCH   8  12
ENDBRANCH   6   8
TORSDOF 3
ENDMDL
MODEL 4
REMARK VINA RESULT:      -4.3     19.283     20.548
REMARK  3 active torsions:
REMARK  status: ('A' for Active; 'I' for Inactive)
REMARK       I    between atoms: N_3  and  C_6 
REMARK    1  A    between atoms: C_6  and  C_7 
REMARK    2  A    between atoms: C_7  and  C_8 
REMARK    3  A    between atoms: C_7  and  N_11 
ROOT
HETATM    1  C   UNK N   1      26.694  27.029  -7.268  0.00  0.00     0.021 A 
HETATM    2  C   UNK N   1      26.972  28.046  -6.174  0.00  0.00     0.126 A 
HETATM    3  N   UNK N   1      26.124  27.669  -5.080  0.00  0.00    -0.350 N 
HETATM    4  C   UNK N   1      25.309  26.514  -5.315  0.00  0.00     0.126 A 
HETATM    5  C   UNK N   1      25.662  26.048  -6.716  0.00  0.00     0.021 A 
HETATM    6  C   UNK N   1      26.109  28.337  -3.889  0.00  0.00     0.242 C 
HETATM    7  O   UNK N   1      25.388  27.933  -2.984  0.00  0.00    -0.271 OA
ENDROOT
BRANCH   6   8
HETATM    8  C   UNK N   1      26.981  29.564  -3.667  0.00  0.00     0.170 C 
BRANCH   8   9
HETATM    9  C   UNK N   1      27.943  29.442  -2.466  0.00  0.00     0.009 C 
HETATM   10  C   UNK N   1      29.349  29.088  -2.925  0.00  0.00     0.012 C 
HETATM   11  C   UNK N   1      28.009  30.698  -1.611  0.00  0.00     0.012 C 
ENDBRANCH   8   9
BRANCH   8  12
HETATM   12  N   UNK N   1      26.131  30.738  -3.508  0.00  0.00    -0.418 N 
HETATM   13  H   UNK N   1      25.471  31.395  -3.924  0.00  0.00     0.150 HD
HETATM   14  H   UNK N   1      26.249  31.037  -2.540  0.00  0.00     0.150 HD
ENDBRANCH   8  12
ENDBRANCH   6   8
TORSDOF 3
ENDMDL
MODEL 5
REMARK VINA RESULT:      -4.3      1.344      4.747
REMARK  3 active torsions:
REMARK  status: ('A' for Active; 'I' for Inactive)
REMARK       I    between atoms: N_3  and  C_6 
REMARK    1  A    between atoms: C_6  and  C_7 
REMARK    2  A    between atoms: C_7  and  C_8 
REMARK    3  A    between atoms: C_7  and  N_11 
ROOT
HETATM    1  C   UNK N   1      34.069  16.332   6.573  0.00  0.00     0.021 A 
HETATM    2  C   UNK N   1      34.721  15.639   7.757  0.00  0.00     0.126 A 
HETATM    3  N   UNK N   1      34.782  16.631   8.792  0.00  0.00    -0.350 N 
HETATM    4  C   UNK N   1      34.246  17.911   8.436  0.00  0.00     0.126 A 
HETATM    5  C   UNK N   1      33.747  17.759   7.011  0.00  0.00     0.021 A 
HETATM    6  C   UNK N   1      35.286  16.377  10.035  0.00  0.00     0.242 C 
HETATM    7  O   UNK N   1      35.270  17.262  10.882  0.00  0.00    -0.271 OA
ENDROOT
BRANCH   6   8
HETATM    8  C   UNK N   1      35.856  15.009  10.385  0.00  0.00     0.170 C 
BRANCH   8   9
HETATM    9  C   UNK N   1      35.208  14.359  11.627  0.00  0.00     0.009 C 
HETATM   10  C   UNK N   1      34.946  12.879  11.395  0.00  0.00     0.012 C 
HETATM   11  C   UNK N   1      36.034  14.517  12.895  0.00  0.00     0.012 C 
ENDBRANCH   8   9
BRANCH   8  12
HETATM   12  N   UNK N   1      37.296  15.121  10.575  0.00  0.00    -0.418 N 
HETATM   13  H   UNK N   1      38.108  15.718  10.736  0.00  0.00     0.150 HD
HETATM   14  H   UNK N   1      37.658  14.168  10.523  0.00  0.00     0.150 HD
ENDBRANCH   8  12
ENDBRANCH   6   8
TORSDOF 3
ENDMDL
MODEL 6
REMARK VINA RESULT:      -4.2     19.027     20.390
REMARK  3 active torsions:
REMARK  status: ('A' for Active; 'I' for Inactive)
REMARK       I    between atoms: N_3  and  C_6 
REMARK    1  A    between atoms: C_6  and  C_7 
REMARK    2  A    between atoms: C_7  and  C_8 
REMARK    3  A    between atoms: C_7  and  N_11 
ROOT
HETATM    1  C   UNK N   1      28.274  30.205  -5.634  0.00  0.00     0.021 A 
HETATM    2  C   UNK N   1      27.863  28.761  -5.407  0.00  0.00     0.126 A 
HETATM    3  N   UNK N   1      26.882  28.804  -4.361  0.00  0.00    -0.350 N 
HETATM    4  C   UNK N   1      26.587  30.115  -3.861  0.00  0.00     0.126 A 
HETATM    5  C   UNK N   1      27.450  31.062  -4.675  0.00  0.00     0.021 A 
HETATM    6  C   UNK N   1      26.249  27.690  -3.890  0.00  0.00     0.242 C 
HETATM    7  O   UNK N   1      25.392  27.807  -3.023  0.00  0.00    -0.271 OA
ENDROOT
BRANCH   6   8
HETATM    8  C   UNK N   1      26.586  26.309  -4.435  0.00  0.00     0.170 C 
BRANCH   8   9
HETATM    9  C   UNK N   1      25.487  25.706  -5.337  0.00  0.00     0.009 C 
HETATM   10  C   UNK N   1      25.451  26.397  -6.691  0.00  0.00     0.012 C 
HETATM   11  C   UNK N   1      25.636  24.208  -5.556  0.00  0.00     0.012 C 
ENDBRANCH   8   9
BRANCH   8  12
HETATM   12  N   UNK N   1      26.869  25.408  -3.325  0.00  0.00    -0.418 N 
HETATM   13  H   UNK N   1      27.400  25.218  -2.474  0.00  0.00     0.150 HD
HETATM   14  H   UNK N   1      26.261  24.601  -3.459  0.00  0.00     0.150 HD
ENDBRANCH   8  12
ENDBRANCH   6   8
TORSDOF 3
ENDMDL
MODEL 7
REMARK VINA RESULT:      -4.1      1.939      2.150
REMARK  3 active torsions:
REMARK  status: ('A' for Active; 'I' for Inactive)
REMARK       I    between atoms: N_3  and  C_6 
REMARK    1  A    between atoms: C_6  and  C_7 
REMARK    2  A    between atoms: C_7  and  C_8 
REMARK    3  A    between atoms: C_7  and  N_11 
ROOT
HETATM    1  C   UNK N   1      36.702  13.144   8.848  0.00  0.00     0.021 A 
HETATM    2  C   UNK N   1      35.486  14.040   8.693  0.00  0.00     0.126 A 
HETATM    3  N   UNK N   1      35.679  15.109   9.630  0.00  0.00    -0.350 N 
HETATM    4  C   UNK N   1      36.888  15.032  10.396  0.00  0.00     0.126 A 
HETATM    5  C   UNK N   1      37.599  13.784   9.905  0.00  0.00     0.021 A 
HETATM    6  C   UNK N   1      34.798  16.143   9.769  0.00  0.00     0.242 C 
HETATM    7  O   UNK N   1      35.048  17.043  10.561  0.00  0.00    -0.271 OA
ENDROOT
BRANCH   6   8
HETATM    8  C   UNK N   1      33.518  16.197   8.946  0.00  0.00     0.170 C 
BRANCH   8   9
HETATM    9  C   UNK N   1      33.172  17.606   8.417  0.00  0.00     0.009 C 
HETATM   10  C   UNK N   1      33.684  17.797   6.998  0.00  0.00     0.012 C 
HETATM   11  C   UNK N   1      31.683  17.916   8.446  0.00  0.00     0.012 C 
ENDBRANCH   8   9
BRANCH   8  12
HETATM   12  N   UNK N   1      32.412  15.677   9.741  0.00  0.00    -0.418 N 
HETATM   13  H   UNK N   1      31.622  15.866  10.358  0.00  0.00     0.150 HD
HETATM   14  H   UNK N   1      32.441  14.664   9.627  0.00  0.00     0.150 HD
ENDBRANCH   8  12
ENDBRANCH   6   8
TORSDOF 3
ENDMDL
MODEL 8
REMARK VINA RESULT:      -4.1     18.038     19.239
REMARK  3 active torsions:
REMARK  status: ('A' for Active; 'I' for Inactive)
REMARK       I    between atoms: N_3  and  C_6 
REMARK    1  A    between atoms: C_6  and  C_7 
REMARK    2  A    between atoms: C_7  and  C_8 
REMARK    3  A    between atoms: C_7  and  N_11 
ROOT
HETATM    1  C   UNK N   1      26.833  28.724  -5.151  0.00  0.00     0.021 A 
HETATM    2  C   UNK N   1      27.286  27.292  -5.372  0.00  0.00     0.126 A 
HETATM    3  N   UNK N   1      26.759  26.550  -4.262  0.00  0.00    -0.350 N 
HETATM    4  C   UNK N   1      26.003  27.324  -3.322  0.00  0.00     0.126 A 
HETATM    5  C   UNK N   1      26.002  28.739  -3.870  0.00  0.00     0.021 A 
HETATM    6  C   UNK N   1      26.934  25.204  -4.118  0.00  0.00     0.242 C 
HETATM    7  O   UNK N   1      26.421  24.630  -3.166  0.00  0.00    -0.271 OA
ENDROOT
BRANCH   6   8
HETATM    8  C   UNK N   1      27.747  24.408  -5.129  0.00  0.00     0.170 C 
BRANCH   8   9
HETATM    9  C   UNK N   1      26.905  23.439  -5.988  0.00  0.00     0.009 C 
HETATM   10  C   UNK N   1      25.918  24.199  -6.860  0.00  0.00     0.012 C 
HETATM   11  C   UNK N   1      27.743  22.530  -6.874  0.00  0.00     0.012 C 
ENDBRANCH   8   9
BRANCH   8  12
HETATM   12  N   UNK N   1      28.796  23.673  -4.433  0.00  0.00    -0.418 N 
HETATM   13  H   UNK N   1      29.064  23.064  -3.659  0.00  0.00     0.150 HD
HETATM   14  H   UNK N   1      29.653  23.846  -4.959  0.00  0.00     0.150 HD
ENDBRANCH   8  12
ENDBRANCH   6   8
TORSDOF 3
ENDMDL
MODEL 9
REMARK VINA RESULT:      -4.0      4.830      7.263
REMARK  3 active torsions:
REMARK  status: ('A' for Active; 'I' for Inactive)
REMARK       I    between atoms: N_3  and  C_6 
REMARK    1  A    between atoms: C_6  and  C_7 
REMARK    2  A    between atoms: C_7  and  C_8 
REMARK    3  A    between atoms: C_7  and  N_11 
ROOT
HETATM    1  C   UNK N   1      37.840  11.452  10.892  0.00  0.00     0.021 A 
HETATM    2  C   UNK N   1      37.613  11.795  12.353  0.00  0.00     0.126 A 
HETATM    3  N   UNK N   1      36.383  12.534  12.384  0.00  0.00    -0.350 N 
HETATM    4  C   UNK N   1      35.759  12.725  11.108  0.00  0.00     0.126 A 
HETATM    5  C   UNK N   1      36.656  12.018  10.109  0.00  0.00     0.021 A 
HETATM    6  C   UNK N   1      35.826  13.000  13.540  0.00  0.00     0.242 C 
HETATM    7  O   UNK N   1      34.753  13.589  13.495  0.00  0.00    -0.271 OA
ENDROOT
BRANCH   6   8
HETATM    8  C   UNK N   1      36.514  12.789  14.882  0.00  0.00     0.170 C 
BRANCH   8   9
HETATM    9  C   UNK N   1      35.562  12.331  16.009  0.00  0.00     0.009 C 
HETATM   10  C   UNK N   1      36.086  11.077  16.691  0.00  0.00     0.012 C 
HETATM   11  C   UNK N   1      35.317  13.397  17.066  0.00  0.00     0.012 C 
ENDBRANCH   8   9
BRANCH   8  12
HETATM   12  N   UNK N   1      37.196  14.015  15.273  0.00  0.00    -0.418 N 
HETATM   13  H   UNK N   1      37.930  14.699  15.086  0.00  0.00     0.150 HD
HETATM   14  H   UNK N   1      36.726  14.337  16.120  0.00  0.00     0.150 HD
ENDBRANCH   8  12
ENDBRANCH   6   8
TORSDOF 3
ENDMDL
