MODEL 1
REMARK VINA RESULT:      -7.2      0.000      0.000
REMARK  4 active torsions:
REMARK  status: ('A' for Active; 'I' for Inactive)
REMARK       I    between atoms: N_1  and  C_2 
REMARK    1  A    between atoms: C_5  and  O_6 
REMARK    2  A    between atoms: N_10  and  C_16 
REMARK    3  A    between atoms: C_20  and  C_22 
REMARK    4  A    between atoms: C_22  and  O_23 
ROOT
HETATM    1  N   UNK N   1      35.949  13.389  12.751  0.00  0.00    -0.234 N 
HETATM    2  C   UNK N   1      35.352  14.320  11.881  0.00  0.00     0.679 A 
HETATM    3  N   UNK N   1      35.985  15.514  11.615  0.00  0.00    -0.168 N 
ATOM      4  HN  UNK N   1      36.881  15.717  12.058  1.00  0.00     0.186 HD
HETATM    5  C   UNK N   1      35.432  16.432  10.766  0.00  0.00     0.187 A 
HETATM    6  C   UNK N   1      34.221  16.120  10.186  0.00  0.00     0.147 A 
HETATM    7  N   UNK N   1      33.458  16.800   9.317  0.00  0.00    -0.272 N 
ATOM      8  HN  UNK N   1      33.644  17.720   8.918  1.00  0.00     0.189 HD
HETATM    9  N   UNK N   1      32.406  16.018   9.088  0.00  0.00    -0.195 N 
HETATM   10  N   UNK N   1      32.473  14.878   9.776  0.00  0.00    -0.261 N 
ATOM     11  HN  UNK N   1      31.795  14.115   9.779  1.00  0.00     0.191 HD
HETATM   12  C   UNK N   1      33.616  14.949  10.462  0.00  0.00     0.170 A 
HETATM   13  N   UNK N   1      34.146  14.029  11.298  0.00  0.00    -0.173 N 
ATOM     14  HN  UNK N   1      33.666  13.149  11.489  1.00  0.00     0.186 HD
HETATM   15  H   UNK N   1      36.824  13.586  13.159  0.00  0.00     0.174 HD
HETATM   16  H   UNK N   1      35.493  12.540  12.953  0.00  0.00     0.174 HD
ENDROOT
BRANCH   9  17
HETATM   17  C   UNK N   1      31.342  16.334   8.188  0.00  0.00     0.076 A 
HETATM   18  C   UNK N   1      31.289  15.775   6.905  0.00  0.00     0.033 A 
HETATM   19  C   UNK N   1      30.223  16.087   6.053  0.00  0.00     0.003 A 
HETATM   20  C   UNK N   1      29.213  16.958   6.484  0.00  0.00     0.018 A 
HETATM   21  C   UNK N   1      29.269  17.517   7.768  0.00  0.00     0.040 A 
HETATM   22  C   UNK N   1      30.333  17.198   8.609  0.00  0.00     0.051 A 
BRANCH  21  23
HETATM   23  C   UNK N   1      28.225  18.438   8.250  0.00  0.00     0.176 C 
HETATM   24  O   UNK N   1      27.972  19.458   7.625  0.00  0.00    -0.646 OA
BRANCH  23  25
HETATM   25  O   UNK N   1      27.542  18.164   9.376  0.00  0.00    -0.773 OA
HETATM   26  H   UNK N   1      27.733  18.630  10.165  0.00  0.00     0.167 HD
ENDBRANCH  23  25
ENDBRANCH  21  23
ENDBRANCH   9  17
BRANCH   5  27
HETATM   27  O   UNK N   1      36.054  17.593  10.502  0.00  0.00    -0.344 OA
HETATM   28  H   UNK N   1      36.960  17.698  10.715  0.00  0.00     0.219 HD
ENDBRANCH   5  27
TORSDOF 4
ENDMDL
MODEL 2
REMARK VINA RESULT:      -7.0     14.449     16.666
REMARK  4 active torsions:
REMARK  status: ('A' for Active; 'I' for Inactive)
REMARK       I    between atoms: N_1  and  C_2 
REMARK    1  A    between atoms: C_5  and  O_6 
REMARK    2  A    between atoms: N_10  and  C_16 
REMARK    3  A    between atoms: C_20  and  C_22 
REMARK    4  A    between atoms: C_22  and  O_23 
ROOT
HETATM    1  N   UNK N   1      31.573  20.020  -5.089  0.00  0.00    -0.234 N 
HETATM    2  C   UNK N   1      30.843  21.102  -4.563  0.00  0.00     0.679 A 
HETATM    3  N   UNK N   1      31.056  21.505  -3.264  0.00  0.00    -0.168 N 
ATOM      4  HN  UNK N   1      31.738  21.009  -2.689  1.00  0.00     0.186 HD
HETATM    5  C   UNK N   1      30.368  22.559  -2.729  0.00  0.00     0.187 A 
HETATM    6  C   UNK N   1      29.456  23.203  -3.537  0.00  0.00     0.147 A 
HETATM    7  N   UNK N   1      28.660  24.257  -3.303  0.00  0.00    -0.272 N 
ATOM      8  HN  UNK N   1      28.578  24.790  -2.437  1.00  0.00     0.189 HD
HETATM    9  N   UNK N   1      27.999  24.458  -4.441  0.00  0.00    -0.195 N 
HETATM   10  N   UNK N   1      28.344  23.575  -5.379  0.00  0.00    -0.261 N 
ATOM     11  HN  UNK N   1      27.983  23.511  -6.332  1.00  0.00     0.191 HD
HETATM   12  C   UNK N   1      29.259  22.791  -4.804  0.00  0.00     0.170 A 
HETATM   13  N   UNK N   1      29.929  21.752  -5.351  0.00  0.00    -0.173 N 
ATOM     14  HN  UNK N   1      29.760  21.462  -6.314  1.00  0.00     0.186 HD
HETATM   15  H   UNK N   1      32.244  19.560  -4.533  0.00  0.00     0.174 HD
HETATM   16  H   UNK N   1      31.415  19.722  -6.014  0.00  0.00     0.174 HD
ENDROOT
BRANCH   9  17
HETATM   17  C   UNK N   1      27.058  25.510  -4.656  0.00  0.00     0.076 A 
HETATM   18  C   UNK N   1      25.993  25.356  -5.554  0.00  0.00     0.033 A 
HETATM   19  C   UNK N   1      25.074  26.397  -5.729  0.00  0.00     0.003 A 
HETATM   20  C   UNK N   1      25.220  27.590  -5.008  0.00  0.00     0.018 A 
HETATM   21  C   UNK N   1      26.287  27.742  -4.112  0.00  0.00     0.040 A 
HETATM   22  C   UNK N   1      27.195  26.699  -3.942  0.00  0.00     0.051 A 
BRANCH  21  23
HETATM   23  C   UNK N   1      26.471  28.984  -3.342  0.00  0.00     0.176 C 
HETATM   24  O   UNK N   1      27.138  28.977  -2.317  0.00  0.00    -0.646 OA
BRANCH  23  25
HETATM   25  O   UNK N   1      25.912  30.134  -3.760  0.00  0.00    -0.773 OA
HETATM   26  H   UNK N   1      25.066  30.125  -4.163  0.00  0.00     0.167 HD
ENDBRANCH  23  25
ENDBRANCH  21  23
ENDBRANCH   9  17
BRANCH   5  27
HETATM   27  O   UNK N   1      30.581  22.954  -1.464  0.00  0.00    -0.344 OA
HETATM   28  H   UNK N   1      29.976  22.716  -0.790  0.00  0.00     0.219 HD
ENDBRANCH   5  27
TORSDOF 4
ENDMDL
MODEL 3
REMARK VINA RESULT:      -7.0      3.891      8.231
REMARK  4 active torsions:
REMARK  status: ('A' for Active; 'I' for Inactive)
REMARK       I    between atoms: N_1  and  C_2 
REMARK    1  A    between atoms: C_5  and  O_6 
REMARK    2  A    between atoms: N_10  and  C_16 
REMARK    3  A    between atoms: C_20  and  C_22 
REMARK    4  A    between atoms: C_22  and  O_23 
ROOT
HETATM    1  N   UNK N   1      34.595  18.388   8.665  0.00  0.00    -0.234 N 
HETATM    2  C   UNK N   1      34.477  17.194   9.401  0.00  0.00     0.679 A 
HETATM    3  N   UNK N   1      33.474  16.300   9.098  0.00  0.00    -0.168 N 
ATOM      4  HN  UNK N   1      32.819  16.515   8.346  1.00  0.00     0.186 HD
HETATM    5  C   UNK N   1      33.341  15.127   9.789  0.00  0.00     0.187 A 
HETATM    6  C   UNK N   1      34.246  14.873  10.797  0.00  0.00     0.147 A 
HETATM    7  N   UNK N   1      34.376  13.821  11.620  0.00  0.00    -0.272 N 
ATOM      8  HN  UNK N   1      33.792  12.986  11.655  1.00  0.00     0.189 HD
HETATM    9  N   UNK N   1      35.429  14.103  12.384  0.00  0.00    -0.195 N 
HETATM   10  N   UNK N   1      35.965  15.285  12.078  0.00  0.00    -0.261 N 
ATOM     11  HN  UNK N   1      36.773  15.731  12.514  1.00  0.00     0.191 HD
HETATM   12  C   UNK N   1      35.217  15.761  11.080  0.00  0.00     0.170 A 
HETATM   13  N   UNK N   1      35.365  16.925  10.409  0.00  0.00    -0.173 N 
ATOM     14  HN  UNK N   1      36.111  17.580  10.644  1.00  0.00     0.186 HD
HETATM   15  H   UNK N   1      33.970  18.578   7.929  0.00  0.00     0.174 HD
HETATM   16  H   UNK N   1      35.304  19.035   8.887  0.00  0.00     0.174 HD
ENDROOT
BRANCH   9  17
HETATM   17  C   UNK N   1      35.954  13.236  13.391  0.00  0.00     0.076 A 
HETATM   18  C   UNK N   1      37.014  12.362  13.113  0.00  0.00     0.033 A 
HETATM   19  C   UNK N   1      37.521  11.540  14.126  0.00  0.00     0.003 A 
HETATM   20  C   UNK N   1      36.970  11.591  15.413  0.00  0.00     0.018 A 
HETATM   21  C   UNK N   1      35.909  12.466  15.688  0.00  0.00     0.040 A 
HETATM   22  C   UNK N   1      35.414  13.282  14.674  0.00  0.00     0.051 A 
BRANCH  21  23
HETATM   23  C   UNK N   1      35.306  12.541  17.030  0.00  0.00     0.176 C 
HETATM   24  O   UNK N   1      35.113  11.520  17.673  0.00  0.00    -0.646 OA
BRANCH  23  25
HETATM   25  O   UNK N   1      34.967  13.731  17.558  0.00  0.00    -0.773 OA
HETATM   26  H   UNK N   1      34.302  14.251  17.153  0.00  0.00     0.167 HD
ENDBRANCH  23  25
ENDBRANCH  21  23
ENDBRANCH   9  17
BRANCH   5  27
HETATM   27  O   UNK N   1      32.366  14.254   9.489  0.00  0.00    -0.344 OA
HETATM   28  H   UNK N   1      32.484  13.642   8.789  0.00  0.00     0.219 HD
ENDBRANCH   5  27
TORSDOF 4
ENDMDL
MODEL 4
REMARK VINA RESULT:      -6.6      5.275      8.649
REMARK  4 active torsions:
REMARK  status: ('A' for Active; 'I' for Inactive)
REMARK       I    between atoms: N_1  and  C_2 
REMARK    1  A    between atoms: C_5  and  O_6 
REMARK    2  A    between atoms: N_10  and  C_16 
REMARK    3  A    between atoms: C_20  and  C_22 
REMARK    4  A    between atoms: C_22  and  O_23 
ROOT
HETATM    1  N   UNK N   1      34.371  13.173   8.130  0.00  0.00    -0.234 N 
HETATM    2  C   UNK N   1      34.829  13.423   9.437  0.00  0.00     0.679 A 
HETATM    3  N   UNK N   1      35.656  14.496   9.680  0.00  0.00    -0.168 N 
ATOM      4  HN  UNK N   1      35.937  15.099   8.906  1.00  0.00     0.186 HD
HETATM    5  C   UNK N   1      36.108  14.769  10.941  0.00  0.00     0.187 A 
HETATM    6  C   UNK N   1      35.706  13.931  11.959  0.00  0.00     0.147 A 
HETATM    7  N   UNK N   1      35.967  13.954  13.275  0.00  0.00    -0.272 N 
ATOM      8  HN  UNK N   1      36.548  14.624  13.779  1.00  0.00     0.189 HD
HETATM    9  N   UNK N   1      35.307  12.914  13.782  0.00  0.00    -0.195 N 
HETATM   10  N   UNK N   1      34.645  12.239  12.841  0.00  0.00    -0.261 N 
ATOM     11  HN  UNK N   1      34.068  11.406  12.967  1.00  0.00     0.191 HD
HETATM   12  C   UNK N   1      34.899  12.884  11.701  0.00  0.00     0.170 A 
HETATM   13  N   UNK N   1      34.442  12.599  10.462  0.00  0.00    -0.173 N 
ATOM     14  HN  UNK N   1      33.832  11.799  10.294  1.00  0.00     0.186 HD
HETATM   15  H   UNK N   1      34.632  13.772   7.392  0.00  0.00     0.174 HD
HETATM   16  H   UNK N   1      33.789  12.399   7.951  0.00  0.00     0.174 HD
ENDROOT
BRANCH   9  17
HETATM   17  C   UNK N   1      35.276  12.572  15.168  0.00  0.00     0.076 A 
HETATM   18  C   UNK N   1      35.186  11.237  15.583  0.00  0.00     0.033 A 
HETATM   19  C   UNK N   1      35.178  10.931  16.948  0.00  0.00     0.003 A 
HETATM   20  C   UNK N   1      35.259  11.958  17.897  0.00  0.00     0.018 A 
HETATM   21  C   UNK N   1      35.347  13.294  17.480  0.00  0.00     0.040 A 
HETATM   22  C   UNK N   1      35.358  13.588  16.118  0.00  0.00     0.051 A 
BRANCH  21  23
HETATM   23  C   UNK N   1      35.431  14.397  18.452  0.00  0.00     0.176 C 
HETATM   24  O   UNK N   1      34.757  14.367  19.472  0.00  0.00    -0.646 OA
BRANCH  23  25
HETATM   25  O   UNK N   1      36.248  15.442  18.229  0.00  0.00    -0.773 OA
HETATM   26  H   UNK N   1      36.629  15.566  17.383  0.00  0.00     0.167 HD
ENDBRANCH  23  25
ENDBRANCH  21  23
ENDBRANCH   9  17
BRANCH   5  27
HETATM   27  O   UNK N   1      36.910  15.820  11.178  0.00  0.00    -0.344 OA
HETATM   28  H   UNK N   1      37.403  15.863  11.973  0.00  0.00     0.219 HD
ENDBRANCH   5  27
TORSDOF 4
ENDMDL
MODEL 5
REMARK VINA RESULT:      -6.5      1.938      2.238
REMARK  4 active torsions:
REMARK  status: ('A' for Active; 'I' for Inactive)
REMARK       I    between atoms: N_1  and  C_2 
REMARK    1  A    between atoms: C_5  and  O_6 
REMARK    2  A    between atoms: N_10  and  C_16 
REMARK    3  A    between atoms: C_20  and  C_22 
REMARK    4  A    between atoms: C_22  and  O_23 
ROOT
HETATM    1  N   UNK N   1      38.611  13.604  10.646  0.00  0.00    -0.234 N 
HETATM    2  C   UNK N   1      37.231  13.878  10.618  0.00  0.00     0.679 A 
HETATM    3  N   UNK N   1      36.447  13.561  11.705  0.00  0.00    -0.168 N 
ATOM      4  HN  UNK N   1      36.874  13.122  12.521  1.00  0.00     0.186 HD
HETATM    5  C   UNK N   1      35.106  13.826  11.709  0.00  0.00     0.187 A 
HETATM    6  C   UNK N   1      34.568  14.421  10.589  0.00  0.00     0.147 A 
HETATM    7  N   UNK N   1      33.313  14.809  10.312  0.00  0.00    -0.272 N 
ATOM      8  HN  UNK N   1      32.492  14.718  10.909  1.00  0.00     0.189 HD
HETATM    9  N   UNK N   1      33.370  15.336   9.091  0.00  0.00    -0.195 N 
HETATM   10  N   UNK N   1      34.605  15.294   8.588  0.00  0.00    -0.261 N 
ATOM     11  HN  UNK N   1      34.912  15.629   7.674  1.00  0.00     0.191 HD
HETATM   12  C   UNK N   1      35.350  14.720   9.534  0.00  0.00     0.170 A 
HETATM   13  N   UNK N   1      36.678  14.467   9.511  0.00  0.00    -0.173 N 
ATOM     14  HN  UNK N   1      37.247  14.704   8.698  1.00  0.00     0.186 HD
HETATM   15  H   UNK N   1      39.017  13.197  11.446  0.00  0.00     0.174 HD
HETATM   16  H   UNK N   1      39.172  13.818   9.866  0.00  0.00     0.174 HD
ENDROOT
BRANCH   9  17
HETATM   17  C   UNK N   1      32.258  15.911   8.405  0.00  0.00     0.076 A 
HETATM   18  C   UNK N   1      31.993  15.598   7.065  0.00  0.00     0.033 A 
HETATM   19  C   UNK N   1      30.884  16.162   6.424  0.00  0.00     0.003 A 
HETATM   20  C   UNK N   1      30.041  17.038   7.122  0.00  0.00     0.018 A 
HETATM   21  C   UNK N   1      30.309  17.351   8.463  0.00  0.00     0.040 A 
HETATM   22  C   UNK N   1      31.414  16.782   9.092  0.00  0.00     0.051 A 
BRANCH  21  23
HETATM   23  C   UNK N   1      29.445  18.270   9.223  0.00  0.00     0.176 C 
HETATM   24  O   UNK N   1      28.406  18.683   8.729  0.00  0.00    -0.646 OA
BRANCH  23  25
HETATM   25  O   UNK N   1      29.789  18.657  10.464  0.00  0.00    -0.773 OA
HETATM   26  H   UNK N   1      30.141  19.513  10.607  0.00  0.00     0.167 HD
ENDBRANCH  23  25
ENDBRANCH  21  23
ENDBRANCH   9  17
BRANCH   5  27
HETATM   27  O   UNK N   1      34.344  13.522  12.772  0.00  0.00    -0.344 OA
HETATM   28  H   UNK N   1      33.466  13.844  12.827  0.00  0.00     0.219 HD
ENDBRANCH   5  27
TORSDOF 4
ENDMDL
MODEL 6
REMARK VINA RESULT:      -6.5      2.166      2.713
REMARK  4 active torsions:
REMARK  status: ('A' for Active; 'I' for Inactive)
REMARK       I    between atoms: N_1  and  C_2 
REMARK    1  A    between atoms: C_5  and  O_6 
REMARK    2  A    between atoms: N_10  and  C_16 
REMARK    3  A    between atoms: C_20  and  C_22 
REMARK    4  A    between atoms: C_22  and  O_23 
ROOT
HETATM    1  N   UNK N   1      35.448  13.515  12.488  0.00  0.00    -0.234 N 
HETATM    2  C   UNK N   1      34.964  14.495  11.601  0.00  0.00     0.679 A 
HETATM    3  N   UNK N   1      35.674  15.660  11.413  0.00  0.00    -0.168 N 
ATOM      4  HN  UNK N   1      36.544  15.806  11.926  1.00  0.00     0.186 HD
HETATM    5  C   UNK N   1      35.233  16.624  10.550  0.00  0.00     0.187 A 
HETATM    6  C   UNK N   1      34.054  16.389   9.875  0.00  0.00     0.147 A 
HETATM    7  N   UNK N   1      33.393  17.126   8.970  0.00  0.00    -0.272 N 
ATOM      8  HN  UNK N   1      33.655  18.044   8.610  1.00  0.00     0.189 HD
HETATM    9  N   UNK N   1      32.323  16.406   8.645  0.00  0.00    -0.195 N 
HETATM   10  N   UNK N   1      32.282  15.248   9.306  0.00  0.00    -0.261 N 
ATOM     11  HN  UNK N   1      31.568  14.522   9.240  1.00  0.00     0.191 HD
HETATM   12  C   UNK N   1      33.372  15.245  10.076  0.00  0.00     0.170 A 
HETATM   13  N   UNK N   1      33.792  14.280  10.924  0.00  0.00    -0.173 N 
ATOM     14  HN  UNK N   1      33.255  13.422  11.057  1.00  0.00     0.186 HD
HETATM   15  H   UNK N   1      36.298  13.657  12.964  0.00  0.00     0.174 HD
HETATM   16  H   UNK N   1      34.936  12.686  12.633  0.00  0.00     0.174 HD
ENDROOT
BRANCH   9  17
HETATM   17  C   UNK N   1      31.347  16.796   7.679  0.00  0.00     0.076 A 
HETATM   18  C   UNK N   1      30.057  17.184   8.068  0.00  0.00     0.033 A 
HETATM   19  C   UNK N   1      29.128  17.582   7.100  0.00  0.00     0.003 A 
HETATM   20  C   UNK N   1      29.487  17.592   5.746  0.00  0.00     0.018 A 
HETATM   21  C   UNK N   1      30.777  17.202   5.358  0.00  0.00     0.040 A 
HETATM   22  C   UNK N   1      31.696  16.811   6.330  0.00  0.00     0.051 A 
BRANCH  21  23
HETATM   23  C   UNK N   1      31.185  17.198   3.943  0.00  0.00     0.176 C 
HETATM   24  O   UNK N   1      32.361  17.342   3.644  0.00  0.00    -0.646 OA
BRANCH  23  25
HETATM   25  O   UNK N   1      30.270  17.032   2.971  0.00  0.00    -0.773 OA
HETATM   26  H   UNK N   1      29.358  17.012   3.184  0.00  0.00     0.167 HD
ENDBRANCH  23  25
ENDBRANCH  21  23
ENDBRANCH   9  17
BRANCH   5  27
HETATM   27  O   UNK N   1      35.930  17.757  10.363  0.00  0.00    -0.344 OA
HETATM   28  H   UNK N   1      35.909  18.432  11.012  0.00  0.00     0.219 HD
ENDBRANCH   5  27
TORSDOF 4
ENDMDL
MODEL 7
REMARK VINA RESULT:      -6.5      6.399     10.396
REMARK  4 active torsions:
REMARK  status: ('A' for Active; 'I' for Inactive)
REMARK       I    between atoms: N_1  and  C_2 
REMARK    1  A    between atoms: C_5  and  O_6 
REMARK    2  A    between atoms: N_10  and  C_16 
REMARK    3  A    between atoms: C_20  and  C_22 
REMARK    4  A    between atoms: C_22  and  O_23 
ROOT
HETATM    1  N   UNK N   1      36.894  15.276  10.852  0.00  0.00    -0.234 N 
HETATM    2  C   UNK N   1      36.328  14.429  11.824  0.00  0.00     0.679 A 
HETATM    3  N   UNK N   1      35.518  13.386  11.435  0.00  0.00    -0.168 N 
ATOM      4  HN  UNK N   1      35.328  13.240  10.443  1.00  0.00     0.186 HD
HETATM    5  C   UNK N   1      34.963  12.541  12.356  0.00  0.00     0.187 A 
HETATM    6  C   UNK N   1      35.244  12.771  13.685  0.00  0.00     0.147 A 
HETATM    7  N   UNK N   1      34.866  12.115  14.793  0.00  0.00    -0.272 N 
ATOM      8  HN  UNK N   1      34.264  11.294  14.851  1.00  0.00     0.189 HD
HETATM    9  N   UNK N   1      35.442  12.766  15.800  0.00  0.00    -0.195 N 
HETATM   10  N   UNK N   1      36.165  13.803  15.374  0.00  0.00    -0.261 N 
ATOM     11  HN  UNK N   1      36.700  14.461  15.943  1.00  0.00     0.191 HD
HETATM   12  C   UNK N   1      36.036  13.799  14.046  0.00  0.00     0.170 A 
HETATM   13  N   UNK N   1      36.594  14.644  13.151  0.00  0.00    -0.173 N 
ATOM     14  HN  UNK N   1      37.191  15.415  13.452  1.00  0.00     0.186 HD
HETATM   15  H   UNK N   1      36.720  15.116   9.896  0.00  0.00     0.174 HD
HETATM   16  H   UNK N   1      37.465  16.030  11.128  0.00  0.00     0.174 HD
ENDROOT
BRANCH   9  17
HETATM   17  C   UNK N   1      35.337  12.390  17.174  0.00  0.00     0.076 A 
HETATM   18  C   UNK N   1      35.275  13.356  18.187  0.00  0.00     0.033 A 
HETATM   19  C   UNK N   1      35.151  12.957  19.523  0.00  0.00     0.003 A 
HETATM   20  C   UNK N   1      35.091  11.595  19.845  0.00  0.00     0.018 A 
HETATM   21  C   UNK N   1      35.155  10.630  18.830  0.00  0.00     0.040 A 
HETATM   22  C   UNK N   1      35.275  11.037  17.503  0.00  0.00     0.051 A 
BRANCH  21  23
HETATM   23  C   UNK N   1      35.097   9.190  19.136  0.00  0.00     0.176 C 
HETATM   24  O   UNK N   1      36.101   8.604  19.516  0.00  0.00    -0.646 OA
BRANCH  23  25
HETATM   25  O   UNK N   1      33.943   8.512  19.004  0.00  0.00    -0.773 OA
HETATM   26  H   UNK N   1      33.833   7.687  19.434  0.00  0.00     0.167 HD
ENDBRANCH  23  25
ENDBRANCH  21  23
ENDBRANCH   9  17
BRANCH   5  27
HETATM   27  O   UNK N   1      34.177  11.521  11.974  0.00  0.00    -0.344 OA
HETATM   28  H   UNK N   1      34.156  11.257  11.076  0.00  0.00     0.219 HD
ENDBRANCH   5  27
TORSDOF 4
ENDMDL
MODEL 8
REMARK VINA RESULT:      -6.4      2.318      3.281
REMARK  4 active torsions:
REMARK  status: ('A' for Active; 'I' for Inactive)
REMARK       I    between atoms: N_1  and  C_2 
REMARK    1  A    between atoms: C_5  and  O_6 
REMARK    2  A    between atoms: N_10  and  C_16 
REMARK    3  A    between atoms: C_20  and  C_22 
REMARK    4  A    between atoms: C_22  and  O_23 
ROOT
HETATM    1  N   UNK N   1      37.228  14.280  15.085  0.00  0.00    -0.234 N 
HETATM    2  C   UNK N   1      36.434  14.209  13.925  0.00  0.00     0.679 A 
HETATM    3  N   UNK N   1      35.732  13.058  13.646  0.00  0.00    -0.168 N 
ATOM      4  HN  UNK N   1      35.799  12.262  14.281  1.00  0.00     0.186 HD
HETATM    5  C   UNK N   1      34.945  12.963  12.531  0.00  0.00     0.187 A 
HETATM    6  C   UNK N   1      34.880  14.061  11.700  0.00  0.00     0.147 A 
HETATM    7  N   UNK N   1      34.194  14.268  10.565  0.00  0.00    -0.272 N 
ATOM      8  HN  UNK N   1      33.575  13.613  10.088  1.00  0.00     0.189 HD
HETATM    9  N   UNK N   1      34.496  15.511  10.195  0.00  0.00    -0.195 N 
HETATM   10  N   UNK N   1      35.342  16.092  11.046  0.00  0.00    -0.261 N 
ATOM     11  HN  UNK N   1      35.729  17.035  10.989  1.00  0.00     0.191 HD
HETATM   12  C   UNK N   1      35.578  15.176  11.988  0.00  0.00     0.170 A 
HETATM   13  N   UNK N   1      36.360  15.289  13.084  0.00  0.00    -0.173 N 
ATOM     14  HN  UNK N   1      36.878  16.146  13.279  1.00  0.00     0.186 HD
HETATM   15  H   UNK N   1      37.271  13.513  15.702  0.00  0.00     0.174 HD
HETATM   16  H   UNK N   1      37.741  15.098  15.281  0.00  0.00     0.174 HD
ENDROOT
BRANCH   9  17
HETATM   17  C   UNK N   1      33.958  16.167   9.047  0.00  0.00     0.076 A 
HETATM   18  C   UNK N   1      34.749  16.414   7.917  0.00  0.00     0.033 A 
HETATM   19  C   UNK N   1      34.188  17.041   6.798  0.00  0.00     0.003 A 
HETATM   20  C   UNK N   1      32.839  17.421   6.809  0.00  0.00     0.018 A 
HETATM   21  C   UNK N   1      32.050  17.173   7.942  0.00  0.00     0.040 A 
HETATM   22  C   UNK N   1      32.617  16.546   9.049  0.00  0.00     0.051 A 
BRANCH  21  23
HETATM   23  C   UNK N   1      30.630  17.562   7.987  0.00  0.00     0.176 C 
HETATM   24  O   UNK N   1      29.846  17.115   7.163  0.00  0.00    -0.646 OA
BRANCH  23  25
HETATM   25  O   UNK N   1      30.185  18.408   8.934  0.00  0.00    -0.773 OA
HETATM   26  H   UNK N   1      29.471  18.159   9.486  0.00  0.00     0.167 HD
ENDBRANCH  23  25
ENDBRANCH  21  23
ENDBRANCH   9  17
BRANCH   5  27
HETATM   27  O   UNK N   1      34.255  11.843  12.263  0.00  0.00    -0.344 OA
HETATM   28  H   UNK N   1      33.914  11.697  11.404  0.00  0.00     0.219 HD
ENDBRANCH   5  27
TORSDOF 4
ENDMDL
MODEL 9
REMARK VINA RESULT:      -6.4      3.026      7.195
REMARK  4 active torsions:
REMARK  status: ('A' for Active; 'I' for Inactive)
REMARK       I    between atoms: N_1  and  C_2 
REMARK    1  A    between atoms: C_5  and  O_6 
REMARK    2  A    between atoms: N_10  and  C_16 
REMARK    3  A    between atoms: C_20  and  C_22 
REMARK    4  A    between atoms: C_22  and  O_23 
ROOT
HETATM    1  N   UNK N   1      30.123  17.665   7.834  0.00  0.00    -0.234 N 
HETATM    2  C   UNK N   1      31.427  17.320   8.236  0.00  0.00     0.679 A 
HETATM    3  N   UNK N   1      32.498  18.063   7.793  0.00  0.00    -0.168 N 
ATOM      4  HN  UNK N   1      32.338  18.855   7.171  1.00  0.00     0.186 HD
HETATM    5  C   UNK N   1      33.775  17.757   8.175  0.00  0.00     0.187 A 
HETATM    6  C   UNK N   1      33.951  16.680   9.017  0.00  0.00     0.147 A 
HETATM    7  N   UNK N   1      35.060  16.159   9.564  0.00  0.00    -0.272 N 
ATOM      8  HN  UNK N   1      36.020  16.478   9.439  1.00  0.00     0.189 HD
HETATM    9  N   UNK N   1      34.639  15.135  10.304  0.00  0.00    -0.195 N 
HETATM   10  N   UNK N   1      33.314  14.990  10.244  0.00  0.00    -0.261 N 
ATOM     11  HN  UNK N   1      32.747  14.283  10.714  1.00  0.00     0.191 HD
HETATM   12  C   UNK N   1      32.890  15.963   9.435  0.00  0.00     0.170 A 
HETATM   13  N   UNK N   1      31.621  16.250   9.070  0.00  0.00    -0.173 N 
ATOM     14  HN  UNK N   1      30.835  15.690   9.402  1.00  0.00     0.186 HD
HETATM   15  H   UNK N   1      29.976  18.443   7.248  0.00  0.00     0.174 HD
HETATM   16  H   UNK N   1      29.355  17.128   8.139  0.00  0.00     0.174 HD
ENDROOT
BRANCH   9  17
HETATM   17  C   UNK N   1      35.488  14.307  11.098  0.00  0.00     0.076 A 
HETATM   18  C   UNK N   1      36.619  13.690  10.547  0.00  0.00     0.033 A 
HETATM   19  C   UNK N   1      37.444  12.899  11.356  0.00  0.00     0.003 A 
HETATM   20  C   UNK N   1      37.139  12.726  12.712  0.00  0.00     0.018 A 
HETATM   21  C   UNK N   1      36.006  13.344  13.261  0.00  0.00     0.040 A 
HETATM   22  C   UNK N   1      35.193  14.131  12.448  0.00  0.00     0.051 A 
BRANCH  21  23
HETATM   23  C   UNK N   1      35.656  13.179  14.682  0.00  0.00     0.176 C 
HETATM   24  O   UNK N   1      34.484  13.070  15.015  0.00  0.00    -0.646 OA
BRANCH  23  25
HETATM   25  O   UNK N   1      36.618  13.145  15.621  0.00  0.00    -0.773 OA
HETATM   26  H   UNK N   1      37.518  13.221  15.373  0.00  0.00     0.167 HD
ENDBRANCH  23  25
ENDBRANCH  21  23
ENDBRANCH   9  17
BRANCH   5  27
HETATM   27  O   UNK N   1      34.819  18.486   7.748  0.00  0.00    -0.344 OA
HETATM   28  H   UNK N   1      35.251  18.262   6.948  0.00  0.00     0.219 HD
ENDBRANCH   5  27
TORSDOF 4
ENDMDL
