REMARK  2 active torsions:
REMARK  status: ('A' for Active; 'I' for Inactive)
REMARK    1  A    between atoms: C_1  and  C_7 
REMARK    2  A    between atoms: C_7  and  N_9 
ROOT
HETATM    1  C   UNK N   1       0.762   0.221   0.000  0.00  0.00     0.009 A 
HETATM    2  C   UNK N   1       0.793  -1.201   0.000  0.00  0.00     0.017 A 
HETATM    3  C   UNK N   1      -0.405  -1.945   0.000  0.00  0.00     0.033 A 
HETATM    4  C   UNK N   1      -1.599  -1.232   0.000  0.00  0.00     0.060 A 
HETATM    5  C   UNK N   1      -1.633   0.122  -0.000  0.00  0.00     0.060 A 
HETATM    6  C   UNK N   1      -0.479   0.893   0.000  0.00  0.00     0.047 A 
HETATM    7  C   UNK N   1      -3.636  -0.600  -0.000  0.00  0.00     0.181 A 
HETATM    8  N   UNK N   1      -2.851  -1.710  -0.000  0.00  0.00    -0.351 N 
ATOM      9  HN  UNK N   1      -3.148  -2.686  -0.000  1.00  0.00     0.166 HD
HETATM   10  N   UNK N   1      -2.903   0.545  -0.000  0.00  0.00    -0.350 N 
HETATM   11  H   UNK N   1      -3.231   1.473  -0.000  0.00  0.00     0.166 HD
ENDROOT
BRANCH   1  12
HETATM   12  C   UNK N   1       2.011   1.009   0.000  0.00  0.00     0.102 C 
HETATM   13  N   UNK N   1       3.152   0.423  -0.000  0.00  0.00    -0.385 N 
HETATM   14  H   UNK N   1       3.200  -0.560  -0.000  0.00  0.00     0.157 HD
HETATM   15  H   UNK N   1       3.979   0.957  -0.000  0.00  0.00     0.157 HD
BRANCH  12  16
HETATM   16  N   UNK N   1       1.956   2.422   0.000  0.00  0.00    -0.385 N 
HETATM   17  H   UNK N   1       2.789   2.947   0.000  0.00  0.00     0.157 HD
HETATM   18  H   UNK N   1       1.085   2.881   0.000  0.00  0.00     0.157 HD
ENDBRANCH  12  16
ENDBRANCH   1  12
TORSDOF 2
