MODEL 1
REMARK VINA RESULT:      -5.0      0.000      0.000
REMARK  2 active torsions:
REMARK  status: ('A' for Active; 'I' for Inactive)
REMARK    1  A    between atoms: C_1  and  C_7 
REMARK    2  A    between atoms: C_7  and  N_9 
ROOT
HETATM    1  C   UNK N   1      26.193  27.929  -4.004  0.00  0.00     0.009 A 
HETATM    2  C   UNK N   1      25.196  28.012  -5.015  0.00  0.00     0.017 A 
HETATM    3  C   UNK N   1      24.818  26.867  -5.746  0.00  0.00     0.033 A 
HETATM    4  C   UNK N   1      25.458  25.672  -5.436  0.00  0.00     0.060 A 
HETATM    5  C   UNK N   1      26.408  25.589  -4.474  0.00  0.00     0.060 A 
HETATM    6  C   UNK N   1      26.809  26.689  -3.731  0.00  0.00     0.047 A 
HETATM    7  C   UNK N   1      26.141  23.655  -5.325  0.00  0.00     0.181 A 
HETATM    8  N   UNK N   1      25.272  24.465  -5.987  0.00  0.00    -0.351 N 
ATOM      9  HN  UNK N   1      24.626  24.210  -6.734  1.00  0.00     0.166 HD
HETATM   10  N   UNK N   1      26.854  24.330  -4.384  0.00  0.00    -0.350 N 
HETATM   11  H   UNK N   1      27.541  23.974  -3.776  0.00  0.00     0.166 HD
ENDROOT
BRANCH   1  12
HETATM   12  C   UNK N   1      26.595  29.122  -3.232  0.00  0.00     0.102 C 
HETATM   13  N   UNK N   1      27.368  29.011  -2.214  0.00  0.00    -0.385 N 
HETATM   14  H   UNK N   1      27.697  28.125  -1.942  0.00  0.00     0.157 HD
HETATM   15  H   UNK N   1      27.630  29.812  -1.706  0.00  0.00     0.157 HD
BRANCH  12  16
HETATM   16  N   UNK N   1      26.129  30.402  -3.613  0.00  0.00    -0.385 N 
HETATM   17  H   UNK N   1      25.934  30.593  -4.559  0.00  0.00     0.157 HD
HETATM   18  H   UNK N   1      25.998  31.101  -2.933  0.00  0.00     0.157 HD
ENDBRANCH  12  16
ENDBRANCH   1  12
TORSDOF 2
ENDMDL
MODEL 2
REMARK VINA RESULT:      -4.9     15.428     16.388
REMARK  2 active torsions:
REMARK  status: ('A' for Active; 'I' for Inactive)
REMARK    1  A    between atoms: C_1  and  C_7 
REMARK    2  A    between atoms: C_7  and  N_9 
ROOT
HETATM    1  C   UNK N   1      29.648  17.494   7.728  0.00  0.00     0.009 A 
HETATM    2  C   UNK N   1      30.012  17.156   6.395  0.00  0.00     0.017 A 
HETATM    3  C   UNK N   1      31.368  17.096   6.015  0.00  0.00     0.033 A 
HETATM    4  C   UNK N   1      32.318  17.379   6.991  0.00  0.00     0.060 A 
HETATM    5  C   UNK N   1      31.976  17.701   8.261  0.00  0.00     0.060 A 
HETATM    6  C   UNK N   1      30.654  17.771   8.678  0.00  0.00     0.047 A 
HETATM    7  C   UNK N   1      34.100  17.724   8.111  0.00  0.00     0.181 A 
HETATM    8  N   UNK N   1      33.653  17.387   6.872  0.00  0.00    -0.351 N 
ATOM      9  HN  UNK N   1      34.208  17.186   6.041  1.00  0.00     0.166 HD
HETATM   10  N   UNK N   1      33.079  17.923   8.987  0.00  0.00    -0.350 N 
HETATM   11  H   UNK N   1      33.137  18.172   9.937  0.00  0.00     0.166 HD
ENDROOT
BRANCH   1  12
HETATM   12  C   UNK N   1      28.230  17.559   8.136  0.00  0.00     0.102 C 
HETATM   13  N   UNK N   1      27.353  16.816   7.568  0.00  0.00    -0.385 N 
HETATM   14  H   UNK N   1      27.623  16.195   6.853  0.00  0.00     0.157 HD
HETATM   15  H   UNK N   1      26.410  16.866   7.847  0.00  0.00     0.157 HD
BRANCH  12  16
HETATM   16  N   UNK N   1      27.829  18.447   9.161  0.00  0.00    -0.385 N 
HETATM   17  H   UNK N   1      27.050  19.033   9.028  0.00  0.00     0.157 HD
HETATM   18  H   UNK N   1      28.329  18.478  10.009  0.00  0.00     0.157 HD
ENDBRANCH  12  16
ENDBRANCH   1  12
TORSDOF 2
ENDMDL
MODEL 3
REMARK VINA RESULT:      -4.8     14.393     15.683
REMARK  2 active torsions:
REMARK  status: ('A' for Active; 'I' for Inactive)
REMARK    1  A    between atoms: C_1  and  C_7 
REMARK    2  A    between atoms: C_7  and  N_9 
ROOT
HETATM    1  C   UNK N   1      32.950  17.500   7.060  0.00  0.00     0.009 A 
HETATM    2  C   UNK N   1      33.618  17.580   5.807  0.00  0.00     0.017 A 
HETATM    3  C   UNK N   1      32.896  17.461   4.601  0.00  0.00     0.033 A 
HETATM    4  C   UNK N   1      31.523  17.265   4.695  0.00  0.00     0.060 A 
HETATM    5  C   UNK N   1      30.883  17.188   5.887  0.00  0.00     0.060 A 
HETATM    6  C   UNK N   1      31.553  17.300   7.097  0.00  0.00     0.047 A 
HETATM    7  C   UNK N   1      29.443  16.962   4.335  0.00  0.00     0.181 A 
HETATM    8  N   UNK N   1      30.634  17.125   3.702  0.00  0.00    -0.351 N 
ATOM      9  HN  UNK N   1      30.812  17.137   2.697  1.00  0.00     0.166 HD
HETATM   10  N   UNK N   1      29.573  16.998   5.688  0.00  0.00    -0.350 N 
HETATM   11  H   UNK N   1      28.866  16.905   6.367  0.00  0.00     0.166 HD
ENDROOT
BRANCH   1  12
HETATM   12  C   UNK N   1      33.696  17.623   8.329  0.00  0.00     0.102 C 
HETATM   13  N   UNK N   1      33.412  16.871   9.328  0.00  0.00    -0.385 N 
HETATM   14  H   UNK N   1      32.692  16.205   9.254  0.00  0.00     0.157 HD
HETATM   15  H   UNK N   1      33.915  16.961  10.170  0.00  0.00     0.157 HD
BRANCH  12  16
HETATM   16  N   UNK N   1      34.734  18.577   8.449  0.00  0.00    -0.385 N 
HETATM   17  H   UNK N   1      35.671  18.280   8.502  0.00  0.00     0.157 HD
HETATM   18  H   UNK N   1      34.519  19.537   8.481  0.00  0.00     0.157 HD
ENDBRANCH  12  16
ENDBRANCH   1  12
TORSDOF 2
ENDMDL
MODEL 4
REMARK VINA RESULT:      -4.7     15.284     16.021
REMARK  2 active torsions:
REMARK  status: ('A' for Active; 'I' for Inactive)
REMARK    1  A    between atoms: C_1  and  C_7 
REMARK    2  A    between atoms: C_7  and  N_9 
ROOT
HETATM    1  C   UNK N   1      29.653  17.588   7.845  0.00  0.00     0.009 A 
HETATM    2  C   UNK N   1      30.648  17.962   8.789  0.00  0.00     0.017 A 
HETATM    3  C   UNK N   1      32.015  17.927   8.444  0.00  0.00     0.033 A 
HETATM    4  C   UNK N   1      32.337  17.516   7.155  0.00  0.00     0.060 A 
HETATM    5  C   UNK N   1      31.392  17.159   6.252  0.00  0.00     0.060 A 
HETATM    6  C   UNK N   1      30.037  17.178   6.550  0.00  0.00     0.047 A 
HETATM    7  C   UNK N   1      33.304  16.967   5.335  0.00  0.00     0.181 A 
HETATM    8  N   UNK N   1      33.551  17.403   6.599  0.00  0.00    -0.351 N 
ATOM      9  HN  UNK N   1      34.456  17.599   7.027  1.00  0.00     0.166 HD
HETATM   10  N   UNK N   1      31.974  16.809   5.099  0.00  0.00    -0.350 N 
HETATM   11  H   UNK N   1      31.539  16.507   4.269  0.00  0.00     0.166 HD
ENDROOT
BRANCH   1  12
HETATM   12  C   UNK N   1      28.219  17.620   8.197  0.00  0.00     0.102 C 
HETATM   13  N   UNK N   1      27.792  18.399   9.123  0.00  0.00    -0.385 N 
HETATM   14  H   UNK N   1      28.423  18.981   9.605  0.00  0.00     0.157 HD
HETATM   15  H   UNK N   1      26.835  18.414   9.351  0.00  0.00     0.157 HD
BRANCH  12  16
HETATM   16  N   UNK N   1      27.303  16.789   7.512  0.00  0.00    -0.385 N 
HETATM   17  H   UNK N   1      26.494  17.177   7.106  0.00  0.00     0.157 HD
HETATM   18  H   UNK N   1      27.473  15.822   7.441  0.00  0.00     0.157 HD
ENDBRANCH  12  16
ENDBRANCH   1  12
TORSDOF 2
ENDMDL
MODEL 5
REMARK VINA RESULT:      -4.7     17.975     19.480
REMARK  2 active torsions:
REMARK  status: ('A' for Active; 'I' for Inactive)
REMARK    1  A    between atoms: C_1  and  C_7 
REMARK    2  A    between atoms: C_7  and  N_9 
ROOT
HETATM    1  C   UNK N   1      21.537  13.170   9.921  0.00  0.00     0.009 A 
HETATM    2  C   UNK N   1      20.392  14.012   9.867  0.00  0.00     0.017 A 
HETATM    3  C   UNK N   1      20.292  15.025   8.890  0.00  0.00     0.033 A 
HETATM    4  C   UNK N   1      21.350  15.158   7.998  0.00  0.00     0.060 A 
HETATM    5  C   UNK N   1      22.442  14.358   8.046  0.00  0.00     0.060 A 
HETATM    6  C   UNK N   1      22.582  13.350   8.989  0.00  0.00     0.047 A 
HETATM    7  C   UNK N   1      22.690  15.737   6.442  0.00  0.00     0.181 A 
HETATM    8  N   UNK N   1      21.484  16.036   6.994  0.00  0.00    -0.351 N 
ATOM      9  HN  UNK N   1      20.829  16.764   6.708  1.00  0.00     0.166 HD
HETATM   10  N   UNK N   1      23.300  14.702   7.078  0.00  0.00    -0.350 N 
HETATM   11  H   UNK N   1      24.174  14.297   6.873  0.00  0.00     0.166 HD
ENDROOT
BRANCH   1  12
HETATM   12  C   UNK N   1      21.652  12.107  10.940  0.00  0.00     0.102 C 
HETATM   13  N   UNK N   1      20.709  11.912  11.788  0.00  0.00    -0.385 N 
HETATM   14  H   UNK N   1      19.901  12.473  11.763  0.00  0.00     0.157 HD
HETATM   15  H   UNK N   1      20.795  11.201  12.463  0.00  0.00     0.157 HD
BRANCH  12  16
HETATM   16  N   UNK N   1      22.807  11.293  10.986  0.00  0.00    -0.385 N 
HETATM   17  H   UNK N   1      22.771  10.367  10.654  0.00  0.00     0.157 HD
HETATM   18  H   UNK N   1      23.648  11.653  11.351  0.00  0.00     0.157 HD
ENDBRANCH  12  16
ENDBRANCH   1  12
TORSDOF 2
ENDMDL
MODEL 6
REMARK VINA RESULT:      -4.7     24.754     25.891
REMARK  2 active torsions:
REMARK  status: ('A' for Active; 'I' for Inactive)
REMARK    1  A    between atoms: C_1  and  C_7 
REMARK    2  A    between atoms: C_7  and  N_9 
ROOT
HETATM    1  C   UNK N   1      35.263  12.968  16.402  0.00  0.00     0.009 A 
HETATM    2  C   UNK N   1      34.388  12.030  15.786  0.00  0.00     0.017 A 
HETATM    3  C   UNK N   1      34.372  11.877  14.385  0.00  0.00     0.033 A 
HETATM    4  C   UNK N   1      35.239  12.675  13.645  0.00  0.00     0.060 A 
HETATM    5  C   UNK N   1      36.073  13.569  14.228  0.00  0.00     0.060 A 
HETATM    6  C   UNK N   1      36.122  13.752  15.603  0.00  0.00     0.047 A 
HETATM    7  C   UNK N   1      36.363  13.654  12.120  0.00  0.00     0.181 A 
HETATM    8  N   UNK N   1      35.404  12.710  12.316  0.00  0.00    -0.351 N 
ATOM      9  HN  UNK N   1      34.919  12.155  11.610  1.00  0.00     0.166 HD
HETATM   10  N   UNK N   1      36.792  14.198  13.290  0.00  0.00    -0.350 N 
HETATM   11  H   UNK N   1      37.474  14.896  13.418  0.00  0.00     0.166 HD
ENDROOT
BRANCH   1  12
HETATM   12  C   UNK N   1      35.287  13.136  17.869  0.00  0.00     0.102 C 
HETATM   13  N   UNK N   1      35.223  12.115  18.644  0.00  0.00    -0.385 N 
HETATM   14  H   UNK N   1      35.156  11.211  18.261  0.00  0.00     0.157 HD
HETATM   15  H   UNK N   1      35.240  12.237  19.620  0.00  0.00     0.157 HD
BRANCH  12  16
HETATM   16  N   UNK N   1      35.383  14.429  18.432  0.00  0.00    -0.385 N 
HETATM   17  H   UNK N   1      36.214  14.948  18.334  0.00  0.00     0.157 HD
HETATM   18  H   UNK N   1      34.619  14.811  18.921  0.00  0.00     0.157 HD
ENDBRANCH  12  16
ENDBRANCH   1  12
TORSDOF 2
ENDMDL
MODEL 7
REMARK VINA RESULT:      -4.7     18.084     19.613
REMARK  2 active torsions:
REMARK  status: ('A' for Active; 'I' for Inactive)
REMARK    1  A    between atoms: C_1  and  C_7 
REMARK    2  A    between atoms: C_7  and  N_9 
ROOT
HETATM    1  C   UNK N   1      21.647  13.158   9.800  0.00  0.00     0.009 A 
HETATM    2  C   UNK N   1      22.616  13.180   8.760  0.00  0.00     0.017 A 
HETATM    3  C   UNK N   1      22.580  14.180   7.766  0.00  0.00     0.033 A 
HETATM    4  C   UNK N   1      21.566  15.128   7.851  0.00  0.00     0.060 A 
HETATM    5  C   UNK N   1      20.641  15.111   8.840  0.00  0.00     0.060 A 
HETATM    6  C   UNK N   1      20.639  14.146   9.838  0.00  0.00     0.047 A 
HETATM    7  C   UNK N   1      20.229  16.764   7.564  0.00  0.00     0.181 A 
HETATM    8  N   UNK N   1      21.327  16.162   7.033  0.00  0.00    -0.351 N 
ATOM      9  HN  UNK N   1      21.850  16.436   6.201  1.00  0.00     0.166 HD
HETATM   10  N   UNK N   1      19.788  16.130   8.682  0.00  0.00    -0.350 N 
HETATM   11  H   UNK N   1      19.017  16.366   9.247  0.00  0.00     0.166 HD
ENDROOT
BRANCH   1  12
HETATM   12  C   UNK N   1      21.676  12.116  10.846  0.00  0.00     0.102 C 
HETATM   13  N   UNK N   1      20.706  11.997  11.676  0.00  0.00    -0.385 N 
HETATM   14  H   UNK N   1      19.933  12.603  11.619  0.00  0.00     0.157 HD
HETATM   15  H   UNK N   1      20.735  11.299  12.369  0.00  0.00     0.157 HD
BRANCH  12  16
HETATM   16  N   UNK N   1      22.781  11.238  10.939  0.00  0.00    -0.385 N 
HETATM   17  H   UNK N   1      23.228  10.921  10.121  0.00  0.00     0.157 HD
HETATM   18  H   UNK N   1      23.104  10.944  11.821  0.00  0.00     0.157 HD
ENDBRANCH  12  16
ENDBRANCH   1  12
TORSDOF 2
ENDMDL
MODEL 8
REMARK VINA RESULT:      -4.6      1.766      5.023
REMARK  2 active torsions:
REMARK  status: ('A' for Active; 'I' for Inactive)
REMARK    1  A    between atoms: C_1  and  C_7 
REMARK    2  A    between atoms: C_7  and  N_9 
ROOT
HETATM    1  C   UNK N   1      25.982  24.429  -5.711  0.00  0.00     0.009 A 
HETATM    2  C   UNK N   1      26.577  24.064  -4.471  0.00  0.00     0.017 A 
HETATM    3  C   UNK N   1      26.736  25.017  -3.444  0.00  0.00     0.033 A 
HETATM    4  C   UNK N   1      26.290  26.309  -3.697  0.00  0.00     0.060 A 
HETATM    5  C   UNK N   1      25.723  26.661  -4.875  0.00  0.00     0.060 A 
HETATM    6  C   UNK N   1      25.547  25.757  -5.913  0.00  0.00     0.047 A 
HETATM    7  C   UNK N   1      25.772  28.377  -3.615  0.00  0.00     0.181 A 
HETATM    8  N   UNK N   1      26.332  27.375  -2.885  0.00  0.00    -0.351 N 
ATOM      9  HN  UNK N   1      26.700  27.425  -1.935  1.00  0.00     0.166 HD
HETATM   10  N   UNK N   1      25.388  27.957  -4.850  0.00  0.00    -0.350 N 
HETATM   11  H   UNK N   1      24.961  28.485  -5.562  0.00  0.00     0.166 HD
ENDROOT
BRANCH   1  12
HETATM   12  C   UNK N   1      25.812  23.439  -6.793  0.00  0.00     0.102 C 
HETATM   13  N   UNK N   1      26.387  23.607  -7.927  0.00  0.00    -0.385 N 
HETATM   14  H   UNK N   1      26.949  24.400  -8.081  0.00  0.00     0.157 HD
HETATM   15  H   UNK N   1      26.267  22.941  -8.642  0.00  0.00     0.157 HD
BRANCH  12  16
HETATM   16  N   UNK N   1      25.008  22.295  -6.585  0.00  0.00    -0.385 N 
HETATM   17  H   UNK N   1      24.087  22.269  -6.934  0.00  0.00     0.157 HD
HETATM   18  H   UNK N   1      25.368  21.523  -6.090  0.00  0.00     0.157 HD
ENDBRANCH  12  16
ENDBRANCH   1  12
TORSDOF 2
ENDMDL
MODEL 9
REMARK VINA RESULT:      -4.6     13.755     14.932
REMARK  2 active torsions:
REMARK  status: ('A' for Active; 'I' for Inactive)
REMARK    1  A    between atoms: C_1  and  C_7 
REMARK    2  A    between atoms: C_7  and  N_9 
ROOT
HETATM    1  C   UNK N   1      29.224  18.006   7.504  0.00  0.00     0.009 A 
HETATM    2  C   UNK N   1      28.392  18.428   6.430  0.00  0.00     0.017 A 
HETATM    3  C   UNK N   1      28.771  18.191   5.093  0.00  0.00     0.033 A 
HETATM    4  C   UNK N   1      29.978  17.534   4.879  0.00  0.00     0.060 A 
HETATM    5  C   UNK N   1      30.773  17.130   5.898  0.00  0.00     0.060 A 
HETATM    6  C   UNK N   1      30.439  17.343   7.229  0.00  0.00     0.047 A 
HETATM    7  C   UNK N   1      31.704  16.582   4.064  0.00  0.00     0.181 A 
HETATM    8  N   UNK N   1      30.545  17.199   3.711  0.00  0.00    -0.351 N 
ATOM      9  HN  UNK N   1      30.188  17.369   2.771  1.00  0.00     0.166 HD
HETATM   10  N   UNK N   1      31.865  16.528   5.413  0.00  0.00    -0.350 N 
HETATM   11  H   UNK N   1      32.614  16.136   5.917  0.00  0.00     0.166 HD
ENDROOT
BRANCH   1  12
HETATM   12  C   UNK N   1      28.835  18.250   8.908  0.00  0.00     0.102 C 
HETATM   13  N   UNK N   1      27.599  18.346   9.235  0.00  0.00    -0.385 N 
HETATM   14  H   UNK N   1      26.900  18.258   8.548  0.00  0.00     0.157 HD
HETATM   15  H   UNK N   1      27.350  18.509  10.174  0.00  0.00     0.157 HD
BRANCH  12  16
HETATM   16  N   UNK N   1      29.830  18.379   9.905  0.00  0.00    -0.385 N 
HETATM   17  H   UNK N   1      29.700  17.960  10.786  0.00  0.00     0.157 HD
HETATM   18  H   UNK N   1      30.652  18.888   9.718  0.00  0.00     0.157 HD
ENDBRANCH  12  16
ENDBRANCH   1  12
TORSDOF 2
ENDMDL
