MODEL 1
REMARK VINA RESULT:      -5.4      0.000      0.000
REMARK  8 active torsions:
REMARK  status: ('A' for Active; 'I' for Inactive)
REMARK    1  A    between atoms: C_1  and  C_18 
REMARK    2  A    between atoms: C_2  and  C_13 
REMARK    3  A    between atoms: C_4  and  C_6 
REMARK    4  A    between atoms: C_6  and  O_7 
REMARK       I    between atoms: N_9  and  C_10 
REMARK    5  A    between atoms: C_13  and  N_9 
REMARK    6  A    between atoms: C_13  and  C_14 
REMARK    7  A    between atoms: C_14  and  C_15 
REMARK    8  A    between atoms: C_18  and  O_20 
ROOT
HETATM    1  C   UNK N   1      20.062  16.951   7.022  0.00  0.00     0.119 C 
HETATM    2  C   UNK N   1      20.079  15.461   7.389  0.00  0.00     0.159 C 
HETATM    3  O   UNK N   1      19.231  15.341   8.518  0.00  0.00    -0.367 OA
HETATM    4  C   UNK N   1      19.116  16.628   9.108  0.00  0.00     0.220 C 
HETATM    5  C   UNK N   1      20.062  17.569   8.379  0.00  0.00     0.060 C 
ENDROOT
BRANCH   2   6
HETATM    6  C   UNK N   1      21.452  14.818   7.727  0.00  0.00     0.114 C 
BRANCH   6   7
HETATM    7  N   UNK N   1      22.074  14.359   6.495  0.00  0.00    -0.354 N 
HETATM    8  C   UNK N   1      23.372  14.564   6.153  0.00  0.00     0.214 C 
HETATM    9  C   UNK N   1      23.891  13.986   4.882  0.00  0.00     0.117 C 
HETATM   10  O   UNK N   1      24.113  15.232   6.854  0.00  0.00    -0.274 OA
HETATM   11  H   UNK N   1      21.511  13.860   5.861  0.00  0.00     0.162 HD
ENDBRANCH   6   7
BRANCH   6  12
HETATM   12  C   UNK N   1      21.147  13.621   8.656  0.00  0.00     0.031 C 
BRANCH  12  13
HETATM   13  C   UNK N   1      21.900  13.550   9.975  0.00  0.00    -0.021 C 
HETATM   14  C   UNK N   1      21.282  12.513  10.894  0.00  0.00     0.009 C 
HETATM   15  C   UNK N   1      23.334  13.154   9.691  0.00  0.00     0.009 C 
ENDBRANCH  12  13
ENDBRANCH   6  12
ENDBRANCH   2   6
BRANCH   1  16
HETATM   16  C   UNK N   1      21.112  17.487   6.085  0.00  0.00     0.265 C 
HETATM   17  O   UNK N   1      21.865  18.372   6.467  0.00  0.00    -0.265 OA
BRANCH  16  18
HETATM   18  O   UNK N   1      21.259  16.939   4.852  0.00  0.00    -0.326 OA
HETATM   19  C   UNK N   1      20.221  16.852   3.954  0.00  0.00     0.213 C 
ENDBRANCH  16  18
ENDBRANCH   1  16
BRANCH   4  20
HETATM   20  C   UNK N   1      17.693  17.118   8.998  0.00  0.00     0.170 C 
HETATM   21  O   UNK N   1      16.939  16.648   8.161  0.00  0.00    -0.648 OA
BRANCH  20  22
HETATM   22  O   UNK N   1      17.248  18.080   9.827  0.00  0.00    -0.774 OA
HETATM   23  H   UNK N   1      16.777  18.017  10.635  0.00  0.00     0.167 HD
ENDBRANCH  20  22
ENDBRANCH   4  20
TORSDOF 8
ENDMDL
MODEL 2
REMARK VINA RESULT:      -5.4     15.741     18.421
REMARK  8 active torsions:
REMARK  status: ('A' for Active; 'I' for Inactive)
REMARK    1  A    between atoms: C_1  and  C_18 
REMARK    2  A    between atoms: C_2  and  C_13 
REMARK    3  A    between atoms: C_4  and  C_6 
REMARK    4  A    between atoms: C_6  and  O_7 
REMARK       I    between atoms: N_9  and  C_10 
REMARK    5  A    between atoms: C_13  and  N_9 
REMARK    6  A    between atoms: C_13  and  C_14 
REMARK    7  A    between atoms: C_14  and  C_15 
REMARK    8  A    between atoms: C_18  and  O_20 
ROOT
HETATM    1  C   UNK N   1      26.109  23.655  -5.536  0.00  0.00     0.119 C 
HETATM    2  C   UNK N   1      25.556  24.838  -6.342  0.00  0.00     0.159 C 
HETATM    3  O   UNK N   1      25.261  24.315  -7.625  0.00  0.00    -0.367 OA
HETATM    4  C   UNK N   1      26.006  23.116  -7.783  0.00  0.00     0.220 C 
HETATM    5  C   UNK N   1      26.923  22.967  -6.580  0.00  0.00     0.060 C 
ENDROOT
BRANCH   2   6
HETATM    6  C   UNK N   1      26.468  26.084  -6.511  0.00  0.00     0.114 C 
BRANCH   6   7
HETATM    7  N   UNK N   1      25.984  27.145  -5.642  0.00  0.00    -0.354 N 
HETATM    8  C   UNK N   1      26.685  27.696  -4.617  0.00  0.00     0.214 C 
HETATM    9  C   UNK N   1      26.085  28.819  -3.844  0.00  0.00     0.117 C 
HETATM   10  O   UNK N   1      27.785  27.273  -4.305  0.00  0.00    -0.274 OA
HETATM   11  H   UNK N   1      25.078  27.491  -5.810  0.00  0.00     0.162 HD
ENDBRANCH   6   7
BRANCH   6  12
HETATM   12  C   UNK N   1      26.348  26.504  -7.993  0.00  0.00     0.031 C 
BRANCH  12  13
HETATM   13  C   UNK N   1      27.634  26.855  -8.727  0.00  0.00    -0.021 C 
HETATM   14  C   UNK N   1      28.342  28.013  -8.050  0.00  0.00     0.009 C 
HETATM   15  C   UNK N   1      28.546  25.647  -8.704  0.00  0.00     0.009 C 
ENDBRANCH  12  13
ENDBRANCH   6  12
ENDBRANCH   2   6
BRANCH   1  16
HETATM   16  C   UNK N   1      26.836  23.924  -4.245  0.00  0.00     0.265 C 
HETATM   17  O   UNK N   1      26.195  24.083  -3.215  0.00  0.00    -0.265 OA
BRANCH  16  18
HETATM   18  O   UNK N   1      28.192  23.918  -4.220  0.00  0.00    -0.326 OA
HETATM   19  C   UNK N   1      28.910  23.629  -3.083  0.00  0.00     0.213 C 
ENDBRANCH  16  18
ENDBRANCH   1  16
BRANCH   4  20
HETATM   20  C   UNK N   1      25.070  21.938  -7.884  0.00  0.00     0.170 C 
HETATM   21  O   UNK N   1      25.501  20.797  -7.818  0.00  0.00    -0.648 OA
BRANCH  20  22
HETATM   22  O   UNK N   1      23.749  22.141  -8.049  0.00  0.00    -0.774 OA
HETATM   23  H   UNK N   1      23.276  22.518  -8.765  0.00  0.00     0.167 HD
ENDBRANCH  20  22
ENDBRANCH   4  20
TORSDOF 8
ENDMDL
MODEL 3
REMARK VINA RESULT:      -5.3      8.769     12.023
REMARK  8 active torsions:
REMARK  status: ('A' for Active; 'I' for Inactive)
REMARK    1  A    between atoms: C_1  and  C_18 
REMARK    2  A    between atoms: C_2  and  C_13 
REMARK    3  A    between atoms: C_4  and  C_6 
REMARK    4  A    between atoms: C_6  and  O_7 
REMARK       I    between atoms: N_9  and  C_10 
REMARK    5  A    between atoms: C_13  and  N_9 
REMARK    6  A    between atoms: C_13  and  C_14 
REMARK    7  A    between atoms: C_14  and  C_15 
REMARK    8  A    between atoms: C_18  and  O_20 
ROOT
HETATM    1  C   UNK N   1      31.794  17.168   8.720  0.00  0.00     0.119 C 
HETATM    2  C   UNK N   1      31.874  16.111   7.610  0.00  0.00     0.159 C 
HETATM    3  O   UNK N   1      33.257  15.874   7.415  0.00  0.00    -0.367 OA
HETATM    4  C   UNK N   1      33.963  16.989   7.938  0.00  0.00     0.220 C 
HETATM    5  C   UNK N   1      32.947  18.040   8.354  0.00  0.00     0.060 C 
ENDROOT
BRANCH   2   6
HETATM    6  C   UNK N   1      31.231  16.457   6.239  0.00  0.00     0.114 C 
BRANCH   6   7
HETATM    7  N   UNK N   1      29.837  16.042   6.254  0.00  0.00    -0.354 N 
HETATM    8  C   UNK N   1      28.817  16.711   5.656  0.00  0.00     0.214 C 
HETATM    9  C   UNK N   1      27.443  16.137   5.703  0.00  0.00     0.117 C 
HETATM   10  O   UNK N   1      29.001  17.782   5.104  0.00  0.00    -0.274 OA
HETATM   11  H   UNK N   1      29.616  15.211   6.732  0.00  0.00     0.162 HD
ENDBRANCH   6   7
BRANCH   6  12
HETATM   12  C   UNK N   1      32.021  15.655   5.181  0.00  0.00     0.031 C 
BRANCH  12  13
HETATM   13  C   UNK N   1      32.573  16.423   3.989  0.00  0.00    -0.021 C 
HETATM   14  C   UNK N   1      31.522  16.561   2.904  0.00  0.00     0.009 C 
HETATM   15  C   UNK N   1      32.978  17.806   4.453  0.00  0.00     0.009 C 
ENDBRANCH  12  13
ENDBRANCH   6  12
ENDBRANCH   2   6
BRANCH   1  16
HETATM   16  C   UNK N   1      30.496  17.899   8.944  0.00  0.00     0.265 C 
HETATM   17  O   UNK N   1      30.490  19.122   8.965  0.00  0.00    -0.265 OA
BRANCH  16  18
HETATM   18  O   UNK N   1      29.338  17.200   9.051  0.00  0.00    -0.326 OA
HETATM   19  C   UNK N   1      28.114  17.814   9.174  0.00  0.00     0.213 C 
ENDBRANCH  16  18
ENDBRANCH   1  16
BRANCH   4  20
HETATM   20  C   UNK N   1      34.796  16.561   9.122  0.00  0.00     0.170 C 
HETATM   21  O   UNK N   1      35.026  15.378   9.322  0.00  0.00    -0.648 OA
BRANCH  20  22
HETATM   22  O   UNK N   1      35.291  17.486   9.964  0.00  0.00    -0.774 OA
HETATM   23  H   UNK N   1      34.861  18.175  10.433  0.00  0.00     0.167 HD
ENDBRANCH  20  22
ENDBRANCH   4  20
TORSDOF 8
ENDMDL
MODEL 4
REMARK VINA RESULT:      -5.3     11.554     13.766
REMARK  8 active torsions:
REMARK  status: ('A' for Active; 'I' for Inactive)
REMARK    1  A    between atoms: C_1  and  C_18 
REMARK    2  A    between atoms: C_2  and  C_13 
REMARK    3  A    between atoms: C_4  and  C_6 
REMARK    4  A    between atoms: C_6  and  O_7 
REMARK       I    between atoms: N_9  and  C_10 
REMARK    5  A    between atoms: C_13  and  N_9 
REMARK    6  A    between atoms: C_13  and  C_14 
REMARK    7  A    between atoms: C_14  and  C_15 
REMARK    8  A    between atoms: C_18  and  O_20 
ROOT
HETATM    1  C   UNK N   1      34.579  15.498   7.239  0.00  0.00     0.119 C 
HETATM    2  C   UNK N   1      34.496  16.337   5.957  0.00  0.00     0.159 C 
HETATM    3  O   UNK N   1      34.315  17.673   6.392  0.00  0.00    -0.367 OA
HETATM    4  C   UNK N   1      33.823  17.629   7.723  0.00  0.00     0.220 C 
HETATM    5  C   UNK N   1      33.552  16.177   8.080  0.00  0.00     0.060 C 
ENDROOT
BRANCH   2   6
HETATM    6  C   UNK N   1      33.374  15.989   4.940  0.00  0.00     0.114 C 
BRANCH   6   7
HETATM    7  N   UNK N   1      33.940  15.183   3.870  0.00  0.00    -0.354 N 
HETATM    8  C   UNK N   1      33.361  14.075   3.337  0.00  0.00     0.214 C 
HETATM    9  C   UNK N   1      34.029  13.379   2.202  0.00  0.00     0.117 C 
HETATM   10  O   UNK N   1      32.319  13.629   3.785  0.00  0.00    -0.274 OA
HETATM   11  H   UNK N   1      34.809  15.462   3.503  0.00  0.00     0.162 HD
ENDBRANCH   6   7
BRANCH   6  12
HETATM   12  C   UNK N   1      32.864  17.338   4.387  0.00  0.00     0.031 C 
BRANCH  12  13
HETATM   13  C   UNK N   1      31.358  17.554   4.347  0.00  0.00    -0.021 C 
HETATM   14  C   UNK N   1      30.727  16.746   3.229  0.00  0.00     0.009 C 
HETATM   15  C   UNK N   1      30.772  17.100   5.667  0.00  0.00     0.009 C 
ENDBRANCH  12  13
ENDBRANCH   6  12
ENDBRANCH   2   6
BRANCH   1  16
HETATM   16  C   UNK N   1      34.432  14.002   7.147  0.00  0.00     0.265 C 
HETATM   17  O   UNK N   1      35.109  13.378   6.341  0.00  0.00    -0.265 OA
BRANCH  16  18
HETATM   18  O   UNK N   1      33.604  13.352   8.004  0.00  0.00    -0.326 OA
HETATM   19  C   UNK N   1      33.858  12.077   8.452  0.00  0.00     0.213 C 
ENDBRANCH  16  18
ENDBRANCH   1  16
BRANCH   4  20
HETATM   20  C   UNK N   1      34.839  18.225   8.666  0.00  0.00     0.170 C 
HETATM   21  O   UNK N   1      35.341  19.313   8.428  0.00  0.00    -0.648 OA
BRANCH  20  22
HETATM   22  O   UNK N   1      35.196  17.557   9.779  0.00  0.00    -0.774 OA
HETATM   23  H   UNK N   1      35.126  16.646   9.990  0.00  0.00     0.167 HD
ENDBRANCH  20  22
ENDBRANCH   4  20
TORSDOF 8
ENDMDL
MODEL 5
REMARK VINA RESULT:      -5.3      2.981      6.188
REMARK  8 active torsions:
REMARK  status: ('A' for Active; 'I' for Inactive)
REMARK    1  A    between atoms: C_1  and  C_18 
REMARK    2  A    between atoms: C_2  and  C_13 
REMARK    3  A    between atoms: C_4  and  C_6 
REMARK    4  A    between atoms: C_6  and  O_7 
REMARK       I    between atoms: N_9  and  C_10 
REMARK    5  A    between atoms: C_13  and  N_9 
REMARK    6  A    between atoms: C_13  and  C_14 
REMARK    7  A    between atoms: C_14  and  C_15 
REMARK    8  A    between atoms: C_18  and  O_20 
ROOT
HETATM    1  C   UNK N   1      21.785  18.501   4.197  0.00  0.00     0.119 C 
HETATM    2  C   UNK N   1      21.356  17.479   3.136  0.00  0.00     0.159 C 
HETATM    3  O   UNK N   1      20.805  18.243   2.078  0.00  0.00    -0.367 OA
HETATM    4  C   UNK N   1      20.448  19.513   2.604  0.00  0.00     0.220 C 
HETATM    5  C   UNK N   1      20.662  19.479   4.108  0.00  0.00     0.060 C 
ENDROOT
BRANCH   2   6
HETATM    6  C   UNK N   1      20.325  16.396   3.556  0.00  0.00     0.114 C 
BRANCH   6   7
HETATM    7  N   UNK N   1      20.996  15.398   4.374  0.00  0.00    -0.354 N 
HETATM    8  C   UNK N   1      20.411  14.681   5.368  0.00  0.00     0.214 C 
HETATM    9  C   UNK N   1      21.207  13.647   6.087  0.00  0.00     0.117 C 
HETATM   10  O   UNK N   1      19.256  14.885   5.698  0.00  0.00    -0.274 OA
HETATM   11  H   UNK N   1      21.948  15.227   4.191  0.00  0.00     0.162 HD
ENDBRANCH   6   7
BRANCH   6  12
HETATM   12  C   UNK N   1      19.812  15.762   2.244  0.00  0.00     0.031 C 
BRANCH  12  13
HETATM   13  C   UNK N   1      20.326  14.375   1.889  0.00  0.00    -0.021 C 
HETATM   14  C   UNK N   1      19.243  13.555   1.213  0.00  0.00     0.009 C 
HETATM   15  C   UNK N   1      21.491  14.523   0.934  0.00  0.00     0.009 C 
ENDBRANCH  12  13
ENDBRANCH   6  12
ENDBRANCH   2   6
BRANCH   1  16
HETATM   16  C   UNK N   1      22.098  18.025   5.591  0.00  0.00     0.265 C 
HETATM   17  O   UNK N   1      23.025  17.246   5.767  0.00  0.00    -0.265 OA
BRANCH  16  18
HETATM   18  O   UNK N   1      21.398  18.515   6.644  0.00  0.00    -0.326 OA
HETATM   19  C   UNK N   1      20.585  17.725   7.423  0.00  0.00     0.213 C 
ENDBRANCH  16  18
ENDBRANCH   1  16
BRANCH   4  20
HETATM   20  C   UNK N   1      21.296  20.589   1.972  0.00  0.00     0.170 C 
HETATM   21  O   UNK N   1      21.548  20.557   0.777  0.00  0.00    -0.648 OA
BRANCH  20  22
HETATM   22  O   UNK N   1      21.781  21.592   2.727  0.00  0.00    -0.774 OA
HETATM   23  H   UNK N   1      22.493  21.606   3.336  0.00  0.00     0.167 HD
ENDBRANCH  20  22
ENDBRANCH   4  20
TORSDOF 8
ENDMDL
MODEL 6
REMARK VINA RESULT:      -5.3      2.227      4.443
REMARK  8 active torsions:
REMARK  status: ('A' for Active; 'I' for Inactive)
REMARK    1  A    between atoms: C_1  and  C_18 
REMARK    2  A    between atoms: C_2  and  C_13 
REMARK    3  A    between atoms: C_4  and  C_6 
REMARK    4  A    between atoms: C_6  and  O_7 
REMARK       I    between atoms: N_9  and  C_10 
REMARK    5  A    between atoms: C_13  and  N_9 
REMARK    6  A    between atoms: C_13  and  C_14 
REMARK    7  A    between atoms: C_14  and  C_15 
REMARK    8  A    between atoms: C_18  and  O_20 
ROOT
HETATM    1  C   UNK N   1      20.662  15.433   9.143  0.00  0.00     0.119 C 
HETATM    2  C   UNK N   1      21.093  15.717   7.698  0.00  0.00     0.159 C 
HETATM    3  O   UNK N   1      20.368  16.870   7.309  0.00  0.00    -0.367 OA
HETATM    4  C   UNK N   1      19.251  16.989   8.177  0.00  0.00     0.220 C 
HETATM    5  C   UNK N   1      19.208  15.757   9.065  0.00  0.00     0.060 C 
ENDROOT
BRANCH   2   6
HETATM    6  C   UNK N   1      20.858  14.601   6.643  0.00  0.00     0.114 C 
BRANCH   6   7
HETATM    7  N   UNK N   1      21.982  13.679   6.674  0.00  0.00    -0.354 N 
HETATM    8  C   UNK N   1      21.880  12.326   6.743  0.00  0.00     0.214 C 
HETATM    9  C   UNK N   1      23.118  11.499   6.709  0.00  0.00     0.117 C 
HETATM   10  O   UNK N   1      20.796  11.779   6.856  0.00  0.00    -0.274 OA
HETATM   11  H   UNK N   1      22.887  14.064   6.641  0.00  0.00     0.162 HD
ENDBRANCH   6   7
BRANCH   6  12
HETATM   12  C   UNK N   1      20.784  15.315   5.275  0.00  0.00     0.031 C 
BRANCH  12  13
HETATM   13  C   UNK N   1      22.019  15.260   4.389  0.00  0.00    -0.021 C 
HETATM   14  C   UNK N   1      21.638  14.965   2.950  0.00  0.00     0.009 C 
HETATM   15  C   UNK N   1      22.711  16.606   4.442  0.00  0.00     0.009 C 
ENDBRANCH  12  13
ENDBRANCH   6  12
ENDBRANCH   2   6
BRANCH   1  16
HETATM   16  C   UNK N   1      20.978  14.092   9.752  0.00  0.00     0.265 C 
HETATM   17  O   UNK N   1      20.063  13.335  10.048  0.00  0.00    -0.265 OA
BRANCH  16  18
HETATM   18  O   UNK N   1      22.270  13.706   9.901  0.00  0.00    -0.326 OA
HETATM   19  C   UNK N   1      22.634  12.621  10.665  0.00  0.00     0.213 C 
ENDBRANCH  16  18
ENDBRANCH   1  16
BRANCH   4  20
HETATM   20  C   UNK N   1      19.379  18.240   9.011  0.00  0.00     0.170 C 
HETATM   21  O   UNK N   1      20.265  19.049   8.783  0.00  0.00    -0.648 OA
BRANCH  20  22
HETATM   22  O   UNK N   1      18.512  18.469  10.016  0.00  0.00    -0.774 OA
HETATM   23  H   UNK N   1      18.462  19.180  10.625  0.00  0.00     0.167 HD
ENDBRANCH  20  22
ENDBRANCH   4  20
TORSDOF 8
ENDMDL
MODEL 7
REMARK VINA RESULT:      -5.2     15.846     17.789
REMARK  8 active torsions:
REMARK  status: ('A' for Active; 'I' for Inactive)
REMARK    1  A    between atoms: C_1  and  C_18 
REMARK    2  A    between atoms: C_2  and  C_13 
REMARK    3  A    between atoms: C_4  and  C_6 
REMARK    4  A    between atoms: C_6  and  O_7 
REMARK       I    between atoms: N_9  and  C_10 
REMARK    5  A    between atoms: C_13  and  N_9 
REMARK    6  A    between atoms: C_13  and  C_14 
REMARK    7  A    between atoms: C_14  and  C_15 
REMARK    8  A    between atoms: C_18  and  O_20 
ROOT
HETATM    1  C   UNK N   1      27.578  23.087  -7.035  0.00  0.00     0.119 C 
HETATM    2  C   UNK N   1      26.664  23.505  -5.875  0.00  0.00     0.159 C 
HETATM    3  O   UNK N   1      25.527  24.091  -6.483  0.00  0.00    -0.367 OA
HETATM    4  C   UNK N   1      25.893  24.474  -7.800  0.00  0.00     0.220 C 
HETATM    5  C   UNK N   1      27.385  24.237  -7.965  0.00  0.00     0.060 C 
ENDROOT
BRANCH   2   6
HETATM    6  C   UNK N   1      27.238  24.501  -4.829  0.00  0.00     0.114 C 
BRANCH   6   7
HETATM    7  N   UNK N   1      27.821  23.747  -3.730  0.00  0.00    -0.354 N 
HETATM    8  C   UNK N   1      29.089  23.897  -3.267  0.00  0.00     0.214 C 
HETATM    9  C   UNK N   1      29.535  23.096  -2.093  0.00  0.00     0.117 C 
HETATM   10  O   UNK N   1      29.874  24.656  -3.808  0.00  0.00    -0.274 OA
HETATM   11  H   UNK N   1      27.252  23.077  -3.287  0.00  0.00     0.162 HD
ENDBRANCH   6   7
BRANCH   6  12
HETATM   12  C   UNK N   1      26.038  25.338  -4.332  0.00  0.00     0.031 C 
BRANCH  12  13
HETATM   13  C   UNK N   1      26.070  26.835  -4.602  0.00  0.00    -0.021 C 
HETATM   14  C   UNK N   1      24.909  27.248  -5.487  0.00  0.00     0.009 C 
HETATM   15  C   UNK N   1      25.957  27.564  -3.280  0.00  0.00     0.009 C 
ENDBRANCH  12  13
ENDBRANCH   6  12
ENDBRANCH   2   6
BRANCH   1  16
HETATM   16  C   UNK N   1      29.015  22.741  -6.748  0.00  0.00     0.265 C 
HETATM   17  O   UNK N   1      29.907  23.424  -7.234  0.00  0.00    -0.265 OA
BRANCH  16  18
HETATM   18  O   UNK N   1      29.308  21.723  -5.901  0.00  0.00    -0.326 OA
HETATM   19  C   UNK N   1      30.599  21.403  -5.549  0.00  0.00     0.213 C 
ENDBRANCH  16  18
ENDBRANCH   1  16
BRANCH   4  20
HETATM   20  C   UNK N   1      25.114  23.664  -8.807  0.00  0.00     0.170 C 
HETATM   21  O   UNK N   1      24.353  22.783  -8.437  0.00  0.00    -0.648 OA
BRANCH  20  22
HETATM   22  O   UNK N   1      25.256  23.910 -10.122  0.00  0.00    -0.774 OA
HETATM   23  H   UNK N   1      24.865  24.569 -10.663  0.00  0.00     0.167 HD
ENDBRANCH  20  22
ENDBRANCH   4  20
TORSDOF 8
ENDMDL
MODEL 8
REMARK VINA RESULT:      -5.2      8.379     10.627
REMARK  8 active torsions:
REMARK  status: ('A' for Active; 'I' for Inactive)
REMARK    1  A    between atoms: C_1  and  C_18 
REMARK    2  A    between atoms: C_2  and  C_13 
REMARK    3  A    between atoms: C_4  and  C_6 
REMARK    4  A    between atoms: C_6  and  O_7 
REMARK       I    between atoms: N_9  and  C_10 
REMARK    5  A    between atoms: C_13  and  N_9 
REMARK    6  A    between atoms: C_13  and  C_14 
REMARK    7  A    between atoms: C_14  and  C_15 
REMARK    8  A    between atoms: C_18  and  O_20 
ROOT
HETATM    1  C   UNK N   1      29.520  16.788   6.747  0.00  0.00     0.119 C 
HETATM    2  C   UNK N   1      30.806  16.329   7.447  0.00  0.00     0.159 C 
HETATM    3  O   UNK N   1      30.714  16.829   8.770  0.00  0.00    -0.367 OA
HETATM    4  C   UNK N   1      29.773  17.892   8.764  0.00  0.00     0.220 C 
HETATM    5  C   UNK N   1      29.365  18.154   7.323  0.00  0.00     0.060 C 
ENDROOT
BRANCH   2   6
HETATM    6  C   UNK N   1      32.160  16.785   6.836  0.00  0.00     0.114 C 
BRANCH   6   7
HETATM    7  N   UNK N   1      32.214  16.368   5.444  0.00  0.00    -0.354 N 
HETATM    8  C   UNK N   1      32.910  17.003   4.465  0.00  0.00     0.214 C 
HETATM    9  C   UNK N   1      32.922  16.429   3.090  0.00  0.00     0.117 C 
HETATM   10  O   UNK N   1      33.505  18.043   4.686  0.00  0.00    -0.274 OA
HETATM   11  H   UNK N   1      31.707  15.563   5.191  0.00  0.00     0.162 HD
ENDBRANCH   6   7
BRANCH   6  12
HETATM   12  C   UNK N   1      33.260  16.074   7.655  0.00  0.00     0.031 C 
BRANCH  12  13
HETATM   13  C   UNK N   1      34.391  16.932   8.201  0.00  0.00    -0.021 C 
HETATM   14  C   UNK N   1      34.034  18.404   8.130  0.00  0.00     0.009 C 
HETATM   15  C   UNK N   1      34.623  16.557   9.650  0.00  0.00     0.009 C 
ENDBRANCH  12  13
ENDBRANCH   6  12
ENDBRANCH   2   6
BRANCH   1  16
HETATM   16  C   UNK N   1      29.440  16.723   5.245  0.00  0.00     0.265 C 
HETATM   17  O   UNK N   1      29.459  17.760   4.595  0.00  0.00    -0.265 OA
BRANCH  16  18
HETATM   18  O   UNK N   1      29.418  15.518   4.621  0.00  0.00    -0.326 OA
HETATM   19  C   UNK N   1      28.569  14.505   5.002  0.00  0.00     0.213 C 
ENDBRANCH  16  18
ENDBRANCH   1  16
BRANCH   4  20
HETATM   20  C   UNK N   1      28.570  17.518   9.595  0.00  0.00     0.170 C 
HETATM   21  O   UNK N   1      28.666  16.686  10.484  0.00  0.00    -0.648 OA
BRANCH  20  22
HETATM   22  O   UNK N   1      27.382  18.104   9.358  0.00  0.00    -0.774 OA
HETATM   23  H   UNK N   1      27.146  19.010   9.324  0.00  0.00     0.167 HD
ENDBRANCH  20  22
ENDBRANCH   4  20
TORSDOF 8
ENDMDL
MODEL 9
REMARK VINA RESULT:      -5.2     13.000     15.138
REMARK  8 active torsions:
REMARK  status: ('A' for Active; 'I' for Inactive)
REMARK    1  A    between atoms: C_1  and  C_18 
REMARK    2  A    between atoms: C_2  and  C_13 
REMARK    3  A    between atoms: C_4  and  C_6 
REMARK    4  A    between atoms: C_6  and  O_7 
REMARK       I    between atoms: N_9  and  C_10 
REMARK    5  A    between atoms: C_13  and  N_9 
REMARK    6  A    between atoms: C_13  and  C_14 
REMARK    7  A    between atoms: C_14  and  C_15 
REMARK    8  A    between atoms: C_18  and  O_20 
ROOT
HETATM    1  C   UNK N   1      34.926  15.814  10.428  0.00  0.00     0.119 C 
HETATM    2  C   UNK N   1      34.795  14.433   9.772  0.00  0.00     0.159 C 
HETATM    3  O   UNK N   1      35.481  13.540  10.632  0.00  0.00    -0.367 OA
HETATM    4  C   UNK N   1      36.367  14.309  11.433  0.00  0.00     0.220 C 
HETATM    5  C   UNK N   1      36.326  15.745  10.938  0.00  0.00     0.060 C 
ENDROOT
BRANCH   2   6
HETATM    6  C   UNK N   1      35.355  14.265   8.332  0.00  0.00     0.114 C 
BRANCH   6   7
HETATM    7  N   UNK N   1      34.300  14.567   7.378  0.00  0.00    -0.354 N 
HETATM    8  C   UNK N   1      34.481  15.196   6.188  0.00  0.00     0.214 C 
HETATM    9  C   UNK N   1      33.315  15.389   5.281  0.00  0.00     0.117 C 
HETATM   10  O   UNK N   1      35.574  15.625   5.860  0.00  0.00    -0.274 OA
HETATM   11  H   UNK N   1      33.384  14.294   7.612  0.00  0.00     0.162 HD
ENDBRANCH   6   7
BRANCH   6  12
HETATM   12  C   UNK N   1      35.784  12.786   8.211  0.00  0.00     0.031 C 
BRANCH  12  13
HETATM   13  C   UNK N   1      37.172  12.503   7.656  0.00  0.00    -0.021 C 
HETATM   14  C   UNK N   1      37.139  12.411   6.142  0.00  0.00     0.009 C 
HETATM   15  C   UNK N   1      38.090  13.639   8.054  0.00  0.00     0.009 C 
ENDBRANCH  12  13
ENDBRANCH   6  12
ENDBRANCH   2   6
BRANCH   1  16
HETATM   16  C   UNK N   1      34.608  17.044   9.620  0.00  0.00     0.265 C 
HETATM   17  O   UNK N   1      35.424  17.954   9.562  0.00  0.00    -0.265 OA
BRANCH  16  18
HETATM   18  O   UNK N   1      33.455  17.103   8.907  0.00  0.00    -0.326 OA
HETATM   19  C   UNK N   1      33.182  18.124   8.027  0.00  0.00     0.213 C 
ENDBRANCH  16  18
ENDBRANCH   1  16
BRANCH   4  20
HETATM   20  C   UNK N   1      35.947  14.235  12.880  0.00  0.00     0.170 C 
HETATM   21  O   UNK N   1      34.906  13.680  13.195  0.00  0.00    -0.648 OA
BRANCH  20  22
HETATM   22  O   UNK N   1      36.722  14.785  13.833  0.00  0.00    -0.774 OA
HETATM   23  H   UNK N   1      37.611  15.080  13.799  0.00  0.00     0.167 HD
ENDBRANCH  20  22
ENDBRANCH   4  20
TORSDOF 8
ENDMDL
