MODEL 1
REMARK VINA RESULT:      -5.7      0.000      0.000
REMARK  13 active torsions:
REMARK  status: ('A' for Active; 'I' for Inactive)
REMARK    1  A    between atoms: C_1  and  O_3 
REMARK    2  A    between atoms: C_1  and  C_4 
REMARK    3  A    between atoms: C_4  and  C_6 
REMARK    4  A    between atoms: C_6  and  N_7 
REMARK    5  A    between atoms: C_6  and  C_8 
REMARK    6  A    between atoms: C_8  and  C_9 
REMARK    7  A    between atoms: C_9  and  C_10 
REMARK    8  A    between atoms: C_10  and  C_12 
REMARK    9  A    between atoms: C_12  and  C_13 
REMARK   10  A    between atoms: C_13  and  C_15 
REMARK   11  A    between atoms: C_15  and  O_16 
REMARK   12  A    between atoms: C_15  and  C_18 
REMARK   13  A    between atoms: C_18  and  C_19 
ROOT
HETATM    1  C   UNK N   1      30.165  27.384  -4.369  0.00  0.00    -0.018 C 
HETATM    2  C   UNK N   1      31.051  27.270  -3.141  0.00  0.00     0.010 C 
ENDROOT
BRANCH   1   3
HETATM    3  C   UNK N   1      29.718  25.990  -4.794  0.00  0.00     0.006 C 
BRANCH   3   4
HETATM    4  C   UNK N   1      30.235  24.924  -3.836  0.00  0.00     0.026 C 
BRANCH   4   5
HETATM    5  C   UNK N   1      30.171  23.520  -4.438  0.00  0.00     0.087 C 
BRANCH   5   6
HETATM    6  C   UNK N   1      29.862  22.442  -3.372  0.00  0.00     0.102 C 
HETATM    7  C   UNK N   1      29.341  23.066  -2.082  0.00  0.00     0.023 C 
BRANCH   6   8
HETATM    8  C   UNK N   1      31.076  21.605  -3.058  0.00  0.00     0.145 C 
HETATM    9  O   UNK N   1      31.899  22.000  -2.249  0.00  0.00    -0.650 OA
BRANCH   8  10
HETATM   10  O   UNK N   1      31.269  20.423  -3.679  0.00  0.00    -0.776 OA
HETATM   11  H   UNK N   1      31.099  20.115  -4.546  0.00  0.00     0.167 HD
ENDBRANCH   8  10
ENDBRANCH   6   8
ENDBRANCH   5   6
BRANCH   5  12
HETATM   12  N   UNK N   1      31.445  23.251  -5.089  0.00  0.00    -0.425 N 
HETATM   13  H   UNK N   1      31.787  23.141  -6.042  0.00  0.00     0.150 HD
HETATM   14  H   UNK N   1      32.197  23.145  -4.408  0.00  0.00     0.150 HD
ENDBRANCH   5  12
ENDBRANCH   4   5
ENDBRANCH   3   4
ENDBRANCH   1   3
BRANCH   1  15
HETATM   15  C   UNK N   1      29.000  28.390  -4.170  0.00  0.00     0.011 C 
BRANCH  15  16
HETATM   16  C   UNK N   1      27.821  28.429  -5.175  0.00  0.00     0.011 C 
HETATM   17  C   UNK N   1      28.223  29.194  -6.431  0.00  0.00     0.012 C 
BRANCH  16  18
HETATM   18  C   UNK N   1      26.509  28.968  -4.563  0.00  0.00     0.128 C 
BRANCH  18  19
HETATM   19  O   UNK N   1      26.821  29.734  -3.415  0.00  0.00    -0.390 OA
HETATM   20  C   UNK N   1      26.413  31.060  -3.630  0.00  0.00     0.202 C 
ENDBRANCH  18  19
BRANCH  18  21
HETATM   21  C   UNK N   1      25.494  27.853  -4.236  0.00  0.00     0.070 C 
BRANCH  21  22
HETATM   22  C   UNK N   1      25.817  26.472  -4.707  0.00  0.00    -0.056 A 
HETATM   23  C   UNK N   1      25.539  26.119  -6.031  0.00  0.00     0.007 A 
HETATM   24  C   UNK N   1      25.751  24.809  -6.469  0.00  0.00     0.001 A 
HETATM   25  C   UNK N   1      26.231  23.845  -5.577  0.00  0.00     0.000 A 
HETATM   26  C   UNK N   1      26.503  24.192  -4.250  0.00  0.00     0.001 A 
HETATM   27  C   UNK N   1      26.291  25.503  -3.813  0.00  0.00     0.007 A 
ENDBRANCH  21  22
ENDBRANCH  18  21
ENDBRANCH  16  18
ENDBRANCH  15  16
ENDBRANCH   1  15
TORSDOF 13
ENDMDL
MODEL 2
REMARK VINA RESULT:      -5.7      1.807      3.857
REMARK  13 active torsions:
REMARK  status: ('A' for Active; 'I' for Inactive)
REMARK    1  A    between atoms: C_1  and  O_3 
REMARK    2  A    between atoms: C_1  and  C_4 
REMARK    3  A    between atoms: C_4  and  C_6 
REMARK    4  A    between atoms: C_6  and  N_7 
REMARK    5  A    between atoms: C_6  and  C_8 
REMARK    6  A    between atoms: C_8  and  C_9 
REMARK    7  A    between atoms: C_9  and  C_10 
REMARK    8  A    between atoms: C_10  and  C_12 
REMARK    9  A    between atoms: C_12  and  C_13 
REMARK   10  A    between atoms: C_13  and  C_15 
REMARK   11  A    between atoms: C_15  and  O_16 
REMARK   12  A    between atoms: C_15  and  C_18 
REMARK   13  A    between atoms: C_18  and  C_19 
ROOT
HETATM    1  C   UNK N   1      29.345  24.628  -6.037  0.00  0.00    -0.018 C 
HETATM    2  C   UNK N   1      29.264  25.317  -7.388  0.00  0.00     0.010 C 
ENDROOT
BRANCH   1   3
HETATM    3  C   UNK N   1      29.934  25.596  -5.017  0.00  0.00     0.006 C 
BRANCH   3   4
HETATM    4  C   UNK N   1      30.757  24.863  -3.966  0.00  0.00     0.026 C 
BRANCH   4   5
HETATM    5  C   UNK N   1      31.150  23.455  -4.411  0.00  0.00     0.087 C 
BRANCH   5   6
HETATM    6  C   UNK N   1      30.624  22.368  -3.443  0.00  0.00     0.102 C 
HETATM    7  C   UNK N   1      30.019  22.986  -2.188  0.00  0.00     0.023 C 
BRANCH   6   8
HETATM    8  C   UNK N   1      31.712  21.406  -3.042  0.00  0.00     0.145 C 
HETATM    9  O   UNK N   1      32.374  21.614  -2.039  0.00  0.00    -0.650 OA
BRANCH   8  10
HETATM   10  O   UNK N   1      31.973  20.318  -3.795  0.00  0.00    -0.776 OA
HETATM   11  H   UNK N   1      32.736  20.010  -4.241  0.00  0.00     0.167 HD
ENDBRANCH   8  10
ENDBRANCH   6   8
ENDBRANCH   5   6
BRANCH   5  12
HETATM   12  N   UNK N   1      32.601  23.402  -4.507  0.00  0.00    -0.425 N 
HETATM   13  H   UNK N   1      33.323  22.683  -4.503  0.00  0.00     0.150 HD
HETATM   14  H   UNK N   1      33.003  24.334  -4.603  0.00  0.00     0.150 HD
ENDBRANCH   5  12
ENDBRANCH   4   5
ENDBRANCH   3   4
ENDBRANCH   1   3
BRANCH   1  15
HETATM   15  C   UNK N   1      27.993  24.000  -5.607  0.00  0.00     0.011 C 
BRANCH  15  16
HETATM   16  C   UNK N   1      26.914  24.868  -4.911  0.00  0.00     0.011 C 
HETATM   17  C   UNK N   1      26.686  24.383  -3.485  0.00  0.00     0.012 C 
BRANCH  16  18
HETATM   18  C   UNK N   1      25.593  24.963  -5.708  0.00  0.00     0.128 C 
BRANCH  18  19
HETATM   19  O   UNK N   1      25.609  23.992  -6.737  0.00  0.00    -0.390 OA
HETATM   20  C   UNK N   1      25.603  24.647  -7.979  0.00  0.00     0.202 C 
ENDBRANCH  18  19
BRANCH  18  21
HETATM   21  C   UNK N   1      25.331  26.376  -6.272  0.00  0.00     0.070 C 
BRANCH  21  22
HETATM   22  C   UNK N   1      26.063  27.514  -5.639  0.00  0.00    -0.056 A 
HETATM   23  C   UNK N   1      25.596  28.039  -4.430  0.00  0.00     0.007 A 
HETATM   24  C   UNK N   1      26.214  29.159  -3.865  0.00  0.00     0.001 A 
HETATM   25  C   UNK N   1      27.292  29.763  -4.517  0.00  0.00     0.000 A 
HETATM   26  C   UNK N   1      27.757  29.246  -5.730  0.00  0.00     0.001 A 
HETATM   27  C   UNK N   1      27.140  28.125  -6.294  0.00  0.00     0.007 A 
ENDBRANCH  21  22
ENDBRANCH  18  21
ENDBRANCH  16  18
ENDBRANCH  15  16
ENDBRANCH   1  15
TORSDOF 13
ENDMDL
MODEL 3
REMARK VINA RESULT:      -5.6     21.259     25.592
REMARK  13 active torsions:
REMARK  status: ('A' for Active; 'I' for Inactive)
REMARK    1  A    between atoms: C_1  and  O_3 
REMARK    2  A    between atoms: C_1  and  C_4 
REMARK    3  A    between atoms: C_4  and  C_6 
REMARK    4  A    between atoms: C_6  and  N_7 
REMARK    5  A    between atoms: C_6  and  C_8 
REMARK    6  A    between atoms: C_8  and  C_9 
REMARK    7  A    between atoms: C_9  and  C_10 
REMARK    8  A    between atoms: C_10  and  C_12 
REMARK    9  A    between atoms: C_12  and  C_13 
REMARK   10  A    between atoms: C_13  and  C_15 
REMARK   11  A    between atoms: C_15  and  O_16 
REMARK   12  A    between atoms: C_15  and  C_18 
REMARK   13  A    between atoms: C_18  and  C_19 
ROOT
HETATM    1  C   UNK N   1      35.204  10.286  13.426  0.00  0.00    -0.018 C 
HETATM    2  C   UNK N   1      33.809  10.494  13.987  0.00  0.00     0.010 C 
ENDROOT
BRANCH   1   3
HETATM    3  C   UNK N   1      35.882  11.641  13.258  0.00  0.00     0.006 C 
BRANCH   3   4
HETATM    4  C   UNK N   1      34.861  12.755  13.067  0.00  0.00     0.026 C 
BRANCH   4   5
HETATM    5  C   UNK N   1      35.516  14.102  12.766  0.00  0.00     0.087 C 
BRANCH   5   6
HETATM    6  C   UNK N   1      35.117  14.648  11.374  0.00  0.00     0.102 C 
HETATM    7  C   UNK N   1      35.465  13.661  10.267  0.00  0.00     0.023 C 
BRANCH   6   8
HETATM    8  C   UNK N   1      35.782  15.969  11.083  0.00  0.00     0.145 C 
HETATM    9  O   UNK N   1      35.112  16.986  11.001  0.00  0.00    -0.650 OA
BRANCH   8  10
HETATM   10  O   UNK N   1      37.116  16.036  10.897  0.00  0.00    -0.776 OA
HETATM   11  H   UNK N   1      37.843  16.132  11.478  0.00  0.00     0.167 HD
ENDBRANCH   8  10
ENDBRANCH   6   8
ENDBRANCH   5   6
BRANCH   5  12
HETATM   12  N   UNK N   1      36.959  13.931  12.859  0.00  0.00    -0.425 N 
HETATM   13  H   UNK N   1      37.734  14.377  13.347  0.00  0.00     0.150 HD
HETATM   14  H   UNK N   1      37.280  13.156  12.279  0.00  0.00     0.150 HD
ENDBRANCH   5  12
ENDBRANCH   4   5
ENDBRANCH   3   4
ENDBRANCH   1   3
BRANCH   1  15
HETATM   15  C   UNK N   1      36.030   9.263  14.250  0.00  0.00     0.011 C 
BRANCH  15  16
HETATM   16  C   UNK N   1      37.240   9.734  15.095  0.00  0.00     0.011 C 
HETATM   17  C   UNK N   1      38.535   9.167  14.525  0.00  0.00     0.012 C 
BRANCH  16  18
HETATM   18  C   UNK N   1      37.092   9.434  16.604  0.00  0.00     0.128 C 
BRANCH  18  19
HETATM   19  O   UNK N   1      37.473   8.092  16.842  0.00  0.00    -0.390 OA
HETATM   20  C   UNK N   1      37.121   7.748  18.157  0.00  0.00     0.202 C 
ENDBRANCH  18  19
BRANCH  18  21
HETATM   21  C   UNK N   1      35.673   9.719  17.138  0.00  0.00     0.070 C 
BRANCH  21  22
HETATM   22  C   UNK N   1      35.420  11.070  17.724  0.00  0.00    -0.056 A 
HETATM   23  C   UNK N   1      35.205  12.157  16.870  0.00  0.00     0.007 A 
HETATM   24  C   UNK N   1      35.054  13.444  17.393  0.00  0.00     0.001 A 
HETATM   25  C   UNK N   1      35.131  13.648  18.774  0.00  0.00     0.000 A 
HETATM   26  C   UNK N   1      35.354  12.566  19.631  0.00  0.00     0.001 A 
HETATM   27  C   UNK N   1      35.504  11.278  19.107  0.00  0.00     0.007 A 
ENDBRANCH  21  22
ENDBRANCH  18  21
ENDBRANCH  16  18
ENDBRANCH  15  16
ENDBRANCH   1  15
TORSDOF 13
ENDMDL
MODEL 4
REMARK VINA RESULT:      -5.6     10.625     13.191
REMARK  13 active torsions:
REMARK  status: ('A' for Active; 'I' for Inactive)
REMARK    1  A    between atoms: C_1  and  O_3 
REMARK    2  A    between atoms: C_1  and  C_4 
REMARK    3  A    between atoms: C_4  and  C_6 
REMARK    4  A    between atoms: C_6  and  N_7 
REMARK    5  A    between atoms: C_6  and  C_8 
REMARK    6  A    between atoms: C_8  and  C_9 
REMARK    7  A    between atoms: C_9  and  C_10 
REMARK    8  A    between atoms: C_10  and  C_12 
REMARK    9  A    between atoms: C_12  and  C_13 
REMARK   10  A    between atoms: C_13  and  C_15 
REMARK   11  A    between atoms: C_15  and  O_16 
REMARK   12  A    between atoms: C_15  and  C_18 
REMARK   13  A    between atoms: C_18  and  C_19 
ROOT
HETATM    1  C   UNK N   1      28.954  18.377   7.441  0.00  0.00    -0.018 C 
HETATM    2  C   UNK N   1      28.707  18.541   8.930  0.00  0.00     0.010 C 
ENDROOT
BRANCH   1   3
HETATM    3  C   UNK N   1      29.398  16.945   7.163  0.00  0.00     0.006 C 
BRANCH   3   4
HETATM    4  C   UNK N   1      30.806  16.904   6.583  0.00  0.00     0.026 C 
BRANCH   4   5
HETATM    5  C   UNK N   1      31.884  16.981   7.663  0.00  0.00     0.087 C 
BRANCH   5   6
HETATM    6  C   UNK N   1      33.093  17.841   7.221  0.00  0.00     0.102 C 
HETATM    7  C   UNK N   1      33.863  17.178   6.086  0.00  0.00     0.023 C 
BRANCH   6   8
HETATM    8  C   UNK N   1      34.036  18.106   8.367  0.00  0.00     0.145 C 
HETATM    9  O   UNK N   1      34.890  18.971   8.268  0.00  0.00    -0.650 OA
BRANCH   8  10
HETATM   10  O   UNK N   1      33.953  17.381   9.501  0.00  0.00    -0.776 OA
HETATM   11  H   UNK N   1      33.322  17.334  10.191  0.00  0.00     0.167 HD
ENDBRANCH   8  10
ENDBRANCH   6   8
ENDBRANCH   5   6
BRANCH   5  12
HETATM   12  N   UNK N   1      32.305  15.623   7.976  0.00  0.00    -0.425 N 
HETATM   13  H   UNK N   1      32.603  14.796   7.460  0.00  0.00     0.150 HD
HETATM   14  H   UNK N   1      32.298  15.453   8.982  0.00  0.00     0.150 HD
ENDBRANCH   5  12
ENDBRANCH   4   5
ENDBRANCH   3   4
ENDBRANCH   1   3
BRANCH   1  15
HETATM   15  C   UNK N   1      27.747  18.843   6.584  0.00  0.00     0.011 C 
BRANCH  15  16
HETATM   16  C   UNK N   1      27.934  19.931   5.497  0.00  0.00     0.011 C 
HETATM   17  C   UNK N   1      27.300  21.242   5.946  0.00  0.00     0.012 C 
BRANCH  16  18
HETATM   18  C   UNK N   1      27.438  19.497   4.099  0.00  0.00     0.128 C 
BRANCH  18  19
HETATM   19  O   UNK N   1      26.644  20.534   3.554  0.00  0.00    -0.390 OA
HETATM   20  C   UNK N   1      25.452  19.980   3.062  0.00  0.00     0.202 C 
ENDBRANCH  18  19
BRANCH  18  21
HETATM   21  C   UNK N   1      26.675  18.156   4.120  0.00  0.00     0.070 C 
BRANCH  21  22
HETATM   22  C   UNK N   1      27.332  16.983   3.468  0.00  0.00    -0.056 A 
HETATM   23  C   UNK N   1      28.728  16.895   3.467  0.00  0.00     0.007 A 
HETATM   24  C   UNK N   1      29.365  15.853   2.787  0.00  0.00     0.001 A 
HETATM   25  C   UNK N   1      28.607  14.904   2.095  0.00  0.00     0.000 A 
HETATM   26  C   UNK N   1      27.211  14.994   2.087  0.00  0.00     0.001 A 
HETATM   27  C   UNK N   1      26.574  16.036   2.768  0.00  0.00     0.007 A 
ENDBRANCH  21  22
ENDBRANCH  18  21
ENDBRANCH  16  18
ENDBRANCH  15  16
ENDBRANCH   1  15
TORSDOF 13
ENDMDL
MODEL 5
REMARK VINA RESULT:      -5.6     11.495     14.857
REMARK  13 active torsions:
REMARK  status: ('A' for Active; 'I' for Inactive)
REMARK    1  A    between atoms: C_1  and  O_3 
REMARK    2  A    between atoms: C_1  and  C_4 
REMARK    3  A    between atoms: C_4  and  C_6 
REMARK    4  A    between atoms: C_6  and  N_7 
REMARK    5  A    between atoms: C_6  and  C_8 
REMARK    6  A    between atoms: C_8  and  C_9 
REMARK    7  A    between atoms: C_9  and  C_10 
REMARK    8  A    between atoms: C_10  and  C_12 
REMARK    9  A    between atoms: C_12  and  C_13 
REMARK   10  A    between atoms: C_13  and  C_15 
REMARK   11  A    between atoms: C_15  and  O_16 
REMARK   12  A    between atoms: C_15  and  C_18 
REMARK   13  A    between atoms: C_18  and  C_19 
ROOT
HETATM    1  C   UNK N   1      32.637  17.029   5.793  0.00  0.00    -0.018 C 
HETATM    2  C   UNK N   1      32.774  17.559   4.377  0.00  0.00     0.010 C 
ENDROOT
BRANCH   1   3
HETATM    3  C   UNK N   1      33.757  17.603   6.653  0.00  0.00     0.006 C 
BRANCH   3   4
HETATM    4  C   UNK N   1      33.444  17.468   8.137  0.00  0.00     0.026 C 
BRANCH   4   5
HETATM    5  C   UNK N   1      34.456  16.587   8.869  0.00  0.00     0.087 C 
BRANCH   5   6
HETATM    6  C   UNK N   1      33.909  15.162   9.128  0.00  0.00     0.102 C 
HETATM    7  C   UNK N   1      32.386  15.134   9.091  0.00  0.00     0.023 C 
BRANCH   6   8
HETATM    8  C   UNK N   1      34.380  14.618  10.452  0.00  0.00     0.145 C 
HETATM    9  O   UNK N   1      35.470  14.074  10.537  0.00  0.00    -0.650 OA
BRANCH   8  10
HETATM   10  O   UNK N   1      33.599  14.714  11.547  0.00  0.00    -0.776 OA
HETATM   11  H   UNK N   1      33.353  15.425  12.103  0.00  0.00     0.167 HD
ENDBRANCH   8  10
ENDBRANCH   6   8
ENDBRANCH   5   6
BRANCH   5  12
HETATM   12  N   UNK N   1      34.800  17.243  10.122  0.00  0.00    -0.425 N 
HETATM   13  H   UNK N   1      34.343  17.862  10.790  0.00  0.00     0.150 HD
HETATM   14  H   UNK N   1      35.755  17.025  10.407  0.00  0.00     0.150 HD
ENDBRANCH   5  12
ENDBRANCH   4   5
ENDBRANCH   3   4
ENDBRANCH   1   3
BRANCH   1  15
HETATM   15  C   UNK N   1      31.216  17.247   6.375  0.00  0.00     0.011 C 
BRANCH  15  16
HETATM   16  C   UNK N   1      30.153  16.124   6.287  0.00  0.00     0.011 C 
HETATM   17  C   UNK N   1      30.792  14.828   5.802  0.00  0.00     0.012 C 
BRANCH  16  18
HETATM   18  C   UNK N   1      28.917  16.511   5.443  0.00  0.00     0.128 C 
BRANCH  18  19
HETATM   19  O   UNK N   1      28.599  15.435   4.579  0.00  0.00    -0.390 OA
HETATM   20  C   UNK N   1      27.209  15.407   4.384  0.00  0.00     0.202 C 
ENDBRANCH  18  19
BRANCH  18  21
HETATM   21  C   UNK N   1      29.112  17.825   4.657  0.00  0.00     0.070 C 
BRANCH  21  22
HETATM   22  C   UNK N   1      28.215  18.969   5.003  0.00  0.00    -0.056 A 
HETATM   23  C   UNK N   1      28.102  19.369   6.339  0.00  0.00     0.007 A 
HETATM   24  C   UNK N   1      27.204  20.378   6.696  0.00  0.00     0.001 A 
HETATM   25  C   UNK N   1      26.407  20.981   5.719  0.00  0.00     0.000 A 
HETATM   26  C   UNK N   1      26.512  20.579   4.384  0.00  0.00     0.001 A 
HETATM   27  C   UNK N   1      27.411  19.569   4.026  0.00  0.00     0.007 A 
ENDBRANCH  21  22
ENDBRANCH  18  21
ENDBRANCH  16  18
ENDBRANCH  15  16
ENDBRANCH   1  15
TORSDOF 13
ENDMDL
MODEL 6
REMARK VINA RESULT:      -5.5      1.806      2.468
REMARK  13 active torsions:
REMARK  status: ('A' for Active; 'I' for Inactive)
REMARK    1  A    between atoms: C_1  and  O_3 
REMARK    2  A    between atoms: C_1  and  C_4 
REMARK    3  A    between atoms: C_4  and  C_6 
REMARK    4  A    between atoms: C_6  and  N_7 
REMARK    5  A    between atoms: C_6  and  C_8 
REMARK    6  A    between atoms: C_8  and  C_9 
REMARK    7  A    between atoms: C_9  and  C_10 
REMARK    8  A    between atoms: C_10  and  C_12 
REMARK    9  A    between atoms: C_12  and  C_13 
REMARK   10  A    between atoms: C_13  and  C_15 
REMARK   11  A    between atoms: C_15  and  O_16 
REMARK   12  A    between atoms: C_15  and  C_18 
REMARK   13  A    between atoms: C_18  and  C_19 
ROOT
HETATM    1  C   UNK N   1      29.199  25.390  -6.250  0.00  0.00    -0.018 C 
HETATM    2  C   UNK N   1      30.491  25.303  -7.041  0.00  0.00     0.010 C 
ENDROOT
BRANCH   1   3
HETATM    3  C   UNK N   1      29.236  24.370  -5.118  0.00  0.00     0.006 C 
BRANCH   3   4
HETATM    4  C   UNK N   1      29.343  22.948  -5.653  0.00  0.00     0.026 C 
BRANCH   4   5
HETATM    5  C   UNK N   1      30.089  22.019  -4.696  0.00  0.00     0.087 C 
BRANCH   5   6
HETATM    6  C   UNK N   1      31.286  22.724  -4.013  0.00  0.00     0.102 C 
HETATM    7  C   UNK N   1      32.600  22.391  -4.710  0.00  0.00     0.023 C 
BRANCH   6   8
HETATM    8  C   UNK N   1      31.394  22.353  -2.557  0.00  0.00     0.145 C 
HETATM    9  O   UNK N   1      30.702  22.922  -1.728  0.00  0.00    -0.650 OA
BRANCH   8  10
HETATM   10  O   UNK N   1      32.262  21.402  -2.157  0.00  0.00    -0.776 OA
HETATM   11  H   UNK N   1      32.676  21.210  -1.339  0.00  0.00     0.167 HD
ENDBRANCH   8  10
ENDBRANCH   6   8
ENDBRANCH   5   6
BRANCH   5  12
HETATM   12  N   UNK N   1      30.536  20.859  -5.452  0.00  0.00    -0.425 N 
HETATM   13  H   UNK N   1      31.320  20.620  -6.058  0.00  0.00     0.150 HD
HETATM   14  H   UNK N   1      29.892  20.075  -5.349  0.00  0.00     0.150 HD
ENDBRANCH   5  12
ENDBRANCH   4   5
ENDBRANCH   3   4
ENDBRANCH   1   3
BRANCH   1  15
HETATM   15  C   UNK N   1      28.880  26.837  -5.789  0.00  0.00     0.011 C 
BRANCH  15  16
HETATM   16  C   UNK N   1      27.763  27.653  -6.488  0.00  0.00     0.011 C 
HETATM   17  C   UNK N   1      28.344  28.916  -7.111  0.00  0.00     0.012 C 
BRANCH  16  18
HETATM   18  C   UNK N   1      26.559  27.960  -5.570  0.00  0.00     0.128 C 
BRANCH  18  19
HETATM   19  O   UNK N   1      26.930  27.705  -4.229  0.00  0.00    -0.390 OA
HETATM   20  C   UNK N   1      25.823  27.944  -3.399  0.00  0.00     0.202 C 
ENDBRANCH  18  19
BRANCH  18  21
HETATM   21  C   UNK N   1      25.288  27.176  -5.961  0.00  0.00     0.070 C 
BRANCH  21  22
HETATM   22  C   UNK N   1      25.462  25.753  -6.381  0.00  0.00    -0.056 A 
HETATM   23  C   UNK N   1      25.508  24.753  -5.403  0.00  0.00     0.007 A 
HETATM   24  C   UNK N   1      25.758  23.427  -5.766  0.00  0.00     0.001 A 
HETATM   25  C   UNK N   1      25.977  23.100  -7.107  0.00  0.00     0.000 A 
HETATM   26  C   UNK N   1      25.940  24.098  -8.086  0.00  0.00     0.001 A 
HETATM   27  C   UNK N   1      25.689  25.425  -7.723  0.00  0.00     0.007 A 
ENDBRANCH  21  22
ENDBRANCH  18  21
ENDBRANCH  16  18
ENDBRANCH  15  16
ENDBRANCH   1  15
TORSDOF 13
ENDMDL
MODEL 7
REMARK VINA RESULT:      -5.4     11.228     14.915
REMARK  13 active torsions:
REMARK  status: ('A' for Active; 'I' for Inactive)
REMARK    1  A    between atoms: C_1  and  O_3 
REMARK    2  A    between atoms: C_1  and  C_4 
REMARK    3  A    between atoms: C_4  and  C_6 
REMARK    4  A    between atoms: C_6  and  N_7 
REMARK    5  A    between atoms: C_6  and  C_8 
REMARK    6  A    between atoms: C_8  and  C_9 
REMARK    7  A    between atoms: C_9  and  C_10 
REMARK    8  A    between atoms: C_10  and  C_12 
REMARK    9  A    between atoms: C_12  and  C_13 
REMARK   10  A    between atoms: C_13  and  C_15 
REMARK   11  A    between atoms: C_15  and  O_16 
REMARK   12  A    between atoms: C_15  and  C_18 
REMARK   13  A    between atoms: C_18  and  C_19 
ROOT
HETATM    1  C   UNK N   1      30.339  17.187   7.947  0.00  0.00    -0.018 C 
HETATM    2  C   UNK N   1      29.171  17.598   8.825  0.00  0.00     0.010 C 
ENDROOT
BRANCH   1   3
HETATM    3  C   UNK N   1      29.877  17.135   6.494  0.00  0.00     0.006 C 
BRANCH   3   4
HETATM    4  C   UNK N   1      28.598  17.936   6.289  0.00  0.00     0.026 C 
BRANCH   4   5
HETATM    5  C   UNK N   1      28.647  18.799   5.028  0.00  0.00     0.087 C 
BRANCH   5   6
HETATM    6  C   UNK N   1      27.744  20.051   5.142  0.00  0.00     0.102 C 
HETATM    7  C   UNK N   1      27.577  20.487   6.593  0.00  0.00     0.023 C 
BRANCH   6   8
HETATM    8  C   UNK N   1      26.384  19.812   4.540  0.00  0.00     0.145 C 
HETATM    9  O   UNK N   1      26.123  20.242   3.428  0.00  0.00    -0.650 OA
BRANCH   8  10
HETATM   10  O   UNK N   1      25.441  19.136   5.228  0.00  0.00    -0.776 OA
HETATM   11  H   UNK N   1      25.381  18.258   5.548  0.00  0.00     0.167 HD
ENDBRANCH   8  10
ENDBRANCH   6   8
ENDBRANCH   5   6
BRANCH   5  12
HETATM   12  N   UNK N   1      28.242  17.972   3.901  0.00  0.00    -0.425 N 
HETATM   13  H   UNK N   1      27.619  18.056   3.099  0.00  0.00     0.150 HD
HETATM   14  H   UNK N   1      28.707  17.064   3.918  0.00  0.00     0.150 HD
ENDBRANCH   5  12
ENDBRANCH   4   5
ENDBRANCH   3   4
ENDBRANCH   1   3
BRANCH   1  15
HETATM   15  C   UNK N   1      31.597  18.064   8.181  0.00  0.00     0.011 C 
BRANCH  15  16
HETATM   16  C   UNK N   1      32.953  17.406   8.541  0.00  0.00     0.011 C 
HETATM   17  C   UNK N   1      34.104  18.334   8.174  0.00  0.00     0.012 C 
BRANCH  16  18
HETATM   18  C   UNK N   1      33.132  15.994   7.939  0.00  0.00     0.128 C 
BRANCH  18  19
HETATM   19  O   UNK N   1      33.732  15.157   8.909  0.00  0.00    -0.390 OA
HETATM   20  C   UNK N   1      34.926  14.639   8.383  0.00  0.00     0.202 C 
ENDBRANCH  18  19
BRANCH  18  21
HETATM   21  C   UNK N   1      33.938  15.998   6.623  0.00  0.00     0.070 C 
BRANCH  21  22
HETATM   22  C   UNK N   1      33.173  16.173   5.351  0.00  0.00    -0.056 A 
HETATM   23  C   UNK N   1      33.105  17.441   4.763  0.00  0.00     0.007 A 
HETATM   24  C   UNK N   1      32.324  17.646   3.622  0.00  0.00     0.001 A 
HETATM   25  C   UNK N   1      31.597  16.584   3.075  0.00  0.00     0.000 A 
HETATM   26  C   UNK N   1      31.656  15.318   3.665  0.00  0.00     0.001 A 
HETATM   27  C   UNK N   1      32.439  15.113   4.806  0.00  0.00     0.007 A 
ENDBRANCH  21  22
ENDBRANCH  18  21
ENDBRANCH  16  18
ENDBRANCH  15  16
ENDBRANCH   1  15
TORSDOF 13
ENDMDL
MODEL 8
REMARK VINA RESULT:      -5.4     18.180     22.514
REMARK  13 active torsions:
REMARK  status: ('A' for Active; 'I' for Inactive)
REMARK    1  A    between atoms: C_1  and  O_3 
REMARK    2  A    between atoms: C_1  and  C_4 
REMARK    3  A    between atoms: C_4  and  C_6 
REMARK    4  A    between atoms: C_6  and  N_7 
REMARK    5  A    between atoms: C_6  and  C_8 
REMARK    6  A    between atoms: C_8  and  C_9 
REMARK    7  A    between atoms: C_9  and  C_10 
REMARK    8  A    between atoms: C_10  and  C_12 
REMARK    9  A    between atoms: C_12  and  C_13 
REMARK   10  A    between atoms: C_13  and  C_15 
REMARK   11  A    between atoms: C_15  and  O_16 
REMARK   12  A    between atoms: C_15  and  C_18 
REMARK   13  A    between atoms: C_18  and  C_19 
ROOT
HETATM    1  C   UNK N   1      35.785  14.287  11.999  0.00  0.00    -0.018 C 
HETATM    2  C   UNK N   1      36.253  14.904  13.305  0.00  0.00     0.010 C 
ENDROOT
BRANCH   1   3
HETATM    3  C   UNK N   1      36.114  15.235  10.852  0.00  0.00     0.006 C 
BRANCH   3   4
HETATM    4  C   UNK N   1      35.084  16.352  10.742  0.00  0.00     0.026 C 
BRANCH   4   5
HETATM    5  C   UNK N   1      34.212  16.220   9.493  0.00  0.00     0.087 C 
BRANCH   5   6
HETATM    6  C   UNK N   1      33.636  17.582   9.037  0.00  0.00     0.102 C 
HETATM    7  C   UNK N   1      32.267  17.418   8.387  0.00  0.00     0.023 C 
BRANCH   6   8
HETATM    8  C   UNK N   1      34.558  18.282   8.073  0.00  0.00     0.145 C 
HETATM    9  O   UNK N   1      35.305  19.162   8.470  0.00  0.00    -0.650 OA
BRANCH   8  10
HETATM   10  O   UNK N   1      34.557  17.954   6.765  0.00  0.00    -0.776 OA
HETATM   11  H   UNK N   1      35.231  17.726   6.157  0.00  0.00     0.167 HD
ENDBRANCH   8  10
ENDBRANCH   6   8
ENDBRANCH   5   6
BRANCH   5  12
HETATM   12  N   UNK N   1      33.142  15.279   9.789  0.00  0.00    -0.425 N 
HETATM   13  H   UNK N   1      32.449  15.146  10.524  0.00  0.00     0.150 HD
HETATM   14  H   UNK N   1      33.066  14.562   9.069  0.00  0.00     0.150 HD
ENDBRANCH   5  12
ENDBRANCH   4   5
ENDBRANCH   3   4
ENDBRANCH   1   3
BRANCH   1  15
HETATM   15  C   UNK N   1      36.317  12.843  11.800  0.00  0.00     0.011 C 
BRANCH  15  16
HETATM   16  C   UNK N   1      36.273  11.825  12.967  0.00  0.00     0.011 C 
HETATM   17  C   UNK N   1      37.618  11.123  13.107  0.00  0.00     0.012 C 
BRANCH  16  18
HETATM   18  C   UNK N   1      35.103  10.820  12.863  0.00  0.00     0.128 C 
BRANCH  18  19
HETATM   19  O   UNK N   1      34.601  10.840  11.540  0.00  0.00    -0.390 OA
HETATM   20  C   UNK N   1      34.671   9.542  11.010  0.00  0.00     0.202 C 
ENDBRANCH  18  19
BRANCH  18  21
HETATM   21  C   UNK N   1      33.986  11.086  13.894  0.00  0.00     0.070 C 
BRANCH  21  22
HETATM   22  C   UNK N   1      34.403  11.336  15.307  0.00  0.00    -0.056 A 
HETATM   23  C   UNK N   1      34.504  12.653  15.767  0.00  0.00     0.007 A 
HETATM   24  C   UNK N   1      34.976  12.912  17.057  0.00  0.00     0.001 A 
HETATM   25  C   UNK N   1      35.361  11.853  17.885  0.00  0.00     0.000 A 
HETATM   26  C   UNK N   1      35.268  10.536  17.426  0.00  0.00     0.001 A 
HETATM   27  C   UNK N   1      34.795  10.277  16.135  0.00  0.00     0.007 A 
ENDBRANCH  21  22
ENDBRANCH  18  21
ENDBRANCH  16  18
ENDBRANCH  15  16
ENDBRANCH   1  15
TORSDOF 13
ENDMDL
MODEL 9
REMARK VINA RESULT:      -5.4      2.097      4.041
REMARK  13 active torsions:
REMARK  status: ('A' for Active; 'I' for Inactive)
REMARK    1  A    between atoms: C_1  and  O_3 
REMARK    2  A    between atoms: C_1  and  C_4 
REMARK    3  A    between atoms: C_4  and  C_6 
REMARK    4  A    between atoms: C_6  and  N_7 
REMARK    5  A    between atoms: C_6  and  C_8 
REMARK    6  A    between atoms: C_8  and  C_9 
REMARK    7  A    between atoms: C_9  and  C_10 
REMARK    8  A    between atoms: C_10  and  C_12 
REMARK    9  A    between atoms: C_12  and  C_13 
REMARK   10  A    between atoms: C_13  and  C_15 
REMARK   11  A    between atoms: C_15  and  O_16 
REMARK   12  A    between atoms: C_15  and  C_18 
REMARK   13  A    between atoms: C_18  and  C_19 
ROOT
HETATM    1  C   UNK N   1      28.119  24.814  -4.582  0.00  0.00    -0.018 C 
HETATM    2  C   UNK N   1      27.572  24.225  -3.295  0.00  0.00     0.010 C 
ENDROOT
BRANCH   1   3
HETATM    3  C   UNK N   1      29.591  25.158  -4.388  0.00  0.00     0.006 C 
BRANCH   3   4
HETATM    4  C   UNK N   1      30.345  24.018  -3.715  0.00  0.00     0.026 C 
BRANCH   4   5
HETATM    5  C   UNK N   1      31.296  23.302  -4.673  0.00  0.00     0.087 C 
BRANCH   5   6
HETATM    6  C   UNK N   1      31.434  21.797  -4.342  0.00  0.00     0.102 C 
HETATM    7  C   UNK N   1      30.176  21.255  -3.674  0.00  0.00     0.023 C 
BRANCH   6   8
HETATM    8  C   UNK N   1      32.619  21.530  -3.449  0.00  0.00     0.145 C 
HETATM    9  O   UNK N   1      33.736  21.431  -3.930  0.00  0.00    -0.650 OA
BRANCH   8  10
HETATM   10  O   UNK N   1      32.453  21.384  -2.119  0.00  0.00    -0.776 OA
HETATM   11  H   UNK N   1      32.728  20.737  -1.502  0.00  0.00     0.167 HD
ENDBRANCH   8  10
ENDBRANCH   6   8
ENDBRANCH   5   6
BRANCH   5  12
HETATM   12  N   UNK N   1      32.590  23.967  -4.602  0.00  0.00    -0.425 N 
HETATM   13  H   UNK N   1      33.278  24.331  -5.260  0.00  0.00     0.150 HD
HETATM   14  H   UNK N   1      32.886  24.104  -3.637  0.00  0.00     0.150 HD
ENDBRANCH   5  12
ENDBRANCH   4   5
ENDBRANCH   3   4
ENDBRANCH   1   3
BRANCH   1  15
HETATM   15  C   UNK N   1      27.836  23.915  -5.815  0.00  0.00     0.011 C 
BRANCH  15  16
HETATM   16  C   UNK N   1      26.490  24.029  -6.574  0.00  0.00     0.011 C 
HETATM   17  C   UNK N   1      25.851  22.654  -6.727  0.00  0.00     0.012 C 
BRANCH  16  18
HETATM   18  C   UNK N   1      26.606  24.767  -7.927  0.00  0.00     0.128 C 
BRANCH  18  19
HETATM   19  O   UNK N   1      27.976  24.911  -8.252  0.00  0.00    -0.390 OA
HETATM   20  C   UNK N   1      28.081  25.464  -9.537  0.00  0.00     0.202 C 
ENDBRANCH  18  19
BRANCH  18  21
HETATM   21  C   UNK N   1      25.881  26.129  -7.934  0.00  0.00     0.070 C 
BRANCH  21  22
HETATM   22  C   UNK N   1      26.049  27.002  -6.733  0.00  0.00    -0.056 A 
HETATM   23  C   UNK N   1      27.199  27.790  -6.616  0.00  0.00     0.007 A 
HETATM   24  C   UNK N   1      27.418  28.546  -5.461  0.00  0.00     0.001 A 
HETATM   25  C   UNK N   1      26.493  28.505  -4.414  0.00  0.00     0.000 A 
HETATM   26  C   UNK N   1      25.346  27.712  -4.524  0.00  0.00     0.001 A 
HETATM   27  C   UNK N   1      25.126  26.956  -5.680  0.00  0.00     0.007 A 
ENDBRANCH  21  22
ENDBRANCH  18  21
ENDBRANCH  16  18
ENDBRANCH  15  16
ENDBRANCH   1  15
TORSDOF 13
ENDMDL
