MODEL 1
REMARK VINA RESULT:      -6.7      0.000      0.000
REMARK  12 active torsions:
REMARK  status: ('A' for Active; 'I' for Inactive)
REMARK    1  A    between atoms: C_1  and  O_20 
REMARK    2  A    between atoms: C_2  and  C_29 
REMARK    3  A    between atoms: C_3  and  O_19 
REMARK    4  A    between atoms: C_4  and  N_6 
REMARK    5  A    between atoms: C_16  and  N_18 
REMARK    6  A    between atoms: O_20  and  P_21 
REMARK    7  A    between atoms: P_21  and  O_26 
REMARK    8  A    between atoms: P_21  and  O_27 
REMARK    9  A    between atoms: P_22  and  O_25 
REMARK   10  A    between atoms: P_22  and  O_28 
REMARK   11  A    between atoms: O_30  and  P_22 
REMARK   12  A    between atoms: C_29  and  O_30 
ROOT
HETATM    1  C   UNK N   1      32.581  16.620   6.524  0.00  0.00     0.197 C 
HETATM    2  C   UNK N   1      31.573  16.356   7.631  0.00  0.00     0.180 C 
HETATM    3  C   UNK N   1      33.837  16.051   7.109  0.00  0.00     0.199 C 
HETATM    4  C   UNK N   1      33.614  16.546   8.514  0.00  0.00     0.262 C 
HETATM    5  O   UNK N   1      32.298  16.180   8.825  0.00  0.00    -0.353 OA
ENDROOT
BRANCH   4   6
HETATM    6  N   UNK N   1      34.536  16.034   9.530  0.00  0.00    -0.297 N 
HETATM    7  C   UNK N   1      34.758  14.770   9.905  0.00  0.00     0.142 A 
HETATM    8  C   UNK N   1      35.761  14.741  10.805  0.00  0.00     0.122 A 
HETATM    9  N   UNK N   1      34.131  13.647   9.479  0.00  0.00    -0.336 N 
HETATM   10  N   UNK N   1      36.208  15.988  11.034  0.00  0.00    -0.346 N 
HETATM   11  C   UNK N   1      36.190  13.535  11.331  0.00  0.00     0.131 A 
HETATM   12  C   UNK N   1      35.437  16.773  10.232  0.00  0.00     0.188 A 
ATOM     13  HN  UNK N   1      36.955  16.280  11.665  1.00  0.00     0.167 HD
HETATM   14  N   UNK N   1      35.559  12.396  10.918  0.00  0.00    -0.337 N 
HETATM   15  C   UNK N   1      34.535  12.448  10.002  0.00  0.00     0.183 A 
ATOM     16  HN  UNK N   1      35.852  11.495  11.295  1.00  0.00     0.168 HD
ATOM     17  HN  UNK N   1      33.381  13.694   8.790  1.00  0.00     0.168 HD
BRANCH  11  18
HETATM   18  N   UNK N   1      37.252  13.476  12.257  0.00  0.00    -0.383 N 
HETATM   19  H   UNK N   1      38.169  13.220  12.003  0.00  0.00     0.157 HD
HETATM   20  H   UNK N   1      37.069  13.700  13.198  0.00  0.00     0.157 HD
ENDBRANCH  11  18
ENDBRANCH   4   6
BRANCH   3  21
HETATM   21  O   UNK N   1      34.953  16.640   6.517  0.00  0.00    -0.388 OA
HETATM   22  H   UNK N   1      35.897  16.441   6.618  0.00  0.00     0.210 HD
ENDBRANCH   3  21
BRANCH   1  23
HETATM   23  O   UNK N   1      32.224  15.994   5.323  0.00  0.00    -0.286 OA
BRANCH  23  24
HETATM   24  P   UNK N   1      31.588  17.269   4.320  0.00  0.00     0.391 P 
HETATM   25  O   UNK N   1      33.095  17.641   4.304  0.00  0.00    -0.632 OA
BRANCH  24  26
HETATM   26  O   UNK N   1      31.879  17.356   2.611  0.00  0.00    -0.307 OA
HETATM   27  H   UNK N   1      32.764  17.276   2.223  0.00  0.00     0.222 HD
ENDBRANCH  24  26
BRANCH  24  28
HETATM   28  O   UNK N   1      31.423  15.725   3.539  0.00  0.00    -0.307 OA
HETATM   29  H   UNK N   1      31.227  14.786   3.677  0.00  0.00     0.222 HD
ENDBRANCH  24  28
ENDBRANCH  23  24
ENDBRANCH   1  23
BRANCH   2  30
HETATM   30  C   UNK N   1      30.627  17.542   7.803  0.00  0.00     0.215 C 
BRANCH  30  31
HETATM   31  O   UNK N   1      29.284  17.127   7.790  0.00  0.00    -0.294 OA
BRANCH  31  32
HETATM   32  P   UNK N   1      28.445  17.850   9.151  0.00  0.00     0.390 P 
HETATM   33  O   UNK N   1      27.541  16.788   9.840  0.00  0.00    -0.632 OA
BRANCH  32  34
HETATM   34  O   UNK N   1      27.413  19.145   8.627  0.00  0.00    -0.307 OA
HETATM   35  H   UNK N   1      27.280  20.099   8.516  0.00  0.00     0.222 HD
ENDBRANCH  32  34
BRANCH  32  36
HETATM   36  O   UNK N   1      29.556  18.415  10.358  0.00  0.00    -0.307 OA
HETATM   37  H   UNK N   1      30.249  19.064  10.159  0.00  0.00     0.222 HD
ENDBRANCH  32  36
ENDBRANCH  31  32
ENDBRANCH  30  31
ENDBRANCH   2  30
TORSDOF 12
ENDMDL
MODEL 2
REMARK VINA RESULT:      -6.6      9.696     12.192
REMARK  12 active torsions:
REMARK  status: ('A' for Active; 'I' for Inactive)
REMARK    1  A    between atoms: C_1  and  O_20 
REMARK    2  A    between atoms: C_2  and  C_29 
REMARK    3  A    between atoms: C_3  and  O_19 
REMARK    4  A    between atoms: C_4  and  N_6 
REMARK    5  A    between atoms: C_16  and  N_18 
REMARK    6  A    between atoms: O_20  and  P_21 
REMARK    7  A    between atoms: P_21  and  O_26 
REMARK    8  A    between atoms: P_21  and  O_27 
REMARK    9  A    between atoms: P_22  and  O_25 
REMARK   10  A    between atoms: P_22  and  O_28 
REMARK   11  A    between atoms: O_30  and  P_22 
REMARK   12  A    between atoms: C_29  and  O_30 
ROOT
HETATM    1  C   UNK N   1      20.972  16.556   4.355  0.00  0.00     0.197 C 
HETATM    2  C   UNK N   1      21.037  18.074   4.297  0.00  0.00     0.180 C 
HETATM    3  C   UNK N   1      22.368  16.203   4.764  0.00  0.00     0.199 C 
HETATM    4  C   UNK N   1      23.065  17.228   3.907  0.00  0.00     0.262 C 
HETATM    5  O   UNK N   1      22.390  18.430   4.157  0.00  0.00    -0.353 OA
ENDROOT
BRANCH   4   6
HETATM    6  N   UNK N   1      24.501  17.393   4.141  0.00  0.00    -0.297 N 
HETATM    7  C   UNK N   1      25.293  18.421   3.821  0.00  0.00     0.142 A 
HETATM    8  C   UNK N   1      26.530  18.201   4.308  0.00  0.00     0.122 A 
HETATM    9  N   UNK N   1      24.971  19.547   3.138  0.00  0.00    -0.336 N 
HETATM   10  N   UNK N   1      26.565  17.021   4.953  0.00  0.00    -0.346 N 
HETATM   11  C   UNK N   1      27.530  19.139   4.123  0.00  0.00     0.131 A 
HETATM   12  C   UNK N   1      25.297  16.539   4.839  0.00  0.00     0.188 A 
ATOM     13  HN  UNK N   1      27.361  16.587   5.421  1.00  0.00     0.167 HD
HETATM   14  N   UNK N   1      27.221  20.273   3.426  0.00  0.00    -0.337 N 
HETATM   15  C   UNK N   1      25.954  20.477   2.934  0.00  0.00     0.183 A 
ATOM     16  HN  UNK N   1      27.941  20.978   3.270  1.00  0.00     0.168 HD
ATOM     17  HN  UNK N   1      24.025  19.695   2.787  1.00  0.00     0.168 HD
BRANCH  11  18
HETATM   18  N   UNK N   1      28.826  18.942   4.643  0.00  0.00    -0.383 N 
HETATM   19  H   UNK N   1      29.638  19.001   4.090  0.00  0.00     0.157 HD
HETATM   20  H   UNK N   1      28.922  18.736   5.601  0.00  0.00     0.157 HD
ENDBRANCH  11  18
ENDBRANCH   4   6
BRANCH   3  21
HETATM   21  O   UNK N   1      22.670  14.900   4.373  0.00  0.00    -0.388 OA
HETATM   22  H   UNK N   1      22.560  14.459   3.516  0.00  0.00     0.210 HD
ENDBRANCH   3  21
BRANCH   1  23
HETATM   23  O   UNK N   1      20.018  16.102   5.275  0.00  0.00    -0.286 OA
BRANCH  23  24
HETATM   24  P   UNK N   1      19.261  14.735   4.504  0.00  0.00     0.391 P 
HETATM   25  O   UNK N   1      19.670  14.089   5.855  0.00  0.00    -0.632 OA
BRANCH  24  26
HETATM   26  O   UNK N   1      17.737  14.086   5.024  0.00  0.00    -0.307 OA
HETATM   27  H   UNK N   1      17.193  13.508   4.466  0.00  0.00     0.222 HD
ENDBRANCH  24  26
BRANCH  24  28
HETATM   28  O   UNK N   1      18.095  15.975   4.851  0.00  0.00    -0.307 OA
HETATM   29  H   UNK N   1      17.966  16.852   5.244  0.00  0.00     0.222 HD
ENDBRANCH  24  28
ENDBRANCH  23  24
ENDBRANCH   1  23
BRANCH   2  30
HETATM   30  C   UNK N   1      20.262  18.608   3.094  0.00  0.00     0.215 C 
BRANCH  30  31
HETATM   31  O   UNK N   1      20.288  20.013   3.056  0.00  0.00    -0.294 OA
BRANCH  31  32
HETATM   32  P   UNK N   1      20.946  20.535   1.515  0.00  0.00     0.390 P 
HETATM   33  O   UNK N   1      22.498  20.591   1.594  0.00  0.00    -0.632 OA
BRANCH  32  34
HETATM   34  O   UNK N   1      20.391  22.131   1.112  0.00  0.00    -0.307 OA
HETATM   35  H   UNK N   1      19.701  22.808   1.190  0.00  0.00     0.222 HD
ENDBRANCH  32  34
BRANCH  32  36
HETATM   36  O   UNK N   1      20.552  19.422   0.244  0.00  0.00    -0.307 OA
HETATM   37  H   UNK N   1      20.389  18.481   0.413  0.00  0.00     0.222 HD
ENDBRANCH  32  36
ENDBRANCH  31  32
ENDBRANCH  30  31
ENDBRANCH   2  30
TORSDOF 12
ENDMDL
MODEL 3
REMARK VINA RESULT:      -6.5      1.486      1.932
REMARK  12 active torsions:
REMARK  status: ('A' for Active; 'I' for Inactive)
REMARK    1  A    between atoms: C_1  and  O_20 
REMARK    2  A    between atoms: C_2  and  C_29 
REMARK    3  A    between atoms: C_3  and  O_19 
REMARK    4  A    between atoms: C_4  and  N_6 
REMARK    5  A    between atoms: C_16  and  N_18 
REMARK    6  A    between atoms: O_20  and  P_21 
REMARK    7  A    between atoms: P_21  and  O_26 
REMARK    8  A    between atoms: P_21  and  O_27 
REMARK    9  A    between atoms: P_22  and  O_25 
REMARK   10  A    between atoms: P_22  and  O_28 
REMARK   11  A    between atoms: O_30  and  P_22 
REMARK   12  A    between atoms: C_29  and  O_30 
ROOT
HETATM    1  C   UNK N   1      32.480  17.535   7.431  0.00  0.00     0.197 C 
HETATM    2  C   UNK N   1      31.758  16.396   8.135  0.00  0.00     0.180 C 
HETATM    3  C   UNK N   1      33.915  17.190   7.682  0.00  0.00     0.199 C 
HETATM    4  C   UNK N   1      33.739  16.733   9.106  0.00  0.00     0.262 C 
HETATM    5  O   UNK N   1      32.652  15.849   9.073  0.00  0.00    -0.353 OA
ENDROOT
BRANCH   4   6
HETATM    6  N   UNK N   1      34.899  16.088   9.723  0.00  0.00    -0.297 N 
HETATM    7  C   UNK N   1      35.551  14.985   9.341  0.00  0.00     0.142 A 
HETATM    8  C   UNK N   1      36.622  14.800  10.139  0.00  0.00     0.122 A 
HETATM    9  N   UNK N   1      35.255  14.149   8.317  0.00  0.00    -0.336 N 
HETATM   10  N   UNK N   1      36.684  15.781  11.057  0.00  0.00    -0.346 N 
HETATM   11  C   UNK N   1      37.471  13.729   9.928  0.00  0.00     0.131 A 
HETATM   12  C   UNK N   1      35.609  16.568  10.780  0.00  0.00     0.188 A 
ATOM     13  HN  UNK N   1      37.379  15.906  11.793  1.00  0.00     0.167 HD
HETATM   14  N   UNK N   1      37.178  12.871   8.906  0.00  0.00    -0.337 N 
HETATM   15  C   UNK N   1      36.078  13.075   8.106  0.00  0.00     0.183 A 
ATOM     16  HN  UNK N   1      37.784  12.070   8.732  1.00  0.00     0.168 HD
ATOM     17  HN  UNK N   1      34.444  14.315   7.721  1.00  0.00     0.168 HD
BRANCH  11  18
HETATM   18  N   UNK N   1      38.611  13.527  10.734  0.00  0.00    -0.383 N 
HETATM   19  H   UNK N   1      38.959  12.632  10.953  0.00  0.00     0.157 HD
HETATM   20  H   UNK N   1      39.078  14.315  11.094  0.00  0.00     0.157 HD
ENDBRANCH  11  18
ENDBRANCH   4   6
BRANCH   3  21
HETATM   21  O   UNK N   1      34.707  18.334   7.592  0.00  0.00    -0.388 OA
HETATM   22  H   UNK N   1      34.928  19.000   8.263  0.00  0.00     0.210 HD
ENDBRANCH   3  21
BRANCH   1  23
HETATM   23  O   UNK N   1      32.178  17.588   6.064  0.00  0.00    -0.286 OA
BRANCH  23  24
HETATM   24  P   UNK N   1      33.132  16.322   5.341  0.00  0.00     0.391 P 
HETATM   25  O   UNK N   1      31.729  15.951   4.789  0.00  0.00    -0.632 OA
BRANCH  24  26
HETATM   26  O   UNK N   1      33.465  16.250   3.639  0.00  0.00    -0.307 OA
HETATM   27  H   UNK N   1      34.284  16.593   3.248  0.00  0.00     0.222 HD
ENDBRANCH  24  26
BRANCH  24  28
HETATM   28  O   UNK N   1      33.558  17.872   4.682  0.00  0.00    -0.307 OA
HETATM   29  H   UNK N   1      33.864  18.767   4.899  0.00  0.00     0.222 HD
ENDBRANCH  24  28
ENDBRANCH  23  24
ENDBRANCH   1  23
BRANCH   2  30
HETATM   30  C   UNK N   1      30.523  16.907   8.875  0.00  0.00     0.215 C 
BRANCH  30  31
HETATM   31  O   UNK N   1      30.172  18.199   8.446  0.00  0.00    -0.294 OA
BRANCH  31  32
HETATM   32  P   UNK N   1      28.476  18.214   7.995  0.00  0.00     0.390 P 
HETATM   33  O   UNK N   1      28.146  19.522   7.221  0.00  0.00    -0.632 OA
BRANCH  32  34
HETATM   34  O   UNK N   1      27.459  18.176   9.403  0.00  0.00    -0.307 OA
HETATM   35  H   UNK N   1      26.701  17.782   9.861  0.00  0.00     0.222 HD
ENDBRANCH  32  34
BRANCH  32  36
HETATM   36  O   UNK N   1      28.087  16.898   6.935  0.00  0.00    -0.307 OA
HETATM   37  H   UNK N   1      28.765  16.421   6.432  0.00  0.00     0.222 HD
ENDBRANCH  32  36
ENDBRANCH  31  32
ENDBRANCH  30  31
ENDBRANCH   2  30
TORSDOF 12
ENDMDL
MODEL 4
REMARK VINA RESULT:      -6.5      3.913      5.737
REMARK  12 active torsions:
REMARK  status: ('A' for Active; 'I' for Inactive)
REMARK    1  A    between atoms: C_1  and  O_20 
REMARK    2  A    between atoms: C_2  and  C_29 
REMARK    3  A    between atoms: C_3  and  O_19 
REMARK    4  A    between atoms: C_4  and  N_6 
REMARK    5  A    between atoms: C_16  and  N_18 
REMARK    6  A    between atoms: O_20  and  P_21 
REMARK    7  A    between atoms: P_21  and  O_26 
REMARK    8  A    between atoms: P_21  and  O_27 
REMARK    9  A    between atoms: P_22  and  O_25 
REMARK   10  A    between atoms: P_22  and  O_28 
REMARK   11  A    between atoms: O_30  and  P_22 
REMARK   12  A    between atoms: C_29  and  O_30 
ROOT
HETATM    1  C   UNK N   1      36.175  14.222   9.991  0.00  0.00     0.197 C 
HETATM    2  C   UNK N   1      34.778  14.709  10.340  0.00  0.00     0.180 C 
HETATM    3  C   UNK N   1      36.556  13.465  11.226  0.00  0.00     0.199 C 
HETATM    4  C   UNK N   1      35.961  14.434  12.213  0.00  0.00     0.262 C 
HETATM    5  O   UNK N   1      34.665  14.684  11.742  0.00  0.00    -0.353 OA
ENDROOT
BRANCH   4   6
HETATM    6  N   UNK N   1      35.917  13.987  13.607  0.00  0.00    -0.297 N 
HETATM    7  C   UNK N   1      35.272  12.943  14.136  0.00  0.00     0.142 A 
HETATM    8  C   UNK N   1      35.583  12.840  15.443  0.00  0.00     0.122 A 
HETATM    9  N   UNK N   1      34.439  12.071  13.517  0.00  0.00    -0.336 N 
HETATM   10  N   UNK N   1      36.437  13.820  15.789  0.00  0.00    -0.346 N 
HETATM   11  C   UNK N   1      35.051  11.818  16.208  0.00  0.00     0.131 A 
HETATM   12  C   UNK N   1      36.632  14.517  14.636  0.00  0.00     0.188 A 
ATOM     13  HN  UNK N   1      36.845  14.000  16.707  1.00  0.00     0.167 HD
HETATM   14  N   UNK N   1      34.201  10.939  15.599  0.00  0.00    -0.337 N 
HETATM   15  C   UNK N   1      33.893  11.063  14.266  0.00  0.00     0.183 A 
ATOM     16  HN  UNK N   1      33.790  10.179  16.142  1.00  0.00     0.168 HD
ATOM     17  HN  UNK N   1      34.226  12.164  12.524  1.00  0.00     0.168 HD
BRANCH  11  18
HETATM   18  N   UNK N   1      35.380  11.676  17.573  0.00  0.00    -0.383 N 
HETATM   19  H   UNK N   1      35.677  10.823  17.965  0.00  0.00     0.157 HD
HETATM   20  H   UNK N   1      35.307  12.464  18.158  0.00  0.00     0.157 HD
ENDBRANCH  11  18
ENDBRANCH   4   6
BRANCH   3  21
HETATM   21  O   UNK N   1      37.944  13.391  11.336  0.00  0.00    -0.388 OA
HETATM   22  H   UNK N   1      38.608  13.075  10.703  0.00  0.00     0.210 HD
ENDBRANCH   3  21
BRANCH   1  23
HETATM   23  O   UNK N   1      36.182  13.410   8.849  0.00  0.00    -0.286 OA
BRANCH  23  24
HETATM   24  P   UNK N   1      37.659  13.812   8.016  0.00  0.00     0.391 P 
HETATM   25  O   UNK N   1      37.765  12.264   8.019  0.00  0.00    -0.632 OA
BRANCH  24  26
HETATM   26  O   UNK N   1      37.901  13.505   6.326  0.00  0.00    -0.307 OA
HETATM   27  H   UNK N   1      37.939  14.212   5.662  0.00  0.00     0.222 HD
ENDBRANCH  24  26
BRANCH  24  28
HETATM   28  O   UNK N   1      36.273  14.240   7.060  0.00  0.00    -0.307 OA
HETATM   29  H   UNK N   1      35.532  14.860   6.973  0.00  0.00     0.222 HD
ENDBRANCH  24  28
ENDBRANCH  23  24
ENDBRANCH   1  23
BRANCH   2  30
HETATM   30  C   UNK N   1      34.563  16.141   9.857  0.00  0.00     0.215 C 
BRANCH  30  31
HETATM   31  O   UNK N   1      34.714  16.235   8.462  0.00  0.00    -0.294 OA
BRANCH  31  32
HETATM   32  P   UNK N   1      34.231  17.839   7.938  0.00  0.00     0.390 P 
HETATM   33  O   UNK N   1      32.799  18.157   8.456  0.00  0.00    -0.632 OA
BRANCH  32  34
HETATM   34  O   UNK N   1      34.187  17.937   6.204  0.00  0.00    -0.307 OA
HETATM   35  H   UNK N   1      33.918  18.430   5.413  0.00  0.00     0.222 HD
ENDBRANCH  32  34
BRANCH  32  36
HETATM   36  O   UNK N   1      35.277  19.062   8.585  0.00  0.00    -0.307 OA
HETATM   37  H   UNK N   1      35.654  19.765   8.033  0.00  0.00     0.222 HD
ENDBRANCH  32  36
ENDBRANCH  31  32
ENDBRANCH  30  31
ENDBRANCH   2  30
TORSDOF 12
ENDMDL
MODEL 5
REMARK VINA RESULT:      -6.4     14.264     16.599
REMARK  12 active torsions:
REMARK  status: ('A' for Active; 'I' for Inactive)
REMARK    1  A    between atoms: C_1  and  O_20 
REMARK    2  A    between atoms: C_2  and  C_29 
REMARK    3  A    between atoms: C_3  and  O_19 
REMARK    4  A    between atoms: C_4  and  N_6 
REMARK    5  A    between atoms: C_16  and  N_18 
REMARK    6  A    between atoms: O_20  and  P_21 
REMARK    7  A    between atoms: P_21  and  O_26 
REMARK    8  A    between atoms: P_21  and  O_27 
REMARK    9  A    between atoms: P_22  and  O_25 
REMARK   10  A    between atoms: P_22  and  O_28 
REMARK   11  A    between atoms: O_30  and  P_22 
REMARK   12  A    between atoms: C_29  and  O_30 
ROOT
HETATM    1  C   UNK N   1      26.411  25.447  -4.863  0.00  0.00     0.197 C 
HETATM    2  C   UNK N   1      27.371  25.511  -6.040  0.00  0.00     0.180 C 
HETATM    3  C   UNK N   1      27.292  24.913  -3.776  0.00  0.00     0.199 C 
HETATM    4  C   UNK N   1      28.033  23.915  -4.627  0.00  0.00     0.262 C 
HETATM    5  O   UNK N   1      28.434  24.632  -5.763  0.00  0.00    -0.353 OA
ENDROOT
BRANCH   4   6
HETATM    6  N   UNK N   1      29.188  23.268  -4.002  0.00  0.00    -0.297 N 
HETATM    7  C   UNK N   1      29.941  22.263  -4.461  0.00  0.00     0.142 A 
HETATM    8  C   UNK N   1      30.961  22.043  -3.609  0.00  0.00     0.122 A 
HETATM    9  N   UNK N   1      29.780  21.548  -5.601  0.00  0.00    -0.336 N 
HETATM   10  N   UNK N   1      30.888  22.900  -2.576  0.00  0.00    -0.346 N 
HETATM   11  C   UNK N   1      31.896  21.059  -3.879  0.00  0.00     0.131 A 
HETATM   12  C   UNK N   1      29.784  23.651  -2.840  0.00  0.00     0.188 A 
ATOM     13  HN  UNK N   1      31.517  22.972  -1.775  1.00  0.00     0.167 HD
HETATM   14  N   UNK N   1      31.739  20.323  -5.019  0.00  0.00    -0.337 N 
HETATM   15  C   UNK N   1      30.689  20.561  -5.874  0.00  0.00     0.183 A 
ATOM     16  HN  UNK N   1      32.410  19.588  -5.239  1.00  0.00     0.168 HD
ATOM     17  HN  UNK N   1      29.005  21.739  -6.236  1.00  0.00     0.168 HD
BRANCH  11  18
HETATM   18  N   UNK N   1      32.985  20.825  -3.014  0.00  0.00    -0.383 N 
HETATM   19  H   UNK N   1      33.827  21.333  -3.065  0.00  0.00     0.157 HD
HETATM   20  H   UNK N   1      32.900  20.122  -2.330  0.00  0.00     0.157 HD
ENDBRANCH  11  18
ENDBRANCH   4   6
BRANCH   3  21
HETATM   21  O   UNK N   1      26.522  24.293  -2.793  0.00  0.00    -0.388 OA
HETATM   22  H   UNK N   1      26.224  23.373  -2.715  0.00  0.00     0.210 HD
ENDBRANCH   3  21
BRANCH   1  23
HETATM   23  O   UNK N   1      25.879  26.703  -4.545  0.00  0.00    -0.286 OA
BRANCH  23  24
HETATM   24  P   UNK N   1      27.180  27.560  -3.763  0.00  0.00     0.391 P 
HETATM   25  O   UNK N   1      26.777  28.605  -4.838  0.00  0.00    -0.632 OA
BRANCH  24  26
HETATM   26  O   UNK N   1      26.922  28.959  -2.769  0.00  0.00    -0.307 OA
HETATM   27  H   UNK N   1      26.209  29.016  -2.114  0.00  0.00     0.222 HD
ENDBRANCH  24  26
BRANCH  24  28
HETATM   28  O   UNK N   1      25.829  27.370  -2.687  0.00  0.00    -0.307 OA
HETATM   29  H   UNK N   1      24.916  27.050  -2.612  0.00  0.00     0.222 HD
ENDBRANCH  24  28
ENDBRANCH  23  24
ENDBRANCH   1  23
BRANCH   2  30
HETATM   30  C   UNK N   1      26.686  25.060  -7.328  0.00  0.00     0.215 C 
BRANCH  30  31
HETATM   31  O   UNK N   1      25.483  24.388  -7.055  0.00  0.00    -0.294 OA
BRANCH  31  32
HETATM   32  P   UNK N   1      25.627  22.717  -7.572  0.00  0.00     0.390 P 
HETATM   33  O   UNK N   1      25.286  22.599  -9.085  0.00  0.00    -0.632 OA
BRANCH  32  34
HETATM   34  O   UNK N   1      24.511  21.703  -6.710  0.00  0.00    -0.307 OA
HETATM   35  H   UNK N   1      24.200  21.356  -5.859  0.00  0.00     0.222 HD
ENDBRANCH  32  34
BRANCH  32  36
HETATM   36  O   UNK N   1      27.247  22.128  -7.380  0.00  0.00    -0.307 OA
HETATM   37  H   UNK N   1      27.729  22.204  -6.542  0.00  0.00     0.222 HD
ENDBRANCH  32  36
ENDBRANCH  31  32
ENDBRANCH  30  31
ENDBRANCH   2  30
TORSDOF 12
ENDMDL
MODEL 6
REMARK VINA RESULT:      -6.3      4.595      7.867
REMARK  12 active torsions:
REMARK  status: ('A' for Active; 'I' for Inactive)
REMARK    1  A    between atoms: C_1  and  O_20 
REMARK    2  A    between atoms: C_2  and  C_29 
REMARK    3  A    between atoms: C_3  and  O_19 
REMARK    4  A    between atoms: C_4  and  N_6 
REMARK    5  A    between atoms: C_16  and  N_18 
REMARK    6  A    between atoms: O_20  and  P_21 
REMARK    7  A    between atoms: P_21  and  O_26 
REMARK    8  A    between atoms: P_21  and  O_27 
REMARK    9  A    between atoms: P_22  and  O_25 
REMARK   10  A    between atoms: P_22  and  O_28 
REMARK   11  A    between atoms: O_30  and  P_22 
REMARK   12  A    between atoms: C_29  and  O_30 
ROOT
HETATM    1  C   UNK N   1      32.004  15.963   8.161  0.00  0.00     0.197 C 
HETATM    2  C   UNK N   1      31.567  15.205   6.917  0.00  0.00     0.180 C 
HETATM    3  C   UNK N   1      30.799  16.804   8.449  0.00  0.00     0.199 C 
HETATM    4  C   UNK N   1      30.487  17.156   7.018  0.00  0.00     0.262 C 
HETATM    5  O   UNK N   1      30.520  15.937   6.327  0.00  0.00    -0.353 OA
ENDROOT
BRANCH   4   6
HETATM    6  N   UNK N   1      29.212  17.837   6.787  0.00  0.00    -0.297 N 
HETATM    7  C   UNK N   1      28.398  17.763   5.728  0.00  0.00     0.142 A 
HETATM    8  C   UNK N   1      27.282  18.478   5.972  0.00  0.00     0.122 A 
HETATM    9  N   UNK N   1      28.588  17.084   4.571  0.00  0.00    -0.336 N 
HETATM   10  N   UNK N   1      27.351  19.032   7.195  0.00  0.00    -0.346 N 
HETATM   11  C   UNK N   1      26.273  18.538   5.027  0.00  0.00     0.131 A 
HETATM   12  C   UNK N   1      28.553  18.620   7.683  0.00  0.00     0.188 A 
ATOM     13  HN  UNK N   1      26.659  19.626   7.653  1.00  0.00     0.167 HD
HETATM   14  N   UNK N   1      26.456  17.867   3.851  0.00  0.00    -0.337 N 
HETATM   15  C   UNK N   1      27.604  17.148   3.621  0.00  0.00     0.183 A 
ATOM     16  HN  UNK N   1      25.731  17.901   3.135  1.00  0.00     0.168 HD
ATOM     17  HN  UNK N   1      29.438  16.542   4.413  1.00  0.00     0.168 HD
BRANCH  11  18
HETATM   18  N   UNK N   1      25.085  19.260   5.268  0.00  0.00    -0.383 N 
HETATM   19  H   UNK N   1      25.073  20.130   5.729  0.00  0.00     0.157 HD
HETATM   20  H   UNK N   1      24.232  18.877   4.962  0.00  0.00     0.157 HD
ENDBRANCH  11  18
ENDBRANCH   4   6
BRANCH   3  21
HETATM   21  O   UNK N   1      31.161  17.923   9.198  0.00  0.00    -0.388 OA
HETATM   22  H   UNK N   1      31.963  18.101   9.714  0.00  0.00     0.210 HD
ENDBRANCH   3  21
BRANCH   1  23
HETATM   23  O   UNK N   1      32.316  15.102   9.222  0.00  0.00    -0.286 OA
BRANCH  23  24
HETATM   24  P   UNK N   1      34.016  15.348   9.518  0.00  0.00     0.391 P 
HETATM   25  O   UNK N   1      33.616  16.771   9.046  0.00  0.00    -0.632 OA
BRANCH  24  26
HETATM   26  O   UNK N   1      34.613  16.302  10.839  0.00  0.00    -0.307 OA
HETATM   27  H   UNK N   1      34.370  17.233  10.968  0.00  0.00     0.222 HD
ENDBRANCH  24  26
BRANCH  24  28
HETATM   28  O   UNK N   1      33.167  15.032  11.002  0.00  0.00    -0.307 OA
HETATM   29  H   UNK N   1      33.156  14.493  11.807  0.00  0.00     0.222 HD
ENDBRANCH  24  28
ENDBRANCH  23  24
ENDBRANCH   1  23
BRANCH   2  30
HETATM   30  C   UNK N   1      32.713  15.095   5.914  0.00  0.00     0.215 C 
BRANCH  30  31
HETATM   31  O   UNK N   1      32.230  14.883   4.611  0.00  0.00    -0.294 OA
BRANCH  31  32
HETATM   32  P   UNK N   1      32.603  16.284   3.623  0.00  0.00     0.390 P 
HETATM   33  O   UNK N   1      33.326  17.360   4.482  0.00  0.00    -0.632 OA
BRANCH  32  34
HETATM   34  O   UNK N   1      31.153  17.008   3.000  0.00  0.00    -0.307 OA
HETATM   35  H   UNK N   1      30.607  17.228   2.229  0.00  0.00     0.222 HD
ENDBRANCH  32  34
BRANCH  32  36
HETATM   36  O   UNK N   1      33.680  15.879   2.325  0.00  0.00    -0.307 OA
HETATM   37  H   UNK N   1      33.406  15.321   1.580  0.00  0.00     0.222 HD
ENDBRANCH  32  36
ENDBRANCH  31  32
ENDBRANCH  30  31
ENDBRANCH   2  30
TORSDOF 12
ENDMDL
MODEL 7
REMARK VINA RESULT:      -6.3      1.299      2.025
REMARK  12 active torsions:
REMARK  status: ('A' for Active; 'I' for Inactive)
REMARK    1  A    between atoms: C_1  and  O_20 
REMARK    2  A    between atoms: C_2  and  C_29 
REMARK    3  A    between atoms: C_3  and  O_19 
REMARK    4  A    between atoms: C_4  and  N_6 
REMARK    5  A    between atoms: C_16  and  N_18 
REMARK    6  A    between atoms: O_20  and  P_21 
REMARK    7  A    between atoms: P_21  and  O_26 
REMARK    8  A    between atoms: P_21  and  O_27 
REMARK    9  A    between atoms: P_22  and  O_25 
REMARK   10  A    between atoms: P_22  and  O_28 
REMARK   11  A    between atoms: O_30  and  P_22 
REMARK   12  A    between atoms: C_29  and  O_30 
ROOT
HETATM    1  C   UNK N   1      32.041  16.201   6.075  0.00  0.00     0.197 C 
HETATM    2  C   UNK N   1      31.471  16.004   7.471  0.00  0.00     0.180 C 
HETATM    3  C   UNK N   1      33.347  15.476   6.171  0.00  0.00     0.199 C 
HETATM    4  C   UNK N   1      33.700  15.935   7.562  0.00  0.00     0.262 C 
HETATM    5  O   UNK N   1      32.547  15.703   8.325  0.00  0.00    -0.353 OA
ENDROOT
BRANCH   4   6
HETATM    6  N   UNK N   1      34.857  15.286   8.179  0.00  0.00    -0.297 N 
HETATM    7  C   UNK N   1      35.289  15.360   9.443  0.00  0.00     0.142 A 
HETATM    8  C   UNK N   1      36.335  14.527   9.607  0.00  0.00     0.122 A 
HETATM    9  N   UNK N   1      34.793  16.111  10.456  0.00  0.00    -0.336 N 
HETATM   10  N   UNK N   1      36.605  13.897   8.450  0.00  0.00    -0.346 N 
HETATM   11  C   UNK N   1      36.946  14.410  10.843  0.00  0.00     0.131 A 
HETATM   12  C   UNK N   1      35.677  14.381   7.580  0.00  0.00     0.188 A 
ATOM     13  HN  UNK N   1      37.339  13.212   8.266  1.00  0.00     0.167 HD
HETATM   14  N   UNK N   1      36.463  15.170  11.870  0.00  0.00    -0.337 N 
HETATM   15  C   UNK N   1      35.397  16.017  11.681  0.00  0.00     0.183 A 
ATOM     16  HN  UNK N   1      36.899  15.108  12.790  1.00  0.00     0.168 HD
ATOM     17  HN  UNK N   1      33.993  16.728  10.309  1.00  0.00     0.168 HD
BRANCH  11  18
HETATM   18  N   UNK N   1      38.028  13.528  11.046  0.00  0.00    -0.383 N 
HETATM   19  H   UNK N   1      38.415  13.352  11.934  0.00  0.00     0.157 HD
HETATM   20  H   UNK N   1      38.414  13.069  10.264  0.00  0.00     0.157 HD
ENDBRANCH  11  18
ENDBRANCH   4   6
BRANCH   3  21
HETATM   21  O   UNK N   1      34.239  15.962   5.216  0.00  0.00    -0.388 OA
HETATM   22  H   UNK N   1      34.590  16.857   5.082  0.00  0.00     0.210 HD
ENDBRANCH   3  21
BRANCH   1  23
HETATM   23  O   UNK N   1      31.209  15.666   5.083  0.00  0.00    -0.286 OA
BRANCH  23  24
HETATM   24  P   UNK N   1      30.826  17.009   4.041  0.00  0.00     0.391 P 
HETATM   25  O   UNK N   1      31.911  16.302   3.183  0.00  0.00    -0.632 OA
BRANCH  24  26
HETATM   26  O   UNK N   1      29.976  16.822   2.539  0.00  0.00    -0.307 OA
HETATM   27  H   UNK N   1      30.167  17.361   1.755  0.00  0.00     0.222 HD
ENDBRANCH  24  26
BRANCH  24  28
HETATM   28  O   UNK N   1      29.476  15.923   4.173  0.00  0.00    -0.307 OA
HETATM   29  H   UNK N   1      29.050  15.255   4.732  0.00  0.00     0.222 HD
ENDBRANCH  24  28
ENDBRANCH  23  24
ENDBRANCH   1  23
BRANCH   2  30
HETATM   30  C   UNK N   1      30.793  17.279   7.968  0.00  0.00     0.215 C 
BRANCH  30  31
HETATM   31  O   UNK N   1      29.423  17.283   7.653  0.00  0.00    -0.294 OA
BRANCH  31  32
HETATM   32  P   UNK N   1      28.528  17.997   8.983  0.00  0.00     0.390 P 
HETATM   33  O   UNK N   1      29.513  18.653   9.992  0.00  0.00    -0.632 OA
BRANCH  32  34
HETATM   34  O   UNK N   1      27.631  16.788   9.847  0.00  0.00    -0.307 OA
HETATM   35  H   UNK N   1      26.784  16.337   9.994  0.00  0.00     0.222 HD
ENDBRANCH  32  34
BRANCH  32  36
HETATM   36  O   UNK N   1      27.468  19.256   8.433  0.00  0.00    -0.307 OA
HETATM   37  H   UNK N   1      26.819  19.677   9.018  0.00  0.00     0.222 HD
ENDBRANCH  32  36
ENDBRANCH  31  32
ENDBRANCH  30  31
ENDBRANCH   2  30
TORSDOF 12
ENDMDL
MODEL 8
REMARK VINA RESULT:      -6.2      2.956      4.575
REMARK  12 active torsions:
REMARK  status: ('A' for Active; 'I' for Inactive)
REMARK    1  A    between atoms: C_1  and  O_20 
REMARK    2  A    between atoms: C_2  and  C_29 
REMARK    3  A    between atoms: C_3  and  O_19 
REMARK    4  A    between atoms: C_4  and  N_6 
REMARK    5  A    between atoms: C_16  and  N_18 
REMARK    6  A    between atoms: O_20  and  P_21 
REMARK    7  A    between atoms: P_21  and  O_26 
REMARK    8  A    between atoms: P_21  and  O_27 
REMARK    9  A    between atoms: P_22  and  O_25 
REMARK   10  A    between atoms: P_22  and  O_28 
REMARK   11  A    between atoms: O_30  and  P_22 
REMARK   12  A    between atoms: C_29  and  O_30 
ROOT
HETATM    1  C   UNK N   1      33.488  15.116   8.597  0.00  0.00     0.197 C 
HETATM    2  C   UNK N   1      34.480  14.408   7.688  0.00  0.00     0.180 C 
HETATM    3  C   UNK N   1      34.232  15.150   9.896  0.00  0.00     0.199 C 
HETATM    4  C   UNK N   1      34.816  13.765   9.799  0.00  0.00     0.262 C 
HETATM    5  O   UNK N   1      35.367  13.692   8.512  0.00  0.00    -0.353 OA
ENDROOT
BRANCH   4   6
HETATM    6  N   UNK N   1      35.823  13.419  10.803  0.00  0.00    -0.297 N 
HETATM    7  C   UNK N   1      35.668  12.770  11.962  0.00  0.00     0.142 A 
HETATM    8  C   UNK N   1      36.874  12.580  12.533  0.00  0.00     0.122 A 
HETATM    9  N   UNK N   1      34.519  12.325  12.527  0.00  0.00    -0.336 N 
HETATM   10  N   UNK N   1      37.837  13.106  11.755  0.00  0.00    -0.346 N 
HETATM   11  C   UNK N   1      36.977  11.909  13.738  0.00  0.00     0.131 A 
HETATM   12  C   UNK N   1      37.164  13.618  10.689  0.00  0.00     0.188 A 
ATOM     13  HN  UNK N   1      38.843  13.118  11.926  1.00  0.00     0.167 HD
HETATM   14  N   UNK N   1      35.825  11.465  14.324  0.00  0.00    -0.337 N 
HETATM   15  C   UNK N   1      34.604  11.672  13.727  0.00  0.00     0.183 A 
ATOM     16  HN  UNK N   1      35.872  10.972  15.215  1.00  0.00     0.168 HD
ATOM     17  HN  UNK N   1      33.619  12.473  12.071  1.00  0.00     0.168 HD
BRANCH  11  18
HETATM   18  N   UNK N   1      38.230  11.678  14.344  0.00  0.00    -0.383 N 
HETATM   19  H   UNK N   1      39.059  11.554  13.827  0.00  0.00     0.157 HD
HETATM   20  H   UNK N   1      38.276  11.637  15.327  0.00  0.00     0.157 HD
ENDBRANCH  11  18
ENDBRANCH   4   6
BRANCH   3  21
HETATM   21  O   UNK N   1      33.337  15.268  10.960  0.00  0.00    -0.388 OA
HETATM   22  H   UNK N   1      32.368  15.307  10.964  0.00  0.00     0.210 HD
ENDBRANCH   3  21
BRANCH   1  23
HETATM   23  O   UNK N   1      33.170  16.400   8.135  0.00  0.00    -0.286 OA
BRANCH  23  24
HETATM   24  P   UNK N   1      34.641  17.319   8.304  0.00  0.00     0.391 P 
HETATM   25  O   UNK N   1      34.322  17.594   6.810  0.00  0.00    -0.632 OA
BRANCH  24  26
HETATM   26  O   UNK N   1      34.675  19.054   8.285  0.00  0.00    -0.307 OA
HETATM   27  H   UNK N   1      34.593  19.591   9.088  0.00  0.00     0.222 HD
ENDBRANCH  24  26
BRANCH  24  28
HETATM   28  O   UNK N   1      33.362  18.018   9.249  0.00  0.00    -0.307 OA
HETATM   29  H   UNK N   1      33.118  18.759   9.826  0.00  0.00     0.222 HD
ENDBRANCH  24  28
ENDBRANCH  23  24
ENDBRANCH   1  23
BRANCH   2  30
HETATM   30  C   UNK N   1      33.766  13.422   6.765  0.00  0.00     0.215 C 
BRANCH  30  31
HETATM   31  O   UNK N   1      33.788  13.867   5.432  0.00  0.00    -0.294 OA
BRANCH  31  32
HETATM   32  P   UNK N   1      32.220  14.540   5.023  0.00  0.00     0.390 P 
HETATM   33  O   UNK N   1      31.109  13.830   5.847  0.00  0.00    -0.632 OA
BRANCH  32  34
HETATM   34  O   UNK N   1      31.857  14.291   3.343  0.00  0.00    -0.307 OA
HETATM   35  H   UNK N   1      31.650  14.678   2.478  0.00  0.00     0.222 HD
ENDBRANCH  32  34
BRANCH  32  36
HETATM   36  O   UNK N   1      32.130  16.227   5.415  0.00  0.00    -0.307 OA
HETATM   37  H   UNK N   1      31.555  16.564   6.120  0.00  0.00     0.222 HD
ENDBRANCH  32  36
ENDBRANCH  31  32
ENDBRANCH  30  31
ENDBRANCH   2  30
TORSDOF 12
ENDMDL
MODEL 9
REMARK VINA RESULT:      -6.2      4.376      7.090
REMARK  12 active torsions:
REMARK  status: ('A' for Active; 'I' for Inactive)
REMARK    1  A    between atoms: C_1  and  O_20 
REMARK    2  A    between atoms: C_2  and  C_29 
REMARK    3  A    between atoms: C_3  and  O_19 
REMARK    4  A    between atoms: C_4  and  N_6 
REMARK    5  A    between atoms: C_16  and  N_18 
REMARK    6  A    between atoms: O_20  and  P_21 
REMARK    7  A    between atoms: P_21  and  O_26 
REMARK    8  A    between atoms: P_21  and  O_27 
REMARK    9  A    between atoms: P_22  and  O_25 
REMARK   10  A    between atoms: P_22  and  O_28 
REMARK   11  A    between atoms: O_30  and  P_22 
REMARK   12  A    between atoms: C_29  and  O_30 
ROOT
HETATM    1  C   UNK N   1      34.349  15.761   7.671  0.00  0.00     0.197 C 
HETATM    2  C   UNK N   1      33.404  14.687   8.184  0.00  0.00     0.180 C 
HETATM    3  C   UNK N   1      33.419  16.917   7.465  0.00  0.00     0.199 C 
HETATM    4  C   UNK N   1      32.274  16.119   6.899  0.00  0.00     0.262 C 
HETATM    5  O   UNK N   1      32.104  15.046   7.784  0.00  0.00    -0.353 OA
ENDROOT
BRANCH   4   6
HETATM    6  N   UNK N   1      31.011  16.840   6.726  0.00  0.00    -0.297 N 
HETATM    7  C   UNK N   1      30.210  17.368   7.657  0.00  0.00     0.142 A 
HETATM    8  C   UNK N   1      29.200  18.029   7.056  0.00  0.00     0.122 A 
HETATM    9  N   UNK N   1      30.337  17.309   9.005  0.00  0.00    -0.336 N 
HETATM   10  N   UNK N   1      29.327  17.940   5.720  0.00  0.00    -0.346 N 
HETATM   11  C   UNK N   1      28.245  18.682   7.814  0.00  0.00     0.131 A 
HETATM   12  C   UNK N   1      30.456  17.201   5.538  0.00  0.00     0.188 A 
ATOM     13  HN  UNK N   1      28.715  18.335   5.005  1.00  0.00     0.167 HD
HETATM   14  N   UNK N   1      28.355  18.619   9.174  0.00  0.00    -0.337 N 
HETATM   15  C   UNK N   1      29.390  17.937   9.768  0.00  0.00     0.183 A 
ATOM     16  HN  UNK N   1      27.660  19.087   9.756  1.00  0.00     0.168 HD
ATOM     17  HN  UNK N   1      31.115  16.810   9.437  1.00  0.00     0.168 HD
BRANCH  11  18
HETATM   18  N   UNK N   1      27.192  19.398   7.208  0.00  0.00    -0.383 N 
HETATM   19  H   UNK N   1      26.995  20.339   7.420  0.00  0.00     0.157 HD
HETATM   20  H   UNK N   1      26.630  18.937   6.544  0.00  0.00     0.157 HD
ENDBRANCH  11  18
ENDBRANCH   4   6
BRANCH   3  21
HETATM   21  O   UNK N   1      33.953  17.803   6.531  0.00  0.00    -0.388 OA
HETATM   22  H   UNK N   1      34.107  17.696   5.579  0.00  0.00     0.210 HD
ENDBRANCH   3  21
BRANCH   1  23
HETATM   23  O   UNK N   1      35.365  16.055   8.590  0.00  0.00    -0.286 OA
BRANCH  23  24
HETATM   24  P   UNK N   1      34.560  16.168  10.132  0.00  0.00     0.391 P 
HETATM   25  O   UNK N   1      35.696  15.173  10.493  0.00  0.00    -0.632 OA
BRANCH  24  26
HETATM   26  O   UNK N   1      35.261  16.966  11.504  0.00  0.00    -0.307 OA
HETATM   27  H   UNK N   1      35.669  17.845  11.450  0.00  0.00     0.222 HD
ENDBRANCH  24  26
BRANCH  24  28
HETATM   28  O   UNK N   1      35.305  17.680   9.710  0.00  0.00    -0.307 OA
HETATM   29  H   UNK N   1      36.137  18.108   9.457  0.00  0.00     0.222 HD
ENDBRANCH  24  28
ENDBRANCH  23  24
ENDBRANCH   1  23
BRANCH   2  30
HETATM   30  C   UNK N   1      33.743  13.326   7.578  0.00  0.00     0.215 C 
BRANCH  30  31
HETATM   31  O   UNK N   1      34.789  12.703   8.281  0.00  0.00    -0.294 OA
BRANCH  31  32
HETATM   32  P   UNK N   1      34.119  11.794   9.624  0.00  0.00     0.390 P 
HETATM   33  O   UNK N   1      34.776  10.386   9.691  0.00  0.00    -0.632 OA
BRANCH  32  34
HETATM   34  O   UNK N   1      32.410  11.558   9.422  0.00  0.00    -0.307 OA
HETATM   35  H   UNK N   1      31.654  10.950   9.440  0.00  0.00     0.222 HD
ENDBRANCH  32  34
BRANCH  32  36
HETATM   36  O   UNK N   1      34.445  12.567  11.143  0.00  0.00    -0.307 OA
HETATM   37  H   UNK N   1      34.595  13.522  11.215  0.00  0.00     0.222 HD
ENDBRANCH  32  36
ENDBRANCH  31  32
ENDBRANCH  30  31
ENDBRANCH   2  30
TORSDOF 12
ENDMDL
