MODEL 1
REMARK VINA RESULT:      -7.0      0.000      0.000
REMARK  5 active torsions:
REMARK  status: ('A' for Active; 'I' for Inactive)
REMARK    1  A    between atoms: C_5  and  O_17 
REMARK    2  A    between atoms: C_11  and  O_19 
REMARK    3  A    between atoms: C_12  and  C_15 
REMARK    4  A    between atoms: C_15  and  C_16 
REMARK    5  A    between atoms: C_16  and  O_21 
ROOT
HETATM    1  C   UNK N   1      36.681  10.805  14.021  0.00  0.00     0.003 A 
HETATM    2  C   UNK N   1      36.026  10.905  12.793  0.00  0.00     0.008 A 
HETATM    3  C   UNK N   1      35.740  12.156  12.239  0.00  0.00    -0.037 A 
HETATM    4  C   UNK N   1      36.113  13.331  12.925  0.00  0.00     0.055 A 
HETATM    5  C   UNK N   1      36.789  13.219  14.166  0.00  0.00     0.080 A 
HETATM    6  C   UNK N   1      37.065  11.958  14.700  0.00  0.00     0.037 A 
HETATM    7  C   UNK N   1      35.784  14.657  12.338  0.00  0.00     0.199 A 
HETATM    8  C   UNK N   1      35.038  14.738  11.055  0.00  0.00     0.055 A 
HETATM    9  C   UNK N   1      34.701  13.551  10.371  0.00  0.00    -0.037 A 
HETATM   10  C   UNK N   1      35.039  12.189  10.910  0.00  0.00     0.079 A 
HETATM   11  C   UNK N   1      34.641  15.985  10.511  0.00  0.00     0.087 A 
HETATM   12  C   UNK N   1      33.939  16.033   9.293  0.00  0.00    -0.014 A 
HETATM   13  C   UNK N   1      33.635  14.850   8.620  0.00  0.00     0.011 A 
HETATM   14  C   UNK N   1      34.011  13.618   9.157  0.00  0.00     0.009 A 
HETATM   15  O   UNK N   1      36.119  15.679  12.916  0.00  0.00    -0.286 OA
ENDROOT
BRANCH  12  16
HETATM   16  C   UNK N   1      33.449  17.336   8.723  0.00  0.00     0.151 C 
BRANCH  16  17
HETATM   17  C   UNK N   1      34.469  18.129   7.954  0.00  0.00     0.143 C 
HETATM   18  O   UNK N   1      34.572  17.958   6.751  0.00  0.00    -0.650 OA
BRANCH  17  19
HETATM   19  O   UNK N   1      35.257  19.035   8.567  0.00  0.00    -0.776 OA
HETATM   20  H   UNK N   1      35.201  19.783   9.128  0.00  0.00     0.167 HD
ENDBRANCH  17  19
ENDBRANCH  16  17
ENDBRANCH  12  16
BRANCH  11  21
HETATM   21  O   UNK N   1      34.914  17.131  11.162  0.00  0.00    -0.359 OA
HETATM   22  H   UNK N   1      35.356  17.847  10.748  0.00  0.00     0.217 HD
ENDBRANCH  11  21
BRANCH   5  23
HETATM   23  O   UNK N   1      37.175  14.309  14.851  0.00  0.00    -0.360 OA
HETATM   24  H   UNK N   1      36.907  14.445  15.739  0.00  0.00     0.217 HD
ENDBRANCH   5  23
TORSDOF 5
ENDMDL
MODEL 2
REMARK VINA RESULT:      -6.9      5.389      9.643
REMARK  5 active torsions:
REMARK  status: ('A' for Active; 'I' for Inactive)
REMARK    1  A    between atoms: C_5  and  O_17 
REMARK    2  A    between atoms: C_11  and  O_19 
REMARK    3  A    between atoms: C_12  and  C_15 
REMARK    4  A    between atoms: C_15  and  C_16 
REMARK    5  A    between atoms: C_16  and  O_21 
ROOT
HETATM    1  C   UNK N   1      26.469  20.205   4.303  0.00  0.00     0.003 A 
HETATM    2  C   UNK N   1      27.493  19.297   4.034  0.00  0.00     0.008 A 
HETATM    3  C   UNK N   1      28.254  18.753   5.073  0.00  0.00    -0.037 A 
HETATM    4  C   UNK N   1      27.988  19.126   6.408  0.00  0.00     0.055 A 
HETATM    5  C   UNK N   1      26.937  20.039   6.672  0.00  0.00     0.080 A 
HETATM    6  C   UNK N   1      26.190  20.569   5.618  0.00  0.00     0.037 A 
HETATM    7  C   UNK N   1      28.818  18.559   7.504  0.00  0.00     0.199 A 
HETATM    8  C   UNK N   1      29.939  17.635   7.187  0.00  0.00     0.055 A 
HETATM    9  C   UNK N   1      30.168  17.253   5.849  0.00  0.00    -0.037 A 
HETATM   10  C   UNK N   1      29.336  17.775   4.711  0.00  0.00     0.079 A 
HETATM   11  C   UNK N   1      30.796  17.142   8.203  0.00  0.00     0.087 A 
HETATM   12  C   UNK N   1      31.847  16.265   7.876  0.00  0.00    -0.014 A 
HETATM   13  C   UNK N   1      32.042  15.881   6.549  0.00  0.00     0.011 A 
HETATM   14  C   UNK N   1      31.210  16.374   5.544  0.00  0.00     0.009 A 
HETATM   15  O   UNK N   1      28.584  18.861   8.663  0.00  0.00    -0.286 OA
ENDROOT
BRANCH  12  16
HETATM   16  C   UNK N   1      32.811  15.776   8.921  0.00  0.00     0.151 C 
BRANCH  16  17
HETATM   17  C   UNK N   1      34.017  16.644   9.144  0.00  0.00     0.143 C 
HETATM   18  O   UNK N   1      34.619  17.087   8.180  0.00  0.00    -0.650 OA
BRANCH  17  19
HETATM   19  O   UNK N   1      34.434  16.955  10.388  0.00  0.00    -0.776 OA
HETATM   20  H   UNK N   1      34.730  17.688  10.892  0.00  0.00     0.167 HD
ENDBRANCH  17  19
ENDBRANCH  16  17
ENDBRANCH  12  16
BRANCH  11  21
HETATM   21  O   UNK N   1      30.626  17.520   9.483  0.00  0.00    -0.359 OA
HETATM   22  H   UNK N   1      30.731  18.410   9.759  0.00  0.00     0.217 HD
ENDBRANCH  11  21
BRANCH   5  23
HETATM   23  O   UNK N   1      26.640  20.414   7.928  0.00  0.00    -0.360 OA
HETATM   24  H   UNK N   1      25.754  20.427   8.234  0.00  0.00     0.217 HD
ENDBRANCH   5  23
TORSDOF 5
ENDMDL
MODEL 3
REMARK VINA RESULT:      -6.8     11.103     14.238
REMARK  5 active torsions:
REMARK  status: ('A' for Active; 'I' for Inactive)
REMARK    1  A    between atoms: C_5  and  O_17 
REMARK    2  A    between atoms: C_11  and  O_19 
REMARK    3  A    between atoms: C_12  and  C_15 
REMARK    4  A    between atoms: C_15  and  C_16 
REMARK    5  A    between atoms: C_16  and  O_21 
ROOT
HETATM    1  C   UNK N   1      28.225  16.681   5.604  0.00  0.00     0.003 A 
HETATM    2  C   UNK N   1      26.873  16.366   5.479  0.00  0.00     0.008 A 
HETATM    3  C   UNK N   1      25.985  17.264   4.880  0.00  0.00    -0.037 A 
HETATM    4  C   UNK N   1      26.457  18.504   4.398  0.00  0.00     0.055 A 
HETATM    5  C   UNK N   1      27.836  18.809   4.518  0.00  0.00     0.080 A 
HETATM    6  C   UNK N   1      28.704  17.896   5.120  0.00  0.00     0.037 A 
HETATM    7  C   UNK N   1      25.501  19.462   3.782  0.00  0.00     0.199 A 
HETATM    8  C   UNK N   1      24.054  19.126   3.709  0.00  0.00     0.055 A 
HETATM    9  C   UNK N   1      23.608  17.869   4.170  0.00  0.00    -0.037 A 
HETATM   10  C   UNK N   1      24.542  16.856   4.771  0.00  0.00     0.079 A 
HETATM   11  C   UNK N   1      23.108  20.051   3.201  0.00  0.00     0.087 A 
HETATM   12  C   UNK N   1      21.746  19.705   3.139  0.00  0.00    -0.014 A 
HETATM   13  C   UNK N   1      21.328  18.449   3.578  0.00  0.00     0.011 A 
HETATM   14  C   UNK N   1      22.252  17.539   4.092  0.00  0.00     0.009 A 
HETATM   15  O   UNK N   1      25.904  20.529   3.347  0.00  0.00    -0.286 OA
ENDROOT
BRANCH  12  16
HETATM   16  C   UNK N   1      20.711  20.688   2.665  0.00  0.00     0.151 C 
BRANCH  16  17
HETATM   17  C   UNK N   1      20.845  21.128   1.234  0.00  0.00     0.143 C 
HETATM   18  O   UNK N   1      21.375  20.381   0.429  0.00  0.00    -0.650 OA
BRANCH  17  19
HETATM   19  O   UNK N   1      20.375  22.323   0.823  0.00  0.00    -0.776 OA
HETATM   20  H   UNK N   1      19.672  22.920   0.984  0.00  0.00     0.167 HD
ENDBRANCH  17  19
ENDBRANCH  16  17
ENDBRANCH  12  16
BRANCH  11  21
HETATM   21  O   UNK N   1      23.500  21.272   2.792  0.00  0.00    -0.359 OA
HETATM   22  H   UNK N   1      24.348  21.618   2.992  0.00  0.00     0.217 HD
ENDBRANCH  11  21
BRANCH   5  23
HETATM   23  O   UNK N   1      28.334  19.972   4.064  0.00  0.00    -0.360 OA
HETATM   24  H   UNK N   1      29.257  20.097   3.961  0.00  0.00     0.217 HD
ENDBRANCH   5  23
TORSDOF 5
ENDMDL
MODEL 4
REMARK VINA RESULT:      -6.7     22.270     23.317
REMARK  5 active torsions:
REMARK  status: ('A' for Active; 'I' for Inactive)
REMARK    1  A    between atoms: C_5  and  O_17 
REMARK    2  A    between atoms: C_11  and  O_19 
REMARK    3  A    between atoms: C_12  and  C_15 
REMARK    4  A    between atoms: C_15  and  C_16 
REMARK    5  A    between atoms: C_16  and  O_21 
ROOT
HETATM    1  C   UNK N   1      27.456  30.543  -4.752  0.00  0.00     0.003 A 
HETATM    2  C   UNK N   1      27.864  29.800  -5.860  0.00  0.00     0.008 A 
HETATM    3  C   UNK N   1      27.417  28.488  -6.041  0.00  0.00    -0.037 A 
HETATM    4  C   UNK N   1      26.547  27.905  -5.096  0.00  0.00     0.055 A 
HETATM    5  C   UNK N   1      26.127  28.672  -3.980  0.00  0.00     0.080 A 
HETATM    6  C   UNK N   1      26.587  29.981  -3.820  0.00  0.00     0.037 A 
HETATM    7  C   UNK N   1      26.094  26.501  -5.285  0.00  0.00     0.199 A 
HETATM    8  C   UNK N   1      26.586  25.712  -6.446  0.00  0.00     0.055 A 
HETATM    9  C   UNK N   1      27.432  26.324  -7.395  0.00  0.00    -0.037 A 
HETATM   10  C   UNK N   1      27.890  27.749  -7.261  0.00  0.00     0.079 A 
HETATM   11  C   UNK N   1      26.236  24.348  -6.610  0.00  0.00     0.087 A 
HETATM   12  C   UNK N   1      26.712  23.626  -7.720  0.00  0.00    -0.014 A 
HETATM   13  C   UNK N   1      27.529  24.255  -8.659  0.00  0.00     0.011 A 
HETATM   14  C   UNK N   1      27.887  25.593  -8.496  0.00  0.00     0.009 A 
HETATM   15  O   UNK N   1      25.327  25.995  -4.482  0.00  0.00    -0.286 OA
ENDROOT
BRANCH  12  16
HETATM   16  C   UNK N   1      26.410  22.162  -7.887  0.00  0.00     0.151 C 
BRANCH  16  17
HETATM   17  C   UNK N   1      25.118  21.845  -8.586  0.00  0.00     0.143 C 
HETATM   18  O   UNK N   1      24.066  22.207  -8.086  0.00  0.00    -0.650 OA
BRANCH  17  19
HETATM   19  O   UNK N   1      25.102  21.185  -9.761  0.00  0.00    -0.776 OA
HETATM   20  H   UNK N   1      25.645  21.017 -10.507  0.00  0.00     0.167 HD
ENDBRANCH  17  19
ENDBRANCH  16  17
ENDBRANCH  12  16
BRANCH  11  21
HETATM   21  O   UNK N   1      25.463  23.727  -5.700  0.00  0.00    -0.359 OA
HETATM   22  H   UNK N   1      25.528  23.910  -4.782  0.00  0.00     0.217 HD
ENDBRANCH  11  21
BRANCH   5  23
HETATM   23  O   UNK N   1      25.290  28.164  -3.059  0.00  0.00    -0.360 OA
HETATM   24  H   UNK N   1      25.489  27.365  -2.611  0.00  0.00     0.217 HD
ENDBRANCH   5  23
TORSDOF 5
ENDMDL
MODEL 5
REMARK VINA RESULT:      -6.6     16.067     19.055
REMARK  5 active torsions:
REMARK  status: ('A' for Active; 'I' for Inactive)
REMARK    1  A    between atoms: C_5  and  O_17 
REMARK    2  A    between atoms: C_11  and  O_19 
REMARK    3  A    between atoms: C_12  and  C_15 
REMARK    4  A    between atoms: C_15  and  C_16 
REMARK    5  A    between atoms: C_16  and  O_21 
ROOT
HETATM    1  C   UNK N   1      25.835  24.552  -5.916  0.00  0.00     0.003 A 
HETATM    2  C   UNK N   1      26.857  23.815  -6.513  0.00  0.00     0.008 A 
HETATM    3  C   UNK N   1      27.914  23.315  -5.748  0.00  0.00    -0.037 A 
HETATM    4  C   UNK N   1      27.953  23.557  -4.358  0.00  0.00     0.055 A 
HETATM    5  C   UNK N   1      26.902  24.295  -3.759  0.00  0.00     0.080 A 
HETATM    6  C   UNK N   1      25.856  24.786  -4.544  0.00  0.00     0.037 A 
HETATM    7  C   UNK N   1      29.093  23.039  -3.556  0.00  0.00     0.199 A 
HETATM    8  C   UNK N   1      30.199  22.303  -4.225  0.00  0.00     0.055 A 
HETATM    9  C   UNK N   1      30.126  22.047  -5.610  0.00  0.00    -0.037 A 
HETATM   10  C   UNK N   1      28.978  22.523  -6.456  0.00  0.00     0.079 A 
HETATM   11  C   UNK N   1      31.337  21.868  -3.500  0.00  0.00     0.087 A 
HETATM   12  C   UNK N   1      32.367  21.169  -4.156  0.00  0.00    -0.014 A 
HETATM   13  C   UNK N   1      32.265  20.906  -5.522  0.00  0.00     0.011 A 
HETATM   14  C   UNK N   1      31.154  21.343  -6.243  0.00  0.00     0.009 A 
HETATM   15  O   UNK N   1      29.125  23.229  -2.351  0.00  0.00    -0.286 OA
ENDROOT
BRANCH  12  16
HETATM   16  C   UNK N   1      33.614  20.751  -3.429  0.00  0.00     0.151 C 
BRANCH  16  17
HETATM   17  C   UNK N   1      34.218  19.449  -3.877  0.00  0.00     0.143 C 
HETATM   18  O   UNK N   1      35.310  19.454  -4.418  0.00  0.00    -0.650 OA
BRANCH  17  19
HETATM   19  O   UNK N   1      33.581  18.278  -3.676  0.00  0.00    -0.776 OA
HETATM   20  H   UNK N   1      33.660  17.366  -3.874  0.00  0.00     0.167 HD
ENDBRANCH  17  19
ENDBRANCH  16  17
ENDBRANCH  12  16
BRANCH  11  21
HETATM   21  O   UNK N   1      31.451  22.133  -2.185  0.00  0.00    -0.359 OA
HETATM   22  H   UNK N   1      30.780  21.909  -1.571  0.00  0.00     0.217 HD
ENDBRANCH  11  21
BRANCH   5  23
HETATM   23  O   UNK N   1      26.889  24.542  -2.437  0.00  0.00    -0.360 OA
HETATM   24  H   UNK N   1      27.509  25.125  -2.046  0.00  0.00     0.217 HD
ENDBRANCH   5  23
TORSDOF 5
ENDMDL
MODEL 6
REMARK VINA RESULT:      -6.6      5.544      9.899
REMARK  5 active torsions:
REMARK  status: ('A' for Active; 'I' for Inactive)
REMARK    1  A    between atoms: C_5  and  O_17 
REMARK    2  A    between atoms: C_11  and  O_19 
REMARK    3  A    between atoms: C_12  and  C_15 
REMARK    4  A    between atoms: C_15  and  C_16 
REMARK    5  A    between atoms: C_16  and  O_21 
ROOT
HETATM    1  C   UNK N   1      25.376  17.202   3.924  0.00  0.00     0.003 A 
HETATM    2  C   UNK N   1      25.871  17.715   5.123  0.00  0.00     0.008 A 
HETATM    3  C   UNK N   1      27.222  17.573   5.454  0.00  0.00    -0.037 A 
HETATM    4  C   UNK N   1      28.095  16.903   4.571  0.00  0.00     0.055 A 
HETATM    5  C   UNK N   1      27.585  16.397   3.349  0.00  0.00     0.080 A 
HETATM    6  C   UNK N   1      26.232  16.550   3.040  0.00  0.00     0.037 A 
HETATM    7  C   UNK N   1      29.526  16.738   4.942  0.00  0.00     0.199 A 
HETATM    8  C   UNK N   1      30.018  17.246   6.250  0.00  0.00     0.055 A 
HETATM    9  C   UNK N   1      29.135  17.938   7.104  0.00  0.00    -0.037 A 
HETATM   10  C   UNK N   1      27.689  18.157   6.758  0.00  0.00     0.079 A 
HETATM   11  C   UNK N   1      31.357  17.032   6.666  0.00  0.00     0.087 A 
HETATM   12  C   UNK N   1      31.798  17.528   7.906  0.00  0.00    -0.014 A 
HETATM   13  C   UNK N   1      30.915  18.230   8.726  0.00  0.00     0.011 A 
HETATM   14  C   UNK N   1      29.593  18.432   8.329  0.00  0.00     0.009 A 
HETATM   15  O   UNK N   1      30.292  16.175   4.177  0.00  0.00    -0.286 OA
ENDROOT
BRANCH  12  16
HETATM   16  C   UNK N   1      33.192  17.263   8.403  0.00  0.00     0.151 C 
BRANCH  16  17
HETATM   17  C   UNK N   1      34.273  18.089   7.763  0.00  0.00     0.143 C 
HETATM   18  O   UNK N   1      34.591  17.863   6.608  0.00  0.00    -0.650 OA
BRANCH  17  19
HETATM   19  O   UNK N   1      34.884  19.084   8.437  0.00  0.00    -0.776 OA
HETATM   20  H   UNK N   1      35.621  19.659   8.372  0.00  0.00     0.167 HD
ENDBRANCH  17  19
ENDBRANCH  16  17
ENDBRANCH  12  16
BRANCH  11  21
HETATM   21  O   UNK N   1      32.211  16.341   5.889  0.00  0.00    -0.359 OA
HETATM   22  H   UNK N   1      33.138  16.473   5.926  0.00  0.00     0.217 HD
ENDBRANCH  11  21
BRANCH   5  23
HETATM   23  O   UNK N   1      28.381  15.761   2.472  0.00  0.00    -0.360 OA
HETATM   24  H   UNK N   1      28.907  16.238   1.860  0.00  0.00     0.217 HD
ENDBRANCH   5  23
TORSDOF 5
ENDMDL
MODEL 7
REMARK VINA RESULT:      -6.5     15.895     18.341
REMARK  5 active torsions:
REMARK  status: ('A' for Active; 'I' for Inactive)
REMARK    1  A    between atoms: C_5  and  O_17 
REMARK    2  A    between atoms: C_11  and  O_19 
REMARK    3  A    between atoms: C_12  and  C_15 
REMARK    4  A    between atoms: C_15  and  C_16 
REMARK    5  A    between atoms: C_16  and  O_21 
ROOT
HETATM    1  C   UNK N   1      33.728  19.673  -5.120  0.00  0.00     0.003 A 
HETATM    2  C   UNK N   1      32.685  20.206  -5.877  0.00  0.00     0.008 A 
HETATM    3  C   UNK N   1      31.740  21.052  -5.291  0.00  0.00    -0.037 A 
HETATM    4  C   UNK N   1      31.837  21.372  -3.920  0.00  0.00     0.055 A 
HETATM    5  C   UNK N   1      32.908  20.837  -3.162  0.00  0.00     0.080 A 
HETATM    6  C   UNK N   1      33.841  19.993  -3.769  0.00  0.00     0.037 A 
HETATM    7  C   UNK N   1      30.814  22.256  -3.300  0.00  0.00     0.199 A 
HETATM    8  C   UNK N   1      29.680  22.767  -4.115  0.00  0.00     0.055 A 
HETATM    9  C   UNK N   1      29.619  22.459  -5.491  0.00  0.00    -0.037 A 
HETATM   10  C   UNK N   1      30.647  21.596  -6.167  0.00  0.00     0.079 A 
HETATM   11  C   UNK N   1      28.648  23.545  -3.534  0.00  0.00     0.087 A 
HETATM   12  C   UNK N   1      27.589  24.020  -4.330  0.00  0.00    -0.014 A 
HETATM   13  C   UNK N   1      27.559  23.723  -5.693  0.00  0.00     0.011 A 
HETATM   14  C   UNK N   1      28.565  22.947  -6.267  0.00  0.00     0.009 A 
HETATM   15  O   UNK N   1      30.900  22.552  -2.119  0.00  0.00    -0.286 OA
ENDROOT
BRANCH  12  16
HETATM   16  C   UNK N   1      26.447  24.793  -3.731  0.00  0.00     0.151 C 
BRANCH  16  17
HETATM   17  C   UNK N   1      26.701  26.259  -3.516  0.00  0.00     0.143 C 
HETATM   18  O   UNK N   1      27.516  26.831  -4.220  0.00  0.00    -0.650 OA
BRANCH  17  19
HETATM   19  O   UNK N   1      26.034  26.953  -2.573  0.00  0.00    -0.776 OA
HETATM   20  H   UNK N   1      25.496  26.818  -1.817  0.00  0.00     0.167 HD
ENDBRANCH  17  19
ENDBRANCH  16  17
ENDBRANCH  12  16
BRANCH  11  21
HETATM   21  O   UNK N   1      28.660  23.821  -2.217  0.00  0.00    -0.359 OA
HETATM   22  H   UNK N   1      29.183  24.510  -1.856  0.00  0.00     0.217 HD
ENDBRANCH  11  21
BRANCH   5  23
HETATM   23  O   UNK N   1      33.049  21.122  -1.856  0.00  0.00    -0.360 OA
HETATM   24  H   UNK N   1      32.441  20.798  -1.220  0.00  0.00     0.217 HD
ENDBRANCH   5  23
TORSDOF 5
ENDMDL
MODEL 8
REMARK VINA RESULT:      -6.5     10.508     14.470
REMARK  5 active torsions:
REMARK  status: ('A' for Active; 'I' for Inactive)
REMARK    1  A    between atoms: C_5  and  O_17 
REMARK    2  A    between atoms: C_11  and  O_19 
REMARK    3  A    between atoms: C_12  and  C_15 
REMARK    4  A    between atoms: C_15  and  C_16 
REMARK    5  A    between atoms: C_16  and  O_21 
ROOT
HETATM    1  C   UNK N   1      20.442  20.032   2.429  0.00  0.00     0.003 A 
HETATM    2  C   UNK N   1      21.726  20.578   2.414  0.00  0.00     0.008 A 
HETATM    3  C   UNK N   1      22.774  19.950   3.093  0.00  0.00    -0.037 A 
HETATM    4  C   UNK N   1      22.536  18.754   3.803  0.00  0.00     0.055 A 
HETATM    5  C   UNK N   1      21.231  18.200   3.801  0.00  0.00     0.080 A 
HETATM    6  C   UNK N   1      20.199  18.845   3.115  0.00  0.00     0.037 A 
HETATM    7  C   UNK N   1      23.652  18.105   4.540  0.00  0.00     0.199 A 
HETATM    8  C   UNK N   1      24.999  18.736   4.555  0.00  0.00     0.055 A 
HETATM    9  C   UNK N   1      25.223  19.915   3.814  0.00  0.00    -0.037 A 
HETATM   10  C   UNK N   1      24.133  20.589   3.029  0.00  0.00     0.079 A 
HETATM   11  C   UNK N   1      26.062  18.184   5.314  0.00  0.00     0.087 A 
HETATM   12  C   UNK N   1      27.328  18.798   5.306  0.00  0.00    -0.014 A 
HETATM   13  C   UNK N   1      27.535  19.951   4.549  0.00  0.00     0.011 A 
HETATM   14  C   UNK N   1      26.489  20.506   3.811  0.00  0.00     0.009 A 
HETATM   15  O   UNK N   1      23.459  17.061   5.142  0.00  0.00    -0.286 OA
ENDROOT
BRANCH  12  16
HETATM   16  C   UNK N   1      28.456  18.273   6.150  0.00  0.00     0.151 C 
BRANCH  16  17
HETATM   17  C   UNK N   1      28.450  18.719   7.585  0.00  0.00     0.143 C 
HETATM   18  O   UNK N   1      29.372  18.392   8.314  0.00  0.00    -0.650 OA
BRANCH  17  19
HETATM   19  O   UNK N   1      27.455  19.485   8.075  0.00  0.00    -0.776 OA
HETATM   20  H   UNK N   1      27.150  20.371   8.066  0.00  0.00     0.167 HD
ENDBRANCH  17  19
ENDBRANCH  16  17
ENDBRANCH  12  16
BRANCH  11  21
HETATM   21  O   UNK N   1      25.867  17.081   6.061  0.00  0.00    -0.359 OA
HETATM   22  H   UNK N   1      26.085  17.051   6.972  0.00  0.00     0.217 HD
ENDBRANCH  11  21
BRANCH   5  23
HETATM   23  O   UNK N   1      20.958  17.057   4.453  0.00  0.00    -0.360 OA
HETATM   24  H   UNK N   1      20.517  16.348   4.027  0.00  0.00     0.217 HD
ENDBRANCH   5  23
TORSDOF 5
ENDMDL
MODEL 9
REMARK VINA RESULT:      -6.5      3.037      4.990
REMARK  5 active torsions:
REMARK  status: ('A' for Active; 'I' for Inactive)
REMARK    1  A    between atoms: C_5  and  O_17 
REMARK    2  A    between atoms: C_11  and  O_19 
REMARK    3  A    between atoms: C_12  and  C_15 
REMARK    4  A    between atoms: C_15  and  C_16 
REMARK    5  A    between atoms: C_16  and  O_21 
ROOT
HETATM    1  C   UNK N   1      34.616  10.012  19.517  0.00  0.00     0.003 A 
HETATM    2  C   UNK N   1      34.508   9.608  18.187  0.00  0.00     0.008 A 
HETATM    3  C   UNK N   1      34.823  10.489  17.148  0.00  0.00    -0.037 A 
HETATM    4  C   UNK N   1      35.253  11.800  17.443  0.00  0.00     0.055 A 
HETATM    5  C   UNK N   1      35.373  12.196  18.799  0.00  0.00     0.080 A 
HETATM    6  C   UNK N   1      35.052  11.299  19.820  0.00  0.00     0.037 A 
HETATM    7  C   UNK N   1      35.565  12.736  16.331  0.00  0.00     0.199 A 
HETATM    8  C   UNK N   1      35.390  12.300  14.920  0.00  0.00     0.055 A 
HETATM    9  C   UNK N   1      34.987  10.976  14.647  0.00  0.00    -0.037 A 
HETATM   10  C   UNK N   1      34.691   9.985  15.737  0.00  0.00     0.079 A 
HETATM   11  C   UNK N   1      35.602  13.195  13.841  0.00  0.00     0.087 A 
HETATM   12  C   UNK N   1      35.433  12.755  12.516  0.00  0.00    -0.014 A 
HETATM   13  C   UNK N   1      35.057  11.435  12.266  0.00  0.00     0.011 A 
HETATM   14  C   UNK N   1      34.833  10.554  13.324  0.00  0.00     0.009 A 
HETATM   15  O   UNK N   1      35.956  13.866  16.578  0.00  0.00    -0.286 OA
ENDROOT
BRANCH  12  16
HETATM   16  C   UNK N   1      35.589  13.696  11.354  0.00  0.00     0.151 C 
BRANCH  16  17
HETATM   17  C   UNK N   1      34.685  14.896  11.369  0.00  0.00     0.143 C 
HETATM   18  O   UNK N   1      35.171  16.007  11.504  0.00  0.00    -0.650 OA
BRANCH  17  19
HETATM   19  O   UNK N   1      33.351  14.769  11.218  0.00  0.00    -0.776 OA
HETATM   20  H   UNK N   1      32.671  14.129  11.289  0.00  0.00     0.167 HD
ENDBRANCH  17  19
ENDBRANCH  16  17
ENDBRANCH  12  16
BRANCH  11  21
HETATM   21  O   UNK N   1      35.949  14.474  14.074  0.00  0.00    -0.359 OA
HETATM   22  H   UNK N   1      36.617  14.707  14.689  0.00  0.00     0.217 HD
ENDBRANCH  11  21
BRANCH   5  23
HETATM   23  O   UNK N   1      35.790  13.431  19.130  0.00  0.00    -0.360 OA
HETATM   24  H   UNK N   1      35.597  14.170  18.587  0.00  0.00     0.217 HD
ENDBRANCH   5  23
TORSDOF 5
ENDMDL
