REMARK  5 active torsions:
REMARK  status: ('A' for Active; 'I' for Inactive)
REMARK    1  A    between atoms: C_5  and  O_17 
REMARK    2  A    between atoms: C_11  and  O_19 
REMARK    3  A    between atoms: C_12  and  C_15 
REMARK    4  A    between atoms: C_15  and  C_16 
REMARK    5  A    between atoms: C_16  and  O_21 
ROOT
HETATM    1  C   UNK N   1       5.113  -1.400  -0.296  0.00  0.00     0.003 A 
HETATM    2  C   UNK N   1       3.885  -2.049  -0.421  0.00  0.00     0.008 A 
HETATM    3  C   UNK N   1       2.688  -1.343  -0.270  0.00  0.00    -0.037 A 
HETATM    4  C   UNK N   1       2.718   0.039   0.014  0.00  0.00     0.055 A 
HETATM    5  C   UNK N   1       3.971   0.692   0.126  0.00  0.00     0.080 A 
HETATM    6  C   UNK N   1       5.154  -0.034  -0.029  0.00  0.00     0.037 A 
HETATM    7  C   UNK N   1       1.440   0.777   0.195  0.00  0.00     0.199 A 
HETATM    8  C   UNK N   1       0.144   0.052   0.111  0.00  0.00     0.055 A 
HETATM    9  C   UNK N   1       0.136  -1.323  -0.203  0.00  0.00    -0.037 A 
HETATM   10  C   UNK N   1       1.401  -2.104  -0.425  0.00  0.00     0.079 A 
HETATM   11  C   UNK N   1      -1.086   0.712   0.358  0.00  0.00     0.087 A 
HETATM   12  C   UNK N   1      -2.298   0.003   0.267  0.00  0.00    -0.014 A 
HETATM   13  C   UNK N   1      -2.286  -1.351  -0.067  0.00  0.00     0.011 A 
HETATM   14  C   UNK N   1      -1.078  -2.009  -0.298  0.00  0.00     0.009 A 
HETATM   15  O   UNK N   1       1.456   1.976   0.423  0.00  0.00    -0.286 OA
ENDROOT
BRANCH  12  16
HETATM   16  C   UNK N   1      -3.613   0.659   0.585  0.00  0.00     0.151 C 
BRANCH  16  17
HETATM   17  C   UNK N   1      -3.964   1.848  -0.265  0.00  0.00     0.143 C 
HETATM   18  O   UNK N   1      -4.992   2.462  -0.035  0.00  0.00    -0.650 OA
BRANCH  17  19
HETATM   19  O   UNK N   1      -3.155   2.257  -1.263  0.00  0.00    -0.776 OA
HETATM   20  H   UNK N   1      -2.628   1.913  -1.957  0.00  0.00     0.167 HD
ENDBRANCH  17  19
ENDBRANCH  16  17
ENDBRANCH  12  16
BRANCH  11  21
HETATM   21  O   UNK N   1      -1.106   2.014   0.698  0.00  0.00    -0.359 OA
HETATM   22  H   UNK N   1      -0.328   2.480   0.935  0.00  0.00     0.217 HD
ENDBRANCH  11  21
BRANCH   5  23
HETATM   23  O   UNK N   1       4.050   2.009   0.384  0.00  0.00    -0.360 OA
HETATM   24  H   UNK N   1       4.873   2.420   0.564  0.00  0.00     0.217 HD
ENDBRANCH   5  23
TORSDOF 5
