MODEL 1
REMARK VINA RESULT:      -7.3      0.000      0.000
REMARK  1 active torsions:
REMARK  status: ('A' for Active; 'I' for Inactive)
REMARK    1  A    between atoms: C_3  and  O_4 
ROOT
HETATM    1  C   UNK N   1      34.365   9.105  18.099  0.00  0.00     0.012 C 
HETATM    2  C   UNK N   1      33.886   8.886  19.542  0.00  0.00     0.032 C 
HETATM    3  C   UNK N   1      34.939   9.308  20.567  0.00  0.00     0.118 C 
HETATM    4  C   UNK N   1      35.403  10.763  20.381  0.00  0.00     0.037 C 
HETATM    5  C   UNK N   1      34.918  11.395  19.070  0.00  0.00    -0.004 C 
HETATM    6  C   UNK N   1      35.620  12.733  18.822  0.00  0.00     0.006 C 
HETATM    7  C   UNK N   1      35.006  13.426  17.600  0.00  0.00     0.006 C 
HETATM    8  C   UNK N   1      35.080  12.557  16.332  0.00  0.00    -0.004 C 
HETATM    9  C   UNK N   1      34.509  11.144  16.604  0.00  0.00    -0.002 C 
HETATM   10  C   UNK N   1      35.112  10.437  17.861  0.00  0.00    -0.036 C 
HETATM   11  C   UNK N   1      34.552  10.328  15.305  0.00  0.00     0.007 C 
HETATM   12  C   UNK N   1      35.956  10.245  14.719  0.00  0.00     0.018 C 
HETATM   13  C   UNK N   1      36.614  11.614  14.482  0.00  0.00     0.021 C 
HETATM   14  C   UNK N   1      36.515  12.555  15.706  0.00  0.00     0.006 C 
HETATM   15  C   UNK N   1      36.765  13.941  15.096  0.00  0.00     0.013 C 
HETATM   16  C   UNK N   1      36.014  13.919  13.755  0.00  0.00     0.079 C 
HETATM   17  C   UNK N   1      36.015  12.466  13.417  0.00  0.00     0.135 C 
HETATM   18  O   UNK N   1      35.743  12.054  12.301  0.00  0.00    -0.297 OA
HETATM   19  C   UNK N   1      38.066  11.360  14.094  0.00  0.00     0.024 C 
HETATM   20  C   UNK N   1      36.593  10.092  17.698  0.00  0.00     0.016 C 
ENDROOT
BRANCH   3  21
HETATM   21  O   UNK N   1      34.412   9.155  21.850  0.00  0.00    -0.396 OA
HETATM   22  H   UNK N   1      34.031   8.309  22.133  0.00  0.00     0.210 HD
ENDBRANCH   3  21
TORSDOF 1
ENDMDL
MODEL 2
REMARK VINA RESULT:      -7.1     23.136     26.643
REMARK  1 active torsions:
REMARK  status: ('A' for Active; 'I' for Inactive)
REMARK    1  A    between atoms: C_3  and  O_4 
ROOT
HETATM    1  C   UNK N   1      30.382  22.651  -5.319  0.00  0.00     0.012 C 
HETATM    2  C   UNK N   1      31.061  21.658  -4.365  0.00  0.00     0.032 C 
HETATM    3  C   UNK N   1      31.521  22.327  -3.069  0.00  0.00     0.118 C 
HETATM    4  C   UNK N   1      30.382  23.062  -2.341  0.00  0.00     0.037 C 
HETATM    5  C   UNK N   1      29.105  23.191  -3.181  0.00  0.00    -0.004 C 
HETATM    6  C   UNK N   1      28.112  24.147  -2.513  0.00  0.00     0.006 C 
HETATM    7  C   UNK N   1      26.782  24.136  -3.275  0.00  0.00     0.006 C 
HETATM    8  C   UNK N   1      26.951  24.514  -4.757  0.00  0.00    -0.004 C 
HETATM    9  C   UNK N   1      28.060  23.658  -5.417  0.00  0.00    -0.002 C 
HETATM   10  C   UNK N   1      29.413  23.643  -4.636  0.00  0.00    -0.036 C 
HETATM   11  C   UNK N   1      28.160  24.027  -6.903  0.00  0.00     0.007 C 
HETATM   12  C   UNK N   1      28.422  25.513  -7.114  0.00  0.00     0.018 C 
HETATM   13  C   UNK N   1      27.394  26.430  -6.430  0.00  0.00     0.021 C 
HETATM   14  C   UNK N   1      27.138  26.056  -4.952  0.00  0.00     0.006 C 
HETATM   15  C   UNK N   1      25.793  26.734  -4.652  0.00  0.00     0.013 C 
HETATM   16  C   UNK N   1      24.958  26.521  -5.925  0.00  0.00     0.079 C 
HETATM   17  C   UNK N   1      26.009  26.402  -6.976  0.00  0.00     0.135 C 
HETATM   18  O   UNK N   1      25.755  26.485  -8.168  0.00  0.00    -0.297 OA
HETATM   19  C   UNK N   1      27.903  27.861  -6.560  0.00  0.00     0.024 C 
HETATM   20  C   UNK N   1      30.109  25.006  -4.624  0.00  0.00     0.016 C 
ENDROOT
BRANCH   3  21
HETATM   21  O   UNK N   1      32.058  21.358  -2.222  0.00  0.00    -0.396 OA
HETATM   22  H   UNK N   1      32.547  20.601  -2.580  0.00  0.00     0.210 HD
ENDBRANCH   3  21
TORSDOF 1
ENDMDL
MODEL 3
REMARK VINA RESULT:      -7.0      1.842      3.795
REMARK  1 active torsions:
REMARK  status: ('A' for Active; 'I' for Inactive)
REMARK    1  A    between atoms: C_3  and  O_4 
ROOT
HETATM    1  C   UNK N   1      35.256  12.905  16.755  0.00  0.00     0.012 C 
HETATM    2  C   UNK N   1      35.312  12.297  18.165  0.00  0.00     0.032 C 
HETATM    3  C   UNK N   1      34.915  10.821  18.172  0.00  0.00     0.118 C 
HETATM    4  C   UNK N   1      35.754   9.973  17.199  0.00  0.00     0.037 C 
HETATM    5  C   UNK N   1      36.621  10.812  16.251  0.00  0.00    -0.004 C 
HETATM    6  C   UNK N   1      37.222   9.935  15.149  0.00  0.00     0.006 C 
HETATM    7  C   UNK N   1      38.212  10.753  14.312  0.00  0.00     0.006 C 
HETATM    8  C   UNK N   1      37.564  12.000  13.688  0.00  0.00    -0.004 C 
HETATM    9  C   UNK N   1      36.820  12.827  14.765  0.00  0.00    -0.002 C 
HETATM   10  C   UNK N   1      35.824  11.999  15.639  0.00  0.00    -0.036 C 
HETATM   11  C   UNK N   1      36.234  14.087  14.113  0.00  0.00     0.007 C 
HETATM   12  C   UNK N   1      35.313  13.759  12.945  0.00  0.00     0.018 C 
HETATM   13  C   UNK N   1      35.965  12.883  11.863  0.00  0.00     0.021 C 
HETATM   14  C   UNK N   1      36.687  11.644  12.441  0.00  0.00     0.006 C 
HETATM   15  C   UNK N   1      37.632  11.234  11.303  0.00  0.00     0.013 C 
HETATM   16  C   UNK N   1      38.164  12.562  10.740  0.00  0.00     0.079 C 
HETATM   17  C   UNK N   1      37.060  13.509  11.070  0.00  0.00     0.135 C 
HETATM   18  O   UNK N   1      36.975  14.616  10.564  0.00  0.00    -0.297 OA
HETATM   19  C   UNK N   1      34.871  12.480  10.882  0.00  0.00     0.024 C 
HETATM   20  C   UNK N   1      34.628  11.472  14.843  0.00  0.00     0.016 C 
ENDROOT
BRANCH   3  21
HETATM   21  O   UNK N   1      35.061  10.316  19.464  0.00  0.00    -0.396 OA
HETATM   22  H   UNK N   1      34.382  10.473  20.138  0.00  0.00     0.210 HD
ENDBRANCH   3  21
TORSDOF 1
ENDMDL
MODEL 4
REMARK VINA RESULT:      -6.9     26.645     28.503
REMARK  1 active torsions:
REMARK  status: ('A' for Active; 'I' for Inactive)
REMARK    1  A    between atoms: C_3  and  O_4 
ROOT
HETATM    1  C   UNK N   1      25.441  26.728  -6.213  0.00  0.00     0.012 C 
HETATM    2  C   UNK N   1      25.705  27.847  -5.193  0.00  0.00     0.032 C 
HETATM    3  C   UNK N   1      25.826  27.309  -3.767  0.00  0.00     0.118 C 
HETATM    4  C   UNK N   1      26.896  26.211  -3.633  0.00  0.00     0.037 C 
HETATM    5  C   UNK N   1      27.426  25.708  -4.982  0.00  0.00    -0.004 C 
HETATM    6  C   UNK N   1      28.282  24.452  -4.794  0.00  0.00     0.006 C 
HETATM    7  C   UNK N   1      28.935  24.061  -6.124  0.00  0.00     0.006 C 
HETATM    8  C   UNK N   1      27.903  23.824  -7.240  0.00  0.00    -0.004 C 
HETATM    9  C   UNK N   1      26.930  25.023  -7.348  0.00  0.00    -0.002 C 
HETATM   10  C   UNK N   1      26.274  25.445  -5.994  0.00  0.00    -0.036 C 
HETATM   11  C   UNK N   1      25.951  24.772  -8.504  0.00  0.00     0.007 C 
HETATM   12  C   UNK N   1      25.187  23.463  -8.341  0.00  0.00     0.018 C 
HETATM   13  C   UNK N   1      26.091  22.232  -8.162  0.00  0.00     0.021 C 
HETATM   14  C   UNK N   1      27.190  22.438  -7.094  0.00  0.00     0.006 C 
HETATM   15  C   UNK N   1      28.213  21.345  -7.438  0.00  0.00     0.013 C 
HETATM   16  C   UNK N   1      28.264  21.328  -8.974  0.00  0.00     0.079 C 
HETATM   17  C   UNK N   1      26.908  21.829  -9.340  0.00  0.00     0.135 C 
HETATM   18  O   UNK N   1      26.453  21.720 -10.468  0.00  0.00    -0.297 OA
HETATM   19  C   UNK N   1      25.190  21.054  -7.812  0.00  0.00     0.024 C 
HETATM   20  C   UNK N   1      25.321  24.386  -5.437  0.00  0.00     0.016 C 
ENDROOT
BRANCH   3  21
HETATM   21  O   UNK N   1      26.140  28.362  -2.908  0.00  0.00    -0.396 OA
HETATM   22  H   UNK N   1      27.061  28.626  -2.762  0.00  0.00     0.210 HD
ENDBRANCH   3  21
TORSDOF 1
ENDMDL
MODEL 5
REMARK VINA RESULT:      -6.7     11.370     14.194
REMARK  1 active torsions:
REMARK  status: ('A' for Active; 'I' for Inactive)
REMARK    1  A    between atoms: C_3  and  O_4 
ROOT
HETATM    1  C   UNK N   1      28.251  16.557   3.519  0.00  0.00     0.012 C 
HETATM    2  C   UNK N   1      26.737  16.590   3.266  0.00  0.00     0.032 C 
HETATM    3  C   UNK N   1      25.979  15.633   4.187  0.00  0.00     0.118 C 
HETATM    4  C   UNK N   1      26.270  15.885   5.678  0.00  0.00     0.037 C 
HETATM    5  C   UNK N   1      27.437  16.851   5.916  0.00  0.00    -0.004 C 
HETATM    6  C   UNK N   1      27.843  16.856   7.393  0.00  0.00     0.006 C 
HETATM    7  C   UNK N   1      28.895  17.942   7.642  0.00  0.00     0.006 C 
HETATM    8  C   UNK N   1      30.143  17.766   6.761  0.00  0.00    -0.004 C 
HETATM    9  C   UNK N   1      29.745  17.608   5.273  0.00  0.00    -0.002 C 
HETATM   10  C   UNK N   1      28.657  16.518   5.010  0.00  0.00    -0.036 C 
HETATM   11  C   UNK N   1      31.018  17.488   4.423  0.00  0.00     0.007 C 
HETATM   12  C   UNK N   1      31.907  16.336   4.874  0.00  0.00     0.018 C 
HETATM   13  C   UNK N   1      32.292  16.390   6.362  0.00  0.00     0.021 C 
HETATM   14  C   UNK N   1      31.080  16.630   7.292  0.00  0.00     0.006 C 
HETATM   15  C   UNK N   1      31.735  17.128   8.589  0.00  0.00     0.013 C 
HETATM   16  C   UNK N   1      32.869  18.054   8.122  0.00  0.00     0.079 C 
HETATM   17  C   UNK N   1      33.195  17.501   6.776  0.00  0.00     0.135 C 
HETATM   18  O   UNK N   1      34.219  17.792   6.179  0.00  0.00    -0.297 OA
HETATM   19  C   UNK N   1      33.000  15.083   6.697  0.00  0.00     0.024 C 
HETATM   20  C   UNK N   1      29.152  15.099   5.298  0.00  0.00     0.016 C 
ENDROOT
BRANCH   3  21
HETATM   21  O   UNK N   1      24.610  15.769   3.958  0.00  0.00    -0.396 OA
HETATM   22  H   UNK N   1      24.215  16.642   3.812  0.00  0.00     0.210 HD
ENDBRANCH   3  21
TORSDOF 1
ENDMDL
MODEL 6
REMARK VINA RESULT:      -6.7     26.840     29.001
REMARK  1 active torsions:
REMARK  status: ('A' for Active; 'I' for Inactive)
REMARK    1  A    between atoms: C_3  and  O_4 
ROOT
HETATM    1  C   UNK N   1      27.333  28.526  -6.083  0.00  0.00     0.012 C 
HETATM    2  C   UNK N   1      27.367  29.444  -4.852  0.00  0.00     0.032 C 
HETATM    3  C   UNK N   1      26.118  29.289  -3.983  0.00  0.00     0.118 C 
HETATM    4  C   UNK N   1      25.872  27.834  -3.548  0.00  0.00     0.037 C 
HETATM    5  C   UNK N   1      26.764  26.821  -4.277  0.00  0.00    -0.004 C 
HETATM    6  C   UNK N   1      26.297  25.389  -3.998  0.00  0.00     0.006 C 
HETATM    7  C   UNK N   1      27.292  24.388  -4.596  0.00  0.00     0.006 C 
HETATM    8  C   UNK N   1      27.488  24.586  -6.109  0.00  0.00    -0.004 C 
HETATM    9  C   UNK N   1      27.816  26.064  -6.430  0.00  0.00    -0.002 C 
HETATM   10  C   UNK N   1      26.820  27.095  -5.806  0.00  0.00    -0.036 C 
HETATM   11  C   UNK N   1      28.055  26.209  -7.939  0.00  0.00     0.007 C 
HETATM   12  C   UNK N   1      26.868  25.723  -8.762  0.00  0.00     0.018 C 
HETATM   13  C   UNK N   1      26.443  24.279  -8.450  0.00  0.00     0.021 C 
HETATM   14  C   UNK N   1      26.292  24.006  -6.935  0.00  0.00     0.006 C 
HETATM   15  C   UNK N   1      26.361  22.474  -6.853  0.00  0.00     0.013 C 
HETATM   16  C   UNK N   1      27.450  22.079  -7.864  0.00  0.00     0.079 C 
HETATM   17  C   UNK N   1      27.397  23.204  -8.841  0.00  0.00     0.135 C 
HETATM   18  O   UNK N   1      27.926  23.142  -9.939  0.00  0.00    -0.297 OA
HETATM   19  C   UNK N   1      25.138  24.018  -9.194  0.00  0.00     0.024 C 
HETATM   20  C   UNK N   1      25.415  27.004  -6.406  0.00  0.00     0.016 C 
ENDROOT
BRANCH   3  21
HETATM   21  O   UNK N   1      26.249  30.091  -2.850  0.00  0.00    -0.396 OA
HETATM   22  H   UNK N   1      26.931  30.780  -2.804  0.00  0.00     0.210 HD
ENDBRANCH   3  21
TORSDOF 1
ENDMDL
MODEL 7
REMARK VINA RESULT:      -6.7     25.328     27.559
REMARK  1 active torsions:
REMARK  status: ('A' for Active; 'I' for Inactive)
REMARK    1  A    between atoms: C_3  and  O_4 
ROOT
HETATM    1  C   UNK N   1      28.022  22.101  -7.483  0.00  0.00     0.012 C 
HETATM    2  C   UNK N   1      28.876  20.827  -7.392  0.00  0.00     0.032 C 
HETATM    3  C   UNK N   1      30.347  21.138  -7.118  0.00  0.00     0.118 C 
HETATM    4  C   UNK N   1      30.550  21.999  -5.858  0.00  0.00     0.037 C 
HETATM    5  C   UNK N   1      29.243  22.574  -5.296  0.00  0.00    -0.004 C 
HETATM    6  C   UNK N   1      29.532  23.619  -4.215  0.00  0.00     0.006 C 
HETATM    7  C   UNK N   1      28.223  24.061  -3.552  0.00  0.00     0.006 C 
HETATM    8  C   UNK N   1      27.213  24.627  -4.565  0.00  0.00    -0.004 C 
HETATM    9  C   UNK N   1      27.017  23.647  -5.747  0.00  0.00    -0.002 C 
HETATM   10  C   UNK N   1      28.347  23.172  -6.417  0.00  0.00    -0.036 C 
HETATM   11  C   UNK N   1      25.965  24.222  -6.706  0.00  0.00     0.007 C 
HETATM   12  C   UNK N   1      26.336  25.613  -7.206  0.00  0.00     0.018 C 
HETATM   13  C   UNK N   1      26.610  26.627  -6.083  0.00  0.00     0.021 C 
HETATM   14  C   UNK N   1      27.574  26.086  -5.001  0.00  0.00     0.006 C 
HETATM   15  C   UNK N   1      27.306  27.014  -3.807  0.00  0.00     0.013 C 
HETATM   16  C   UNK N   1      25.783  27.226  -3.812  0.00  0.00     0.079 C 
HETATM   17  C   UNK N   1      25.443  27.030  -5.251  0.00  0.00     0.135 C 
HETATM   18  O   UNK N   1      24.368  27.369  -5.720  0.00  0.00    -0.297 OA
HETATM   19  C   UNK N   1      27.159  27.890  -6.734  0.00  0.00     0.024 C 
HETATM   20  C   UNK N   1      29.089  24.301  -7.135  0.00  0.00     0.016 C 
ENDROOT
BRANCH   3  21
HETATM   21  O   UNK N   1      31.047  19.941  -6.973  0.00  0.00    -0.396 OA
HETATM   22  H   UNK N   1      31.549  19.753  -6.165  0.00  0.00     0.210 HD
ENDBRANCH   3  21
TORSDOF 1
ENDMDL
MODEL 8
REMARK VINA RESULT:      -6.6      1.271      6.033
REMARK  1 active torsions:
REMARK  status: ('A' for Active; 'I' for Inactive)
REMARK    1  A    between atoms: C_3  and  O_4 
ROOT
HETATM    1  C   UNK N   1      36.854  10.423  15.792  0.00  0.00     0.012 C 
HETATM    2  C   UNK N   1      37.268  11.544  14.828  0.00  0.00     0.032 C 
HETATM    3  C   UNK N   1      36.093  12.452  14.461  0.00  0.00     0.118 C 
HETATM    4  C   UNK N   1      35.394  13.049  15.695  0.00  0.00     0.037 C 
HETATM    5  C   UNK N   1      35.846  12.418  17.017  0.00  0.00    -0.004 C 
HETATM    6  C   UNK N   1      34.938  12.862  18.168  0.00  0.00     0.006 C 
HETATM    7  C   UNK N   1      35.499  12.357  19.502  0.00  0.00     0.006 C 
HETATM    8  C   UNK N   1      35.661  10.827  19.530  0.00  0.00    -0.004 C 
HETATM    9  C   UNK N   1      36.452  10.339  18.292  0.00  0.00    -0.002 C 
HETATM   10  C   UNK N   1      35.902  10.866  16.927  0.00  0.00    -0.036 C 
HETATM   11  C   UNK N   1      36.638   8.818  18.383  0.00  0.00     0.007 C 
HETATM   12  C   UNK N   1      35.312   8.079  18.509  0.00  0.00     0.018 C 
HETATM   13  C   UNK N   1      34.440   8.558  19.683  0.00  0.00     0.021 C 
HETATM   14  C   UNK N   1      34.294  10.096  19.741  0.00  0.00     0.006 C 
HETATM   15  C   UNK N   1      33.845  10.345  21.188  0.00  0.00     0.013 C 
HETATM   16  C   UNK N   1      34.674   9.361  22.028  0.00  0.00     0.079 C 
HETATM   17  C   UNK N   1      34.950   8.267  21.052  0.00  0.00     0.135 C 
HETATM   18  O   UNK N   1      35.361   7.171  21.397  0.00  0.00    -0.297 OA
HETATM   19  C   UNK N   1      33.084   7.875  19.550  0.00  0.00     0.024 C 
HETATM   20  C   UNK N   1      34.518  10.311  16.587  0.00  0.00     0.016 C 
ENDROOT
BRANCH   3  21
HETATM   21  O   UNK N   1      36.553  13.487  13.648  0.00  0.00    -0.396 OA
HETATM   22  H   UNK N   1      37.100  13.301  12.869  0.00  0.00     0.210 HD
ENDBRANCH   3  21
TORSDOF 1
ENDMDL
MODEL 9
REMARK VINA RESULT:      -6.6      9.931     13.042
REMARK  1 active torsions:
REMARK  status: ('A' for Active; 'I' for Inactive)
REMARK    1  A    between atoms: C_3  and  O_4 
ROOT
HETATM    1  C   UNK N   1      29.615  17.666   4.642  0.00  0.00     0.012 C 
HETATM    2  C   UNK N   1      28.294  18.449   4.687  0.00  0.00     0.032 C 
HETATM    3  C   UNK N   1      27.279  17.810   5.637  0.00  0.00     0.118 C 
HETATM    4  C   UNK N   1      27.831  17.624   7.061  0.00  0.00     0.037 C 
HETATM    5  C   UNK N   1      29.341  17.871   7.167  0.00  0.00    -0.004 C 
HETATM    6  C   UNK N   1      29.869  17.421   8.533  0.00  0.00     0.006 C 
HETATM    7  C   UNK N   1      31.340  17.824   8.683  0.00  0.00     0.006 C 
HETATM    8  C   UNK N   1      32.226  17.245   7.567  0.00  0.00    -0.004 C 
HETATM    9  C   UNK N   1      31.628  17.562   6.174  0.00  0.00    -0.002 C 
HETATM   10  C   UNK N   1      30.122  17.176   6.017  0.00  0.00    -0.036 C 
HETATM   11  C   UNK N   1      32.566  17.015   5.090  0.00  0.00     0.007 C 
HETATM   12  C   UNK N   1      32.822  15.522   5.246  0.00  0.00     0.018 C 
HETATM   13  C   UNK N   1      33.358  15.122   6.630  0.00  0.00     0.021 C 
HETATM   14  C   UNK N   1      32.540  15.729   7.794  0.00  0.00     0.006 C 
HETATM   15  C   UNK N   1      33.503  15.621   8.985  0.00  0.00     0.013 C 
HETATM   16  C   UNK N   1      34.881  15.975   8.405  0.00  0.00     0.079 C 
HETATM   17  C   UNK N   1      34.731  15.586   6.973  0.00  0.00     0.135 C 
HETATM   18  O   UNK N   1      35.687  15.466   6.223  0.00  0.00    -0.297 OA
HETATM   19  C   UNK N   1      33.366  13.600   6.693  0.00  0.00     0.024 C 
HETATM   20  C   UNK N   1      29.887  15.664   6.063  0.00  0.00     0.016 C 
ENDROOT
BRANCH   3  21
HETATM   21  O   UNK N   1      26.137  18.609   5.687  0.00  0.00    -0.396 OA
HETATM   22  H   UNK N   1      25.500  18.519   6.413  0.00  0.00     0.210 HD
ENDBRANCH   3  21
TORSDOF 1
ENDMDL
