MODEL 1
REMARK VINA RESULT:      -5.4      0.000      0.000
REMARK  5 active torsions:
REMARK  status: ('A' for Active; 'I' for Inactive)
REMARK    1  A    between atoms: C_1  and  C_2 
REMARK    2  A    between atoms: C_1  and  C_5 
REMARK    3  A    between atoms: C_2  and  O_4 
REMARK    4  A    between atoms: C_5  and  C_6 
REMARK    5  A    between atoms: C_11  and  N_12 
ROOT
HETATM    1  C   UNK N   1      31.142  17.331   7.946  0.00  0.00    -0.058 A 
HETATM    2  C   UNK N   1      30.848  18.135   9.053  0.00  0.00     0.009 A 
HETATM    3  C   UNK N   1      30.178  17.171   6.936  0.00  0.00     0.009 A 
HETATM    4  C   UNK N   1      29.607  18.772   9.150  0.00  0.00     0.029 A 
HETATM    5  C   UNK N   1      28.940  17.806   7.033  0.00  0.00     0.029 A 
HETATM    6  C   UNK N   1      28.654  18.607   8.140  0.00  0.00     0.025 A 
ENDROOT
BRANCH   1   7
HETATM    7  C   UNK N   1      32.482  16.659   7.865  0.00  0.00     0.049 C 
BRANCH   7   8
HETATM    8  C   UNK N   1      33.544  17.361   8.708  0.00  0.00     0.114 C 
BRANCH   8   9
HETATM    9  C   UNK N   1      34.457  18.231   7.903  0.00  0.00     0.139 C 
HETATM   10  O   UNK N   1      34.498  18.095   6.695  0.00  0.00    -0.650 OA
BRANCH   9  11
HETATM   11  O   UNK N   1      35.232  19.160   8.499  0.00  0.00    -0.776 OA
HETATM   12  H   UNK N   1      35.423  19.964   8.059  0.00  0.00     0.167 HD
ENDBRANCH   9  11
ENDBRANCH   8   9
ENDBRANCH   7   8
ENDBRANCH   1   7
BRANCH   6  13
HETATM   13  N   UNK N   1      27.403  19.247   8.237  0.00  0.00    -0.399 N 
HETATM   14  H   UNK N   1      26.660  18.807   8.709  0.00  0.00     0.156 HD
HETATM   15  H   UNK N   1      27.273  20.135   7.832  0.00  0.00     0.156 HD
ENDBRANCH   6  13
TORSDOF 5
ENDMDL
MODEL 2
REMARK VINA RESULT:      -5.4      0.056      1.397
REMARK  5 active torsions:
REMARK  status: ('A' for Active; 'I' for Inactive)
REMARK    1  A    between atoms: C_1  and  C_2 
REMARK    2  A    between atoms: C_1  and  C_5 
REMARK    3  A    between atoms: C_2  and  O_4 
REMARK    4  A    between atoms: C_5  and  C_6 
REMARK    5  A    between atoms: C_11  and  N_12 
ROOT
HETATM    1  C   UNK N   1      31.150  17.343   7.988  0.00  0.00    -0.058 A 
HETATM    2  C   UNK N   1      30.242  17.235   6.928  0.00  0.00     0.009 A 
HETATM    3  C   UNK N   1      30.799  18.098   9.120  0.00  0.00     0.009 A 
HETATM    4  C   UNK N   1      28.999  17.872   6.999  0.00  0.00     0.029 A 
HETATM    5  C   UNK N   1      29.560  18.733   9.191  0.00  0.00     0.029 A 
HETATM    6  C   UNK N   1      28.659  18.621   8.130  0.00  0.00     0.025 A 
ENDROOT
BRANCH   1   7
HETATM    7  C   UNK N   1      32.477  16.650   7.887  0.00  0.00     0.049 C 
BRANCH   7   8
HETATM    8  C   UNK N   1      33.562  17.332   8.718  0.00  0.00     0.114 C 
BRANCH   8   9
HETATM    9  C   UNK N   1      34.453  18.222   7.910  0.00  0.00     0.139 C 
HETATM   10  O   UNK N   1      34.476  18.102   6.701  0.00  0.00    -0.650 OA
BRANCH   9  11
HETATM   11  O   UNK N   1      35.228  19.151   8.507  0.00  0.00    -0.776 OA
HETATM   12  H   UNK N   1      36.069  19.359   8.151  0.00  0.00     0.167 HD
ENDBRANCH   9  11
ENDBRANCH   8   9
ENDBRANCH   7   8
ENDBRANCH   1   7
BRANCH   6  13
HETATM   13  N   UNK N   1      27.408  19.263   8.203  0.00  0.00    -0.399 N 
HETATM   14  H   UNK N   1      26.587  18.770   7.973  0.00  0.00     0.156 HD
HETATM   15  H   UNK N   1      27.354  20.205   8.484  0.00  0.00     0.156 HD
ENDBRANCH   6  13
TORSDOF 5
ENDMDL
MODEL 3
REMARK VINA RESULT:      -5.1      9.840     11.090
REMARK  5 active torsions:
REMARK  status: ('A' for Active; 'I' for Inactive)
REMARK    1  A    between atoms: C_1  and  C_2 
REMARK    2  A    between atoms: C_1  and  C_5 
REMARK    3  A    between atoms: C_2  and  O_4 
REMARK    4  A    between atoms: C_5  and  C_6 
REMARK    5  A    between atoms: C_11  and  N_12 
ROOT
HETATM    1  C   UNK N   1      35.612  12.345  16.391  0.00  0.00    -0.058 A 
HETATM    2  C   UNK N   1      35.546  11.270  17.285  0.00  0.00     0.009 A 
HETATM    3  C   UNK N   1      35.451  13.654  16.877  0.00  0.00     0.009 A 
HETATM    4  C   UNK N   1      35.323  11.499  18.647  0.00  0.00     0.029 A 
HETATM    5  C   UNK N   1      35.228  13.883  18.235  0.00  0.00     0.029 A 
HETATM    6  C   UNK N   1      35.164  12.806  19.120  0.00  0.00     0.025 A 
ENDROOT
BRANCH   1   7
HETATM    7  C   UNK N   1      35.854  12.073  14.935  0.00  0.00     0.049 C 
BRANCH   7   8
HETATM    8  C   UNK N   1      36.692  13.159  14.265  0.00  0.00     0.114 C 
BRANCH   8   9
HETATM    9  C   UNK N   1      35.915  13.989  13.293  0.00  0.00     0.139 C 
HETATM   10  O   UNK N   1      34.783  13.658  12.999  0.00  0.00    -0.650 OA
BRANCH   9  11
HETATM   11  O   UNK N   1      36.455  15.096  12.742  0.00  0.00    -0.776 OA
HETATM   12  H   UNK N   1      37.152  15.019  12.122  0.00  0.00     0.167 HD
ENDBRANCH   9  11
ENDBRANCH   8   9
ENDBRANCH   7   8
ENDBRANCH   1   7
BRANCH   6  13
HETATM   13  N   UNK N   1      34.938  13.038  20.491  0.00  0.00    -0.399 N 
HETATM   14  H   UNK N   1      34.144  13.541  20.780  0.00  0.00     0.156 HD
HETATM   15  H   UNK N   1      35.575  12.697  21.159  0.00  0.00     0.156 HD
ENDBRANCH   6  13
TORSDOF 5
ENDMDL
MODEL 4
REMARK VINA RESULT:      -5.0     15.912     17.167
REMARK  5 active torsions:
REMARK  status: ('A' for Active; 'I' for Inactive)
REMARK    1  A    between atoms: C_1  and  C_2 
REMARK    2  A    between atoms: C_1  and  C_5 
REMARK    3  A    between atoms: C_2  and  O_4 
REMARK    4  A    between atoms: C_5  and  C_6 
REMARK    5  A    between atoms: C_11  and  N_12 
ROOT
HETATM    1  C   UNK N   1      25.770  25.061  -5.298  0.00  0.00    -0.058 A 
HETATM    2  C   UNK N   1      26.396  25.199  -4.054  0.00  0.00     0.009 A 
HETATM    3  C   UNK N   1      25.151  26.178  -5.885  0.00  0.00     0.009 A 
HETATM    4  C   UNK N   1      26.402  26.437  -3.403  0.00  0.00     0.029 A 
HETATM    5  C   UNK N   1      25.157  27.413  -5.235  0.00  0.00     0.029 A 
HETATM    6  C   UNK N   1      25.782  27.543  -3.994  0.00  0.00     0.025 A 
ENDROOT
BRANCH   1   7
HETATM    7  C   UNK N   1      25.778  23.722  -5.976  0.00  0.00     0.049 C 
BRANCH   7   8
HETATM    8  C   UNK N   1      26.228  23.803  -7.434  0.00  0.00     0.114 C 
BRANCH   8   9
HETATM    9  C   UNK N   1      25.155  23.425  -8.405  0.00  0.00     0.139 C 
HETATM   10  O   UNK N   1      25.088  24.002  -9.473  0.00  0.00    -0.650 OA
BRANCH   9  11
HETATM   11  O   UNK N   1      24.266  22.455  -8.110  0.00  0.00    -0.776 OA
HETATM   12  H   UNK N   1      23.478  22.373  -8.610  0.00  0.00     0.167 HD
ENDBRANCH   9  11
ENDBRANCH   8   9
ENDBRANCH   7   8
ENDBRANCH   1   7
BRANCH   6  13
HETATM   13  N   UNK N   1      25.788  28.789  -3.340  0.00  0.00    -0.399 N 
HETATM   14  H   UNK N   1      25.600  28.840  -2.375  0.00  0.00     0.156 HD
HETATM   15  H   UNK N   1      25.980  29.610  -3.847  0.00  0.00     0.156 HD
ENDBRANCH   6  13
TORSDOF 5
ENDMDL
MODEL 5
REMARK VINA RESULT:      -4.9     15.634     16.930
REMARK  5 active torsions:
REMARK  status: ('A' for Active; 'I' for Inactive)
REMARK    1  A    between atoms: C_1  and  C_2 
REMARK    2  A    between atoms: C_1  and  C_5 
REMARK    3  A    between atoms: C_2  and  O_4 
REMARK    4  A    between atoms: C_5  and  C_6 
REMARK    5  A    between atoms: C_11  and  N_12 
ROOT
HETATM    1  C   UNK N   1      25.909  24.942  -5.987  0.00  0.00    -0.058 A 
HETATM    2  C   UNK N   1      25.311  26.186  -6.218  0.00  0.00     0.009 A 
HETATM    3  C   UNK N   1      26.483  24.677  -4.732  0.00  0.00     0.009 A 
HETATM    4  C   UNK N   1      25.286  27.153  -5.208  0.00  0.00     0.029 A 
HETATM    5  C   UNK N   1      26.458  25.642  -3.724  0.00  0.00     0.029 A 
HETATM    6  C   UNK N   1      25.859  26.881  -3.962  0.00  0.00     0.025 A 
ENDROOT
BRANCH   1   7
HETATM    7  C   UNK N   1      25.922  23.921  -7.087  0.00  0.00     0.049 C 
BRANCH   7   8
HETATM    8  C   UNK N   1      25.505  22.532  -6.605  0.00  0.00     0.114 C 
BRANCH   8   9
HETATM    9  C   UNK N   1      24.798  21.732  -7.652  0.00  0.00     0.139 C 
HETATM   10  O   UNK N   1      25.333  20.738  -8.105  0.00  0.00    -0.650 OA
BRANCH   9  11
HETATM   11  O   UNK N   1      23.579  22.099  -8.098  0.00  0.00    -0.776 OA
HETATM   12  H   UNK N   1      23.389  23.003  -8.253  0.00  0.00     0.167 HD
ENDBRANCH   9  11
ENDBRANCH   8   9
ENDBRANCH   7   8
ENDBRANCH   1   7
BRANCH   6  13
HETATM   13  N   UNK N   1      25.835  27.854  -2.945  0.00  0.00    -0.399 N 
HETATM   14  H   UNK N   1      26.541  28.538  -2.902  0.00  0.00     0.156 HD
HETATM   15  H   UNK N   1      25.112  27.850  -2.278  0.00  0.00     0.156 HD
ENDBRANCH   6  13
TORSDOF 5
ENDMDL
MODEL 6
REMARK VINA RESULT:      -4.9     10.399     11.171
REMARK  5 active torsions:
REMARK  status: ('A' for Active; 'I' for Inactive)
REMARK    1  A    between atoms: C_1  and  C_2 
REMARK    2  A    between atoms: C_1  and  C_5 
REMARK    3  A    between atoms: C_2  and  O_4 
REMARK    4  A    between atoms: C_5  and  C_6 
REMARK    5  A    between atoms: C_11  and  N_12 
ROOT
HETATM    1  C   UNK N   1      21.293  13.044   9.749  0.00  0.00    -0.058 A 
HETATM    2  C   UNK N   1      21.727  12.522   8.525  0.00  0.00     0.009 A 
HETATM    3  C   UNK N   1      20.549  14.236   9.764  0.00  0.00     0.009 A 
HETATM    4  C   UNK N   1      21.422  13.183   7.330  0.00  0.00     0.029 A 
HETATM    5  C   UNK N   1      20.245  14.895   8.573  0.00  0.00     0.029 A 
HETATM    6  C   UNK N   1      20.681  14.369   7.355  0.00  0.00     0.025 A 
ENDROOT
BRANCH   1   7
HETATM    7  C   UNK N   1      21.633  12.315  11.016  0.00  0.00     0.049 C 
BRANCH   7   8
HETATM    8  C   UNK N   1      22.956  11.559  10.923  0.00  0.00     0.114 C 
BRANCH   8   9
HETATM    9  C   UNK N   1      23.967  12.010  11.928  0.00  0.00     0.139 C 
HETATM   10  O   UNK N   1      23.670  12.024  13.107  0.00  0.00    -0.650 OA
BRANCH   9  11
HETATM   11  O   UNK N   1      25.200  12.400  11.543  0.00  0.00    -0.776 OA
HETATM   12  H   UNK N   1      25.958  12.027  11.948  0.00  0.00     0.167 HD
ENDBRANCH   9  11
ENDBRANCH   8   9
ENDBRANCH   7   8
ENDBRANCH   1   7
BRANCH   6  13
HETATM   13  N   UNK N   1      20.374  15.035   6.154  0.00  0.00    -0.399 N 
HETATM   14  H   UNK N   1      19.850  14.578   5.457  0.00  0.00     0.156 HD
HETATM   15  H   UNK N   1      20.683  15.958   6.010  0.00  0.00     0.156 HD
ENDBRANCH   6  13
TORSDOF 5
ENDMDL
MODEL 7
REMARK VINA RESULT:      -4.9     10.665     11.859
REMARK  5 active torsions:
REMARK  status: ('A' for Active; 'I' for Inactive)
REMARK    1  A    between atoms: C_1  and  C_2 
REMARK    2  A    between atoms: C_1  and  C_5 
REMARK    3  A    between atoms: C_2  and  O_4 
REMARK    4  A    between atoms: C_5  and  C_6 
REMARK    5  A    between atoms: C_11  and  N_12 
ROOT
HETATM    1  C   UNK N   1      35.722  11.801  16.847  0.00  0.00    -0.058 A 
HETATM    2  C   UNK N   1      35.449  13.168  16.971  0.00  0.00     0.009 A 
HETATM    3  C   UNK N   1      35.663  10.981  17.986  0.00  0.00     0.009 A 
HETATM    4  C   UNK N   1      35.122  13.709  18.219  0.00  0.00     0.029 A 
HETATM    5  C   UNK N   1      35.337  11.520  19.230  0.00  0.00     0.029 A 
HETATM    6  C   UNK N   1      35.066  12.885  19.347  0.00  0.00     0.025 A 
ENDROOT
BRANCH   1   7
HETATM    7  C   UNK N   1      36.071  11.244  15.497  0.00  0.00     0.049 C 
BRANCH   7   8
HETATM    8  C   UNK N   1      34.923  10.455  14.871  0.00  0.00     0.114 C 
BRANCH   8   9
HETATM    9  C   UNK N   1      34.217  11.201  13.784  0.00  0.00     0.139 C 
HETATM   10  O   UNK N   1      34.403  12.396  13.663  0.00  0.00    -0.650 OA
BRANCH   9  11
HETATM   11  O   UNK N   1      33.380  10.564  12.938  0.00  0.00    -0.776 OA
HETATM   12  H   UNK N   1      32.705  10.011  13.276  0.00  0.00     0.167 HD
ENDBRANCH   9  11
ENDBRANCH   8   9
ENDBRANCH   7   8
ENDBRANCH   1   7
BRANCH   6  13
HETATM   13  N   UNK N   1      34.736  13.429  20.603  0.00  0.00    -0.399 N 
HETATM   14  H   UNK N   1      34.194  12.907  21.238  0.00  0.00     0.156 HD
HETATM   15  H   UNK N   1      35.048  14.330  20.847  0.00  0.00     0.156 HD
ENDBRANCH   6  13
TORSDOF 5
ENDMDL
MODEL 8
REMARK VINA RESULT:      -4.8     10.950     12.053
REMARK  5 active torsions:
REMARK  status: ('A' for Active; 'I' for Inactive)
REMARK    1  A    between atoms: C_1  and  C_2 
REMARK    2  A    between atoms: C_1  and  C_5 
REMARK    3  A    between atoms: C_2  and  O_4 
REMARK    4  A    between atoms: C_5  and  C_6 
REMARK    5  A    between atoms: C_11  and  N_12 
ROOT
HETATM    1  C   UNK N   1      21.213  13.610   9.375  0.00  0.00    -0.058 A 
HETATM    2  C   UNK N   1      20.337  13.083  10.331  0.00  0.00     0.009 A 
HETATM    3  C   UNK N   1      22.596  13.406   9.522  0.00  0.00     0.009 A 
HETATM    4  C   UNK N   1      20.836  12.362  11.421  0.00  0.00     0.029 A 
HETATM    5  C   UNK N   1      23.093  12.687  10.609  0.00  0.00     0.029 A 
HETATM    6  C   UNK N   1      22.214  12.165  11.559  0.00  0.00     0.025 A 
ENDROOT
BRANCH   1   7
HETATM    7  C   UNK N   1      20.653  14.379   8.214  0.00  0.00     0.049 C 
BRANCH   7   8
HETATM    8  C   UNK N   1      20.949  15.875   8.303  0.00  0.00     0.114 C 
BRANCH   8   9
HETATM    9  C   UNK N   1      19.782  16.681   8.777  0.00  0.00     0.139 C 
HETATM   10  O   UNK N   1      18.702  16.140   8.919  0.00  0.00    -0.650 OA
BRANCH   9  11
HETATM   11  O   UNK N   1      19.913  17.996   9.047  0.00  0.00    -0.776 OA
HETATM   12  H   UNK N   1      19.579  18.346   9.849  0.00  0.00     0.167 HD
ENDBRANCH   9  11
ENDBRANCH   8   9
ENDBRANCH   7   8
ENDBRANCH   1   7
BRANCH   6  13
HETATM   13  N   UNK N   1      22.717  11.440  12.656  0.00  0.00    -0.399 N 
HETATM   14  H   UNK N   1      22.678  10.456  12.655  0.00  0.00     0.156 HD
HETATM   15  H   UNK N   1      23.107  11.916  13.423  0.00  0.00     0.156 HD
ENDBRANCH   6  13
TORSDOF 5
ENDMDL
MODEL 9
REMARK VINA RESULT:      -4.8      3.065      3.913
REMARK  5 active torsions:
REMARK  status: ('A' for Active; 'I' for Inactive)
REMARK    1  A    between atoms: C_1  and  C_2 
REMARK    2  A    between atoms: C_1  and  C_5 
REMARK    3  A    between atoms: C_2  and  O_4 
REMARK    4  A    between atoms: C_5  and  C_6 
REMARK    5  A    between atoms: C_11  and  N_12 
ROOT
HETATM    1  C   UNK N   1      32.450  17.418   6.820  0.00  0.00    -0.058 A 
HETATM    2  C   UNK N   1      31.121  17.200   6.439  0.00  0.00     0.009 A 
HETATM    3  C   UNK N   1      33.436  17.552   5.828  0.00  0.00     0.009 A 
HETATM    4  C   UNK N   1      30.781  17.116   5.085  0.00  0.00     0.029 A 
HETATM    5  C   UNK N   1      33.098  17.469   4.477  0.00  0.00     0.029 A 
HETATM    6  C   UNK N   1      31.770  17.251   4.105  0.00  0.00     0.025 A 
ENDROOT
BRANCH   1   7
HETATM    7  C   UNK N   1      32.788  17.504   8.280  0.00  0.00     0.049 C 
BRANCH   7   8
HETATM    8  C   UNK N   1      34.291  17.604   8.530  0.00  0.00     0.114 C 
BRANCH   8   9
HETATM    9  C   UNK N   1      34.724  16.946   9.802  0.00  0.00     0.139 C 
HETATM   10  O   UNK N   1      35.723  17.344  10.369  0.00  0.00    -0.650 OA
BRANCH   9  11
HETATM   11  O   UNK N   1      34.020  15.920  10.324  0.00  0.00    -0.776 OA
HETATM   12  H   UNK N   1      33.655  15.991  11.183  0.00  0.00     0.167 HD
ENDBRANCH   9  11
ENDBRANCH   8   9
ENDBRANCH   7   8
ENDBRANCH   1   7
BRANCH   6  13
HETATM   13  N   UNK N   1      31.430  17.167   2.741  0.00  0.00    -0.399 N 
HETATM   14  H   UNK N   1      32.129  16.998   2.069  0.00  0.00     0.156 HD
HETATM   15  H   UNK N   1      30.494  17.279   2.460  0.00  0.00     0.156 HD
ENDBRANCH   6  13
TORSDOF 5
ENDMDL
