MODEL 1
REMARK VINA RESULT:      -7.0      0.000      0.000
REMARK  4 active torsions:
REMARK  status: ('A' for Active; 'I' for Inactive)
REMARK    1  A    between atoms: C_1  and  S_10 
REMARK    2  A    between atoms: C_6  and  O_23 
REMARK    3  A    between atoms: N_9  and  S_10 
REMARK    4  A    between atoms: N_17  and  C_21 
ROOT
HETATM    1  C   UNK N   1      22.938  19.713   3.277  0.00  0.00     0.121 A 
HETATM    2  C   UNK N   1      27.651  19.695   4.582  0.00  0.00     0.146 C 
HETATM    3  C   UNK N   1      26.704  20.260   3.483  0.00  0.00     0.061 C 
HETATM    4  S   UNK N   1      23.362  18.265   3.957  0.00  0.00    -0.062 SA
HETATM    5  C   UNK N   1      24.971  18.510   4.081  0.00  0.00     0.128 A 
HETATM    6  C   UNK N   1      25.273  19.766   3.578  0.00  0.00    -0.024 A 
HETATM    7  C   UNK N   1      24.116  20.469   3.100  0.00  0.00     0.042 A 
HETATM    8  N   UNK N   1      27.708  18.239   4.605  0.00  0.00    -0.271 N 
HETATM    9  S   UNK N   1      26.178  17.382   4.648  0.00  0.00     0.272 S 
HETATM   10  O   UNK N   1      26.351  16.141   3.762  0.00  0.00    -0.199 OA
HETATM   11  O   UNK N   1      26.028  16.874   6.089  0.00  0.00    -0.199 OA
ENDROOT
BRANCH   8  12
HETATM   12  C   UNK N   1      28.941  17.531   4.782  0.00  0.00     0.047 A 
HETATM   13  C   UNK N   1      29.526  17.410   6.056  0.00  0.00     0.067 A 
HETATM   14  C   UNK N   1      30.704  16.670   6.229  0.00  0.00     0.070 A 
HETATM   15  C   UNK N   1      31.309  16.056   5.119  0.00  0.00     0.037 A 
HETATM   16  C   UNK N   1      30.740  16.179   3.853  0.00  0.00     0.005 A 
HETATM   17  C   UNK N   1      29.561  16.903   3.692  0.00  0.00     0.030 A 
BRANCH  14  18
HETATM   18  O   UNK N   1      31.230  16.549   7.472  0.00  0.00    -0.356 OA
HETATM   19  C   UNK N   1      31.495  17.631   8.283  0.00  0.00     0.210 C 
ENDBRANCH  14  18
ENDBRANCH   8  12
BRANCH   1  20
HETATM   20  S   UNK N   1      21.257  20.066   2.767  0.00  0.00     0.263 S 
HETATM   21  O   UNK N   1      20.409  20.654   3.904  0.00  0.00    -0.200 OA
HETATM   22  O   UNK N   1      21.898  21.453   2.630  0.00  0.00    -0.200 OA
BRANCH  20  23
HETATM   23  N   UNK N   1      20.503  20.539   1.245  0.00  0.00    -0.324 N 
HETATM   24  H   UNK N   1      20.524  19.923   0.432  0.00  0.00     0.169 HD
HETATM   25  H   UNK N   1      20.036  21.443   1.176  0.00  0.00     0.169 HD
ENDBRANCH  20  23
ENDBRANCH   1  20
TORSDOF 4
ENDMDL
MODEL 2
REMARK VINA RESULT:      -7.0      1.766      2.701
REMARK  4 active torsions:
REMARK  status: ('A' for Active; 'I' for Inactive)
REMARK    1  A    between atoms: C_1  and  S_10 
REMARK    2  A    between atoms: C_6  and  O_23 
REMARK    3  A    between atoms: N_9  and  S_10 
REMARK    4  A    between atoms: N_17  and  C_21 
ROOT
HETATM    1  C   UNK N   1      22.622  19.283   3.427  0.00  0.00     0.121 A 
HETATM    2  C   UNK N   1      26.263  16.523   5.170  0.00  0.00     0.146 C 
HETATM    3  C   UNK N   1      24.728  16.727   5.315  0.00  0.00     0.061 C 
HETATM    4  S   UNK N   1      24.029  20.150   3.534  0.00  0.00    -0.062 SA
HETATM    5  C   UNK N   1      24.944  19.044   4.310  0.00  0.00     0.128 A 
HETATM    6  C   UNK N   1      24.180  17.910   4.540  0.00  0.00    -0.024 A 
HETATM    7  C   UNK N   1      22.836  18.034   4.049  0.00  0.00     0.042 A 
HETATM    8  N   UNK N   1      27.043  17.687   5.570  0.00  0.00    -0.271 N 
HETATM    9  S   UNK N   1      26.587  19.230   4.874  0.00  0.00     0.272 S 
HETATM   10  O   UNK N   1      26.760  20.275   5.984  0.00  0.00    -0.199 OA
HETATM   11  O   UNK N   1      27.653  19.538   3.812  0.00  0.00    -0.199 OA
ENDROOT
BRANCH   8  12
HETATM   12  C   UNK N   1      28.247  17.566   6.338  0.00  0.00     0.047 A 
HETATM   13  C   UNK N   1      29.470  17.252   5.717  0.00  0.00     0.067 A 
HETATM   14  C   UNK N   1      30.652  17.188   6.469  0.00  0.00     0.070 A 
HETATM   15  C   UNK N   1      30.609  17.427   7.853  0.00  0.00     0.037 A 
HETATM   16  C   UNK N   1      29.401  17.730   8.477  0.00  0.00     0.005 A 
HETATM   17  C   UNK N   1      28.233  17.806   7.720  0.00  0.00     0.030 A 
BRANCH  14  18
HETATM   18  O   UNK N   1      31.820  16.910   5.839  0.00  0.00    -0.356 OA
HETATM   19  C   UNK N   1      32.220  17.547   4.685  0.00  0.00     0.210 C 
ENDBRANCH  14  18
ENDBRANCH   8  12
BRANCH   1  20
HETATM   20  S   UNK N   1      21.122  19.988   2.748  0.00  0.00     0.263 S 
HETATM   21  O   UNK N   1      20.313  20.767   3.795  0.00  0.00    -0.200 OA
HETATM   22  O   UNK N   1      22.063  21.197   2.686  0.00  0.00    -0.200 OA
BRANCH  20  23
HETATM   23  N   UNK N   1      20.648  20.588   1.159  0.00  0.00    -0.324 N 
HETATM   24  H   UNK N   1      20.777  21.568   0.906  0.00  0.00     0.169 HD
HETATM   25  H   UNK N   1      20.239  19.945   0.482  0.00  0.00     0.169 HD
ENDBRANCH  20  23
ENDBRANCH   1  20
TORSDOF 4
ENDMDL
MODEL 3
REMARK VINA RESULT:      -7.0      5.677      9.046
REMARK  4 active torsions:
REMARK  status: ('A' for Active; 'I' for Inactive)
REMARK    1  A    between atoms: C_1  and  S_10 
REMARK    2  A    between atoms: C_6  and  O_23 
REMARK    3  A    between atoms: N_9  and  S_10 
REMARK    4  A    between atoms: N_17  and  C_21 
ROOT
HETATM    1  C   UNK N   1      22.408  13.692   9.156  0.00  0.00     0.121 A 
HETATM    2  C   UNK N   1      22.257  15.556   4.638  0.00  0.00     0.146 C 
HETATM    3  C   UNK N   1      23.274  15.071   5.710  0.00  0.00     0.061 C 
HETATM    4  S   UNK N   1      21.156  14.763   8.996  0.00  0.00    -0.062 SA
HETATM    5  C   UNK N   1      21.503  15.329   7.505  0.00  0.00     0.128 A 
HETATM    6  C   UNK N   1      22.650  14.701   7.042  0.00  0.00    -0.024 A 
HETATM    7  C   UNK N   1      23.192  13.764   7.985  0.00  0.00     0.042 A 
HETATM    8  N   UNK N   1      21.467  16.704   5.066  0.00  0.00    -0.271 N 
HETATM    9  S   UNK N   1      20.670  16.586   6.624  0.00  0.00     0.272 S 
HETATM   10  O   UNK N   1      20.764  17.978   7.265  0.00  0.00    -0.199 OA
HETATM   11  O   UNK N   1      19.185  16.347   6.314  0.00  0.00    -0.199 OA
ENDROOT
BRANCH   8  12
HETATM   12  C   UNK N   1      21.184  17.800   4.188  0.00  0.00     0.047 A 
HETATM   13  C   UNK N   1      22.125  18.827   3.990  0.00  0.00     0.067 A 
HETATM   14  C   UNK N   1      21.861  19.868   3.087  0.00  0.00     0.070 A 
HETATM   15  C   UNK N   1      20.642  19.889   2.388  0.00  0.00     0.037 A 
HETATM   16  C   UNK N   1      19.702  18.881   2.586  0.00  0.00     0.005 A 
HETATM   17  C   UNK N   1      19.978  17.842   3.473  0.00  0.00     0.030 A 
BRANCH  14  18
HETATM   18  O   UNK N   1      22.798  20.828   2.897  0.00  0.00    -0.356 OA
HETATM   19  C   UNK N   1      24.147  20.606   3.070  0.00  0.00     0.210 C 
ENDBRANCH  14  18
ENDBRANCH   8  12
BRANCH   1  20
HETATM   20  S   UNK N   1      22.686  12.776  10.671  0.00  0.00     0.263 S 
HETATM   21  O   UNK N   1      21.470  11.930  11.077  0.00  0.00    -0.200 OA
HETATM   22  O   UNK N   1      22.988  11.699   9.622  0.00  0.00    -0.200 OA
BRANCH  20  23
HETATM   23  N   UNK N   1      24.104  12.069  11.444  0.00  0.00    -0.324 N 
HETATM   24  H   UNK N   1      24.284  11.066  11.399  0.00  0.00     0.169 HD
HETATM   25  H   UNK N   1      24.756  12.673  11.944  0.00  0.00     0.169 HD
ENDBRANCH  20  23
ENDBRANCH   1  20
TORSDOF 4
ENDMDL
MODEL 4
REMARK VINA RESULT:      -6.9      4.979      8.290
REMARK  4 active torsions:
REMARK  status: ('A' for Active; 'I' for Inactive)
REMARK    1  A    between atoms: C_1  and  S_10 
REMARK    2  A    between atoms: C_6  and  O_23 
REMARK    3  A    between atoms: N_9  and  S_10 
REMARK    4  A    between atoms: N_17  and  C_21 
ROOT
HETATM    1  C   UNK N   1      21.845  14.127   8.715  0.00  0.00     0.121 A 
HETATM    2  C   UNK N   1      23.823  16.177   4.740  0.00  0.00     0.146 C 
HETATM    3  C   UNK N   1      24.232  15.514   6.087  0.00  0.00     0.061 C 
HETATM    4  S   UNK N   1      20.901  15.365   8.151  0.00  0.00    -0.062 SA
HETATM    5  C   UNK N   1      21.906  15.938   7.000  0.00  0.00     0.128 A 
HETATM    6  C   UNK N   1      23.066  15.179   6.997  0.00  0.00    -0.024 A 
HETATM    7  C   UNK N   1      23.054  14.138   7.987  0.00  0.00     0.042 A 
HETATM    8  N   UNK N   1      23.054  17.404   4.909  0.00  0.00    -0.271 N 
HETATM    9  S   UNK N   1      21.665  17.333   5.977  0.00  0.00     0.272 S 
HETATM   10  O   UNK N   1      21.627  18.671   6.728  0.00  0.00    -0.199 OA
HETATM   11  O   UNK N   1      20.435  17.313   5.057  0.00  0.00    -0.199 OA
ENDROOT
BRANCH   8  12
HETATM   12  C   UNK N   1      23.289  18.563   4.100  0.00  0.00     0.047 A 
HETATM   13  C   UNK N   1      22.222  19.232   3.472  0.00  0.00     0.067 A 
HETATM   14  C   UNK N   1      22.456  20.397   2.727  0.00  0.00     0.070 A 
HETATM   15  C   UNK N   1      23.765  20.890   2.599  0.00  0.00     0.037 A 
HETATM   16  C   UNK N   1      24.827  20.229   3.211  0.00  0.00     0.005 A 
HETATM   17  C   UNK N   1      24.586  19.080   3.962  0.00  0.00     0.030 A 
BRANCH  14  18
HETATM   18  O   UNK N   1      21.405  21.035   2.155  0.00  0.00    -0.356 OA
HETATM   19  C   UNK N   1      20.852  20.641   0.956  0.00  0.00     0.210 C 
ENDBRANCH  14  18
ENDBRANCH   8  12
BRANCH   1  20
HETATM   20  S   UNK N   1      21.354  13.120  10.113  0.00  0.00     0.263 S 
HETATM   21  O   UNK N   1      19.832  13.087  10.309  0.00  0.00    -0.200 OA
HETATM   22  O   UNK N   1      21.151  12.130   8.959  0.00  0.00    -0.200 OA
BRANCH  20  23
HETATM   23  N   UNK N   1      22.019  11.687  10.896  0.00  0.00    -0.324 N 
HETATM   24  H   UNK N   1      21.892  10.759  10.493  0.00  0.00     0.169 HD
HETATM   25  H   UNK N   1      22.539  11.787  11.768  0.00  0.00     0.169 HD
ENDBRANCH  20  23
ENDBRANCH   1  20
TORSDOF 4
ENDMDL
MODEL 5
REMARK VINA RESULT:      -6.8      3.559      8.779
REMARK  4 active torsions:
REMARK  status: ('A' for Active; 'I' for Inactive)
REMARK    1  A    between atoms: C_1  and  S_10 
REMARK    2  A    between atoms: C_6  and  O_23 
REMARK    3  A    between atoms: N_9  and  S_10 
REMARK    4  A    between atoms: N_17  and  C_21 
ROOT
HETATM    1  C   UNK N   1      32.607  16.587   7.907  0.00  0.00     0.121 A 
HETATM    2  C   UNK N   1      29.450  17.158   4.216  0.00  0.00     0.146 C 
HETATM    3  C   UNK N   1      30.938  17.425   4.584  0.00  0.00     0.061 C 
HETATM    4  S   UNK N   1      31.086  16.920   8.470  0.00  0.00    -0.062 SA
HETATM    5  C   UNK N   1      30.359  17.244   7.045  0.00  0.00     0.128 A 
HETATM    6  C   UNK N   1      31.290  17.113   6.026  0.00  0.00    -0.024 A 
HETATM    7  C   UNK N   1      32.593  16.746   6.505  0.00  0.00     0.042 A 
HETATM    8  N   UNK N   1      28.506  17.893   5.049  0.00  0.00    -0.271 N 
HETATM    9  S   UNK N   1      28.714  17.771   6.786  0.00  0.00     0.272 S 
HETATM   10  O   UNK N   1      28.396  19.159   7.359  0.00  0.00    -0.199 OA
HETATM   11  O   UNK N   1      27.601  16.831   7.272  0.00  0.00    -0.199 OA
ENDROOT
BRANCH   8  12
HETATM   12  C   UNK N   1      27.344  18.527   4.500  0.00  0.00     0.047 A 
HETATM   13  C   UNK N   1      26.094  17.881   4.519  0.00  0.00     0.067 A 
HETATM   14  C   UNK N   1      24.952  18.531   4.028  0.00  0.00     0.070 A 
HETATM   15  C   UNK N   1      25.063  19.830   3.505  0.00  0.00     0.037 A 
HETATM   16  C   UNK N   1      26.298  20.473   3.476  0.00  0.00     0.005 A 
HETATM   17  C   UNK N   1      27.425  19.826   3.979  0.00  0.00     0.030 A 
BRANCH  14  18
HETATM   18  O   UNK N   1      23.757  17.894   4.083  0.00  0.00    -0.356 OA
HETATM   19  C   UNK N   1      22.952  17.904   5.201  0.00  0.00     0.210 C 
ENDBRANCH  14  18
ENDBRANCH   8  12
BRANCH   1  20
HETATM   20  S   UNK N   1      33.974  16.244   9.012  0.00  0.00     0.263 S 
HETATM   21  O   UNK N   1      35.015  15.304   8.385  0.00  0.00    -0.200 OA
HETATM   22  O   UNK N   1      34.574  17.360   8.148  0.00  0.00    -0.200 OA
BRANCH  20  23
HETATM   23  N   UNK N   1      34.780  17.144  10.296  0.00  0.00    -0.324 N 
HETATM   24  H   UNK N   1      35.383  17.939  10.084  0.00  0.00     0.169 HD
HETATM   25  H   UNK N   1      34.640  16.866  11.267  0.00  0.00     0.169 HD
ENDBRANCH  20  23
ENDBRANCH   1  20
TORSDOF 4
ENDMDL
MODEL 6
REMARK VINA RESULT:      -6.4      6.838     11.446
REMARK  4 active torsions:
REMARK  status: ('A' for Active; 'I' for Inactive)
REMARK    1  A    between atoms: C_1  and  S_10 
REMARK    2  A    between atoms: C_6  and  O_23 
REMARK    3  A    between atoms: N_9  and  S_10 
REMARK    4  A    between atoms: N_17  and  C_21 
ROOT
HETATM    1  C   UNK N   1      35.384  14.495  11.640  0.00  0.00     0.121 A 
HETATM    2  C   UNK N   1      34.493  17.221   7.678  0.00  0.00     0.146 C 
HETATM    3  C   UNK N   1      34.389  17.275   9.230  0.00  0.00     0.061 C 
HETATM    4  S   UNK N   1      34.882  13.557  10.372  0.00  0.00    -0.062 SA
HETATM    5  C   UNK N   1      34.490  14.745   9.324  0.00  0.00     0.128 A 
HETATM    6  C   UNK N   1      34.729  15.971   9.925  0.00  0.00    -0.024 A 
HETATM    7  C   UNK N   1      35.233  15.847  11.264  0.00  0.00     0.042 A 
HETATM    8  N   UNK N   1      33.654  16.192   7.077  0.00  0.00    -0.271 N 
HETATM    9  S   UNK N   1      33.787  14.571   7.734  0.00  0.00     0.272 S 
HETATM   10  O   UNK N   1      32.369  13.984   7.729  0.00  0.00    -0.199 OA
HETATM   11  O   UNK N   1      34.595  13.770   6.703  0.00  0.00    -0.199 OA
ENDROOT
BRANCH   8  12
HETATM   12  C   UNK N   1      32.900  16.430   5.882  0.00  0.00     0.047 A 
HETATM   13  C   UNK N   1      31.566  16.875   5.948  0.00  0.00     0.067 A 
HETATM   14  C   UNK N   1      30.854  17.157   4.774  0.00  0.00     0.070 A 
HETATM   15  C   UNK N   1      31.474  16.982   3.525  0.00  0.00     0.037 A 
HETATM   16  C   UNK N   1      32.791  16.534   3.452  0.00  0.00     0.005 A 
HETATM   17  C   UNK N   1      33.497  16.270   4.623  0.00  0.00     0.030 A 
BRANCH  14  18
HETATM   18  O   UNK N   1      29.579  17.609   4.869  0.00  0.00    -0.356 OA
HETATM   19  C   UNK N   1      28.926  17.761   6.073  0.00  0.00     0.210 C 
ENDBRANCH  14  18
ENDBRANCH   8  12
BRANCH   1  20
HETATM   20  S   UNK N   1      35.868  13.787  13.212  0.00  0.00     0.263 S 
HETATM   21  O   UNK N   1      34.661  13.386  14.073  0.00  0.00    -0.200 OA
HETATM   22  O   UNK N   1      35.608  12.517  12.391  0.00  0.00    -0.200 OA
BRANCH  20  23
HETATM   23  N   UNK N   1      37.250  12.844  13.769  0.00  0.00    -0.324 N 
HETATM   24  H   UNK N   1      37.530  11.987  13.292  0.00  0.00     0.169 HD
HETATM   25  H   UNK N   1      37.779  13.162  14.581  0.00  0.00     0.169 HD
ENDBRANCH  20  23
ENDBRANCH   1  20
TORSDOF 4
ENDMDL
MODEL 7
REMARK VINA RESULT:      -6.4      7.962     11.666
REMARK  4 active torsions:
REMARK  status: ('A' for Active; 'I' for Inactive)
REMARK    1  A    between atoms: C_1  and  S_10 
REMARK    2  A    between atoms: C_6  and  O_23 
REMARK    3  A    between atoms: N_9  and  S_10 
REMARK    4  A    between atoms: N_17  and  C_21 
ROOT
HETATM    1  C   UNK N   1      35.082  13.975  11.491  0.00  0.00     0.121 A 
HETATM    2  C   UNK N   1      32.706  14.007   7.217  0.00  0.00     0.146 C 
HETATM    3  C   UNK N   1      33.765  13.182   8.003  0.00  0.00     0.061 C 
HETATM    4  S   UNK N   1      34.820  15.523  10.966  0.00  0.00    -0.062 SA
HETATM    5  C   UNK N   1      34.222  15.186   9.486  0.00  0.00     0.128 A 
HETATM    6  C   UNK N   1      34.199  13.811   9.313  0.00  0.00    -0.024 A 
HETATM    7  C   UNK N   1      34.702  13.097  10.453  0.00  0.00     0.042 A 
HETATM    8  N   UNK N   1      33.139  15.364   6.910  0.00  0.00    -0.271 N 
HETATM    9  S   UNK N   1      33.762  16.322   8.240  0.00  0.00     0.272 S 
HETATM   10  O   UNK N   1      34.927  17.145   7.674  0.00  0.00    -0.199 OA
HETATM   11  O   UNK N   1      32.649  17.320   8.590  0.00  0.00    -0.199 OA
ENDROOT
BRANCH   8  12
HETATM   12  C   UNK N   1      32.894  15.969   5.634  0.00  0.00     0.047 A 
HETATM   13  C   UNK N   1      33.536  15.495   4.476  0.00  0.00     0.067 A 
HETATM   14  C   UNK N   1      33.249  16.058   3.224  0.00  0.00     0.070 A 
HETATM   15  C   UNK N   1      32.323  17.110   3.131  0.00  0.00     0.037 A 
HETATM   16  C   UNK N   1      31.689  17.591   4.274  0.00  0.00     0.005 A 
HETATM   17  C   UNK N   1      31.968  17.016   5.513  0.00  0.00     0.030 A 
BRANCH  14  18
HETATM   18  O   UNK N   1      33.864  15.562   2.122  0.00  0.00    -0.356 OA
HETATM   19  C   UNK N   1      34.430  14.307   2.079  0.00  0.00     0.210 C 
ENDBRANCH  14  18
ENDBRANCH   8  12
BRANCH   1  20
HETATM   20  S   UNK N   1      35.858  13.625  13.067  0.00  0.00     0.263 S 
HETATM   21  O   UNK N   1      34.839  13.493  14.208  0.00  0.00    -0.200 OA
HETATM   22  O   UNK N   1      35.439  12.215  12.632  0.00  0.00    -0.200 OA
BRANCH  20  23
HETATM   23  N   UNK N   1      37.318  12.769  13.560  0.00  0.00    -0.324 N 
HETATM   24  H   UNK N   1      37.531  11.838  13.202  0.00  0.00     0.169 HD
HETATM   25  H   UNK N   1      37.962  13.213  14.215  0.00  0.00     0.169 HD
ENDBRANCH  20  23
ENDBRANCH   1  20
TORSDOF 4
ENDMDL
MODEL 8
REMARK VINA RESULT:      -6.4      3.513      8.541
REMARK  4 active torsions:
REMARK  status: ('A' for Active; 'I' for Inactive)
REMARK    1  A    between atoms: C_1  and  S_10 
REMARK    2  A    between atoms: C_6  and  O_23 
REMARK    3  A    between atoms: N_9  and  S_10 
REMARK    4  A    between atoms: N_17  and  C_21 
ROOT
HETATM    1  C   UNK N   1      32.360  17.223   7.437  0.00  0.00     0.121 A 
HETATM    2  C   UNK N   1      28.392  16.263   4.746  0.00  0.00     0.146 C 
HETATM    3  C   UNK N   1      29.847  16.794   4.603  0.00  0.00     0.061 C 
HETATM    4  S   UNK N   1      30.974  17.546   8.283  0.00  0.00    -0.062 SA
HETATM    5  C   UNK N   1      29.892  17.327   7.081  0.00  0.00     0.128 A 
HETATM    6  C   UNK N   1      30.573  16.988   5.921  0.00  0.00    -0.024 A 
HETATM    7  C   UNK N   1      31.996  16.935   6.105  0.00  0.00     0.042 A 
HETATM    8  N   UNK N   1      27.543  17.113   5.572  0.00  0.00    -0.271 N 
HETATM    9  S   UNK N   1      28.163  17.563   7.150  0.00  0.00     0.272 S 
HETATM   10  O   UNK N   1      27.731  19.017   7.386  0.00  0.00    -0.199 OA
HETATM   11  O   UNK N   1      27.387  16.706   8.161  0.00  0.00    -0.199 OA
ENDROOT
BRANCH   8  12
HETATM   12  C   UNK N   1      26.189  17.412   5.212  0.00  0.00     0.047 A 
HETATM   13  C   UNK N   1      25.857  18.640   4.611  0.00  0.00     0.067 A 
HETATM   14  C   UNK N   1      24.538  18.902   4.214  0.00  0.00     0.070 A 
HETATM   15  C   UNK N   1      23.542  17.936   4.430  0.00  0.00     0.037 A 
HETATM   16  C   UNK N   1      23.861  16.720   5.032  0.00  0.00     0.005 A 
HETATM   17  C   UNK N   1      25.177  16.461   5.410  0.00  0.00     0.030 A 
BRANCH  14  18
HETATM   18  O   UNK N   1      24.253  20.084   3.614  0.00  0.00    -0.356 OA
HETATM   19  C   UNK N   1      24.958  20.565   2.532  0.00  0.00     0.210 C 
ENDBRANCH  14  18
ENDBRANCH   8  12
BRANCH   1  20
HETATM   20  S   UNK N   1      33.983  17.395   8.174  0.00  0.00     0.263 S 
HETATM   21  O   UNK N   1      34.867  18.401   7.422  0.00  0.00    -0.200 OA
HETATM   22  O   UNK N   1      33.260  18.603   8.784  0.00  0.00    -0.200 OA
BRANCH  20  23
HETATM   23  N   UNK N   1      34.615  17.260   9.815  0.00  0.00    -0.324 N 
HETATM   24  H   UNK N   1      34.015  16.976  10.589  0.00  0.00     0.169 HD
HETATM   25  H   UNK N   1      35.598  17.469   9.993  0.00  0.00     0.169 HD
ENDBRANCH  20  23
ENDBRANCH   1  20
TORSDOF 4
ENDMDL
MODEL 9
REMARK VINA RESULT:      -6.3      8.133     11.641
REMARK  4 active torsions:
REMARK  status: ('A' for Active; 'I' for Inactive)
REMARK    1  A    between atoms: C_1  and  S_10 
REMARK    2  A    between atoms: C_6  and  O_23 
REMARK    3  A    between atoms: N_9  and  S_10 
REMARK    4  A    between atoms: N_17  and  C_21 
ROOT
HETATM    1  C   UNK N   1      35.249  14.418  11.671  0.00  0.00     0.121 A 
HETATM    2  C   UNK N   1      34.634  17.174   7.679  0.00  0.00     0.146 C 
HETATM    3  C   UNK N   1      34.387  17.202   9.215  0.00  0.00     0.061 C 
HETATM    4  S   UNK N   1      34.896  13.484  10.351  0.00  0.00    -0.062 SA
HETATM    5  C   UNK N   1      34.561  14.674   9.287  0.00  0.00     0.128 A 
HETATM    6  C   UNK N   1      34.705  15.898   9.922  0.00  0.00    -0.024 A 
HETATM    7  C   UNK N   1      35.089  15.770  11.300  0.00  0.00     0.042 A 
HETATM    8  N   UNK N   1      33.887  16.129   6.991  0.00  0.00    -0.271 N 
HETATM    9  S   UNK N   1      34.012  14.503   7.637  0.00  0.00     0.272 S 
HETATM   10  O   UNK N   1      32.620  13.872   7.496  0.00  0.00    -0.199 OA
HETATM   11  O   UNK N   1      34.937  13.744   6.674  0.00  0.00    -0.199 OA
ENDROOT
BRANCH   8  12
HETATM   12  C   UNK N   1      33.237  16.362   5.736  0.00  0.00     0.047 A 
HETATM   13  C   UNK N   1      33.686  15.727   4.563  0.00  0.00     0.067 A 
HETATM   14  C   UNK N   1      33.010  15.920   3.349  0.00  0.00     0.070 A 
HETATM   15  C   UNK N   1      31.887  16.762   3.304  0.00  0.00     0.037 A 
HETATM   16  C   UNK N   1      31.441  17.401   4.460  0.00  0.00     0.005 A 
HETATM   17  C   UNK N   1      32.109  17.193   5.665  0.00  0.00     0.030 A 
BRANCH  14  18
HETATM   18  O   UNK N   1      33.450  15.274   2.241  0.00  0.00    -0.356 OA
HETATM   19  C   UNK N   1      34.415  14.292   2.278  0.00  0.00     0.210 C 
ENDBRANCH  14  18
ENDBRANCH   8  12
BRANCH   1  20
HETATM   20  S   UNK N   1      35.611  13.700  13.272  0.00  0.00     0.263 S 
HETATM   21  O   UNK N   1      34.442  12.871  13.823  0.00  0.00    -0.200 OA
HETATM   22  O   UNK N   1      35.918  12.515  12.349  0.00  0.00    -0.200 OA
BRANCH  20  23
HETATM   23  N   UNK N   1      37.080  13.139  14.070  0.00  0.00    -0.324 N 
HETATM   24  H   UNK N   1      37.298  12.145  14.133  0.00  0.00     0.169 HD
HETATM   25  H   UNK N   1      37.722  13.820  14.476  0.00  0.00     0.169 HD
ENDBRANCH  20  23
ENDBRANCH   1  20
TORSDOF 4
ENDMDL
