MODEL 1
REMARK VINA RESULT:      -6.7      0.000      0.000
REMARK  5 active torsions:
REMARK  status: ('A' for Active; 'I' for Inactive)
REMARK    1  A    between atoms: C_1  and  S_14 
REMARK    2  A    between atoms: C_4  and  O_2 
REMARK    3  A    between atoms: C_5  and  N_22 
REMARK    4  A    between atoms: C_8  and  O_23 
REMARK    5  A    between atoms: N_13  and  S_14 
ROOT
HETATM    1  C   UNK N   1      32.499  16.480   8.201  0.00  0.00     0.121 A 
HETATM    2  C   UNK N   1      29.755  17.804   4.374  0.00  0.00     0.178 C 
HETATM    3  C   UNK N   1      30.724  16.671   4.833  0.00  0.00     0.172 C 
HETATM    4  C   UNK N   1      32.417  16.312   6.806  0.00  0.00     0.044 A 
HETATM    5  C   UNK N   1      31.164  16.771   6.283  0.00  0.00     0.004 A 
HETATM    6  C   UNK N   1      30.316  17.248   7.269  0.00  0.00     0.131 A 
HETATM    7  S   UNK N   1      31.078  17.145   8.720  0.00  0.00    -0.062 SA
HETATM    8  S   UNK N   1      28.710  17.840   6.931  0.00  0.00     0.272 S 
HETATM    9  O   UNK N   1      28.398  19.236   7.492  0.00  0.00    -0.199 OA
HETATM   10  O   UNK N   1      27.559  16.929   7.386  0.00  0.00    -0.199 OA
HETATM   11  N   UNK N   1      28.550  17.978   5.186  0.00  0.00    -0.269 N 
ENDROOT
BRANCH  11  12
HETATM   12  C   UNK N   1      27.381  18.592   4.630  0.00  0.00     0.045 A 
HETATM   13  C   UNK N   1      27.428  19.919   4.172  0.00  0.00     0.033 A 
HETATM   14  C   UNK N   1      26.325  20.509   3.560  0.00  0.00     0.039 A 
HETATM   15  C   UNK N   1      25.135  19.783   3.402  0.00  0.00     0.068 A 
HETATM   16  C   UNK N   1      25.067  18.469   3.880  0.00  0.00     0.039 A 
HETATM   17  C   UNK N   1      26.183  17.872   4.485  0.00  0.00     0.033 A 
BRANCH  15  18
HETATM   18  O   UNK N   1      24.057  20.324   2.787  0.00  0.00    -0.356 OA
HETATM   19  C   UNK N   1      22.759  19.985   3.105  0.00  0.00     0.210 C 
ENDBRANCH  15  18
ENDBRANCH  11  12
BRANCH   3  20
HETATM   20  O   UNK N   1      31.846  16.695   4.004  0.00  0.00    -0.389 OA
HETATM   21  H   UNK N   1      32.536  16.013   3.977  0.00  0.00     0.210 HD
ENDBRANCH   3  20
BRANCH   1  22
HETATM   22  S   UNK N   1      33.834  15.997   9.284  0.00  0.00     0.263 S 
HETATM   23  O   UNK N   1      34.896  15.132   8.589  0.00  0.00    -0.200 OA
HETATM   24  O   UNK N   1      34.648  17.173   9.839  0.00  0.00    -0.200 OA
BRANCH  22  25
HETATM   25  N   UNK N   1      33.362  15.059  10.703  0.00  0.00    -0.324 N 
HETATM   26  H   UNK N   1      32.866  15.505  11.475  0.00  0.00     0.169 HD
HETATM   27  H   UNK N   1      33.588  14.066  10.753  0.00  0.00     0.169 HD
ENDBRANCH  22  25
ENDBRANCH   1  22
TORSDOF 5
ENDMDL
MODEL 2
REMARK VINA RESULT:      -6.5      8.067      8.997
REMARK  5 active torsions:
REMARK  status: ('A' for Active; 'I' for Inactive)
REMARK    1  A    between atoms: C_1  and  S_14 
REMARK    2  A    between atoms: C_4  and  O_2 
REMARK    3  A    between atoms: C_5  and  N_22 
REMARK    4  A    between atoms: C_8  and  O_23 
REMARK    5  A    between atoms: N_13  and  S_14 
ROOT
HETATM    1  C   UNK N   1      22.158  13.354   9.387  0.00  0.00     0.121 A 
HETATM    2  C   UNK N   1      19.813  16.580   6.555  0.00  0.00     0.178 C 
HETATM    3  C   UNK N   1      20.137  16.299   8.055  0.00  0.00     0.172 C 
HETATM    4  C   UNK N   1      21.107  14.290   9.437  0.00  0.00     0.044 A 
HETATM    5  C   UNK N   1      21.092  15.141   8.283  0.00  0.00     0.004 A 
HETATM    6  C   UNK N   1      22.124  14.865   7.402  0.00  0.00     0.131 A 
HETATM    7  S   UNK N   1      23.004  13.609   7.991  0.00  0.00    -0.062 SA
HETATM    8  S   UNK N   1      22.376  15.765   5.929  0.00  0.00     0.272 S 
HETATM    9  O   UNK N   1      22.500  14.912   4.657  0.00  0.00    -0.199 OA
HETATM   10  O   UNK N   1      23.587  16.710   5.929  0.00  0.00    -0.199 OA
HETATM   11  N   UNK N   1      20.968  16.789   5.683  0.00  0.00    -0.269 N 
ENDROOT
BRANCH  11  12
HETATM   12  C   UNK N   1      20.835  17.525   4.462  0.00  0.00     0.045 A 
HETATM   13  C   UNK N   1      21.427  18.792   4.330  0.00  0.00     0.033 A 
HETATM   14  C   UNK N   1      21.372  19.491   3.126  0.00  0.00     0.039 A 
HETATM   15  C   UNK N   1      20.710  18.938   2.020  0.00  0.00     0.068 A 
HETATM   16  C   UNK N   1      20.093  17.687   2.147  0.00  0.00     0.039 A 
HETATM   17  C   UNK N   1      20.158  16.981   3.356  0.00  0.00     0.033 A 
BRANCH  15  18
HETATM   18  O   UNK N   1      20.665  19.584   0.831  0.00  0.00    -0.356 OA
HETATM   19  C   UNK N   1      20.725  20.956   0.716  0.00  0.00     0.210 C 
ENDBRANCH  15  18
ENDBRANCH  11  12
BRANCH   3  20
HETATM   20  O   UNK N   1      18.936  16.049   8.720  0.00  0.00    -0.389 OA
HETATM   21  H   UNK N   1      18.097  16.510   8.554  0.00  0.00     0.210 HD
ENDBRANCH   3  20
BRANCH   1  22
HETATM   22  S   UNK N   1      22.603  12.145  10.622  0.00  0.00     0.263 S 
HETATM   23  O   UNK N   1      22.994  10.784  10.026  0.00  0.00    -0.200 OA
HETATM   24  O   UNK N   1      23.832  12.526  11.459  0.00  0.00    -0.200 OA
BRANCH  22  25
HETATM   25  N   UNK N   1      21.348  11.764  11.803  0.00  0.00    -0.324 N 
HETATM   26  H   UNK N   1      20.776  12.507  12.206  0.00  0.00     0.169 HD
HETATM   27  H   UNK N   1      21.194  10.797  12.086  0.00  0.00     0.169 HD
ENDBRANCH  22  25
ENDBRANCH   1  22
TORSDOF 5
ENDMDL
MODEL 3
REMARK VINA RESULT:      -6.5     10.775     14.541
REMARK  5 active torsions:
REMARK  status: ('A' for Active; 'I' for Inactive)
REMARK    1  A    between atoms: C_1  and  S_14 
REMARK    2  A    between atoms: C_4  and  O_2 
REMARK    3  A    between atoms: C_5  and  N_22 
REMARK    4  A    between atoms: C_8  and  O_23 
REMARK    5  A    between atoms: N_13  and  S_14 
ROOT
HETATM    1  C   UNK N   1      36.742  13.578  11.884  0.00  0.00     0.121 A 
HETATM    2  C   UNK N   1      36.416  10.389  15.579  0.00  0.00     0.178 C 
HETATM    3  C   UNK N   1      37.445  10.940  14.545  0.00  0.00     0.172 C 
HETATM    4  C   UNK N   1      37.343  12.399  12.366  0.00  0.00     0.044 A 
HETATM    5  C   UNK N   1      36.933  12.098  13.706  0.00  0.00     0.004 A 
HETATM    6  C   UNK N   1      36.065  13.044  14.224  0.00  0.00     0.131 A 
HETATM    7  S   UNK N   1      35.782  14.188  13.082  0.00  0.00    -0.062 SA
HETATM    8  S   UNK N   1      35.429  12.955  15.847  0.00  0.00     0.272 S 
HETATM    9  O   UNK N   1      33.901  13.062  15.955  0.00  0.00    -0.199 OA
HETATM   10  O   UNK N   1      36.001  13.981  16.839  0.00  0.00    -0.199 OA
HETATM   11  N   UNK N   1      35.847  11.376  16.497  0.00  0.00    -0.269 N 
ENDROOT
BRANCH  11  12
HETATM   12  C   UNK N   1      35.313  10.970  17.762  0.00  0.00     0.045 A 
HETATM   13  C   UNK N   1      34.607   9.760  17.877  0.00  0.00     0.033 A 
HETATM   14  C   UNK N   1      34.144   9.311  19.112  0.00  0.00     0.039 A 
HETATM   15  C   UNK N   1      34.370  10.073  20.268  0.00  0.00     0.068 A 
HETATM   16  C   UNK N   1      35.049  11.293  20.162  0.00  0.00     0.039 A 
HETATM   17  C   UNK N   1      35.523  11.738  18.920  0.00  0.00     0.033 A 
BRANCH  15  18
HETATM   18  O   UNK N   1      33.955   9.646  21.484  0.00  0.00    -0.356 OA
HETATM   19  C   UNK N   1      32.692   9.892  21.979  0.00  0.00     0.210 C 
ENDBRANCH  15  18
ENDBRANCH  11  12
BRANCH   3  20
HETATM   20  O   UNK N   1      37.825   9.891  13.707  0.00  0.00    -0.389 OA
HETATM   21  H   UNK N   1      38.706   9.484  13.684  0.00  0.00     0.210 HD
ENDBRANCH   3  20
BRANCH   1  22
HETATM   22  S   UNK N   1      37.003  14.371  10.306  0.00  0.00     0.263 S 
HETATM   23  O   UNK N   1      36.337  13.629   9.137  0.00  0.00    -0.200 OA
HETATM   24  O   UNK N   1      36.409  15.783  10.208  0.00  0.00    -0.200 OA
BRANCH  22  25
HETATM   25  N   UNK N   1      38.688  14.550   9.812  0.00  0.00    -0.324 N 
HETATM   26  H   UNK N   1      39.369  14.971  10.444  0.00  0.00     0.169 HD
HETATM   27  H   UNK N   1      38.982  14.231   8.889  0.00  0.00     0.169 HD
ENDBRANCH  22  25
ENDBRANCH   1  22
TORSDOF 5
ENDMDL
MODEL 4
REMARK VINA RESULT:      -6.4      2.623      3.605
REMARK  5 active torsions:
REMARK  status: ('A' for Active; 'I' for Inactive)
REMARK    1  A    between atoms: C_1  and  S_14 
REMARK    2  A    between atoms: C_4  and  O_2 
REMARK    3  A    between atoms: C_5  and  N_22 
REMARK    4  A    between atoms: C_8  and  O_23 
REMARK    5  A    between atoms: N_13  and  S_14 
ROOT
HETATM    1  C   UNK N   1      32.545  17.425   7.989  0.00  0.00     0.121 A 
HETATM    2  C   UNK N   1      27.655  17.309   7.936  0.00  0.00     0.178 C 
HETATM    3  C   UNK N   1      28.838  18.267   8.275  0.00  0.00     0.172 C 
HETATM    4  C   UNK N   1      31.431  18.031   8.601  0.00  0.00     0.044 A 
HETATM    5  C   UNK N   1      30.210  17.721   7.919  0.00  0.00     0.004 A 
HETATM    6  C   UNK N   1      30.408  16.922   6.805  0.00  0.00     0.131 A 
HETATM    7  S   UNK N   1      32.008  16.579   6.676  0.00  0.00    -0.062 SA
HETATM    8  S   UNK N   1      29.105  16.414   5.761  0.00  0.00     0.272 S 
HETATM    9  O   UNK N   1      29.030  14.902   5.501  0.00  0.00    -0.199 OA
HETATM   10  O   UNK N   1      29.061  17.089   4.382  0.00  0.00    -0.199 OA
HETATM   11  N   UNK N   1      27.593  16.840   6.551  0.00  0.00    -0.269 N 
ENDROOT
BRANCH  11  12
HETATM   12  C   UNK N   1      26.353  16.397   5.987  0.00  0.00     0.045 A 
HETATM   13  C   UNK N   1      25.645  15.338   6.579  0.00  0.00     0.033 A 
HETATM   14  C   UNK N   1      24.401  14.942   6.091  0.00  0.00     0.039 A 
HETATM   15  C   UNK N   1      23.839  15.594   4.984  0.00  0.00     0.068 A 
HETATM   16  C   UNK N   1      24.548  16.634   4.369  0.00  0.00     0.039 A 
HETATM   17  C   UNK N   1      25.794  17.039   4.868  0.00  0.00     0.033 A 
BRANCH  15  18
HETATM   18  O   UNK N   1      22.620  15.247   4.507  0.00  0.00    -0.356 OA
HETATM   19  C   UNK N   1      21.853  16.080   3.721  0.00  0.00     0.210 C 
ENDBRANCH  15  18
ENDBRANCH  11  12
BRANCH   3  20
HETATM   20  O   UNK N   1      28.790  18.552   9.640  0.00  0.00    -0.389 OA
HETATM   21  H   UNK N   1      28.993  19.413  10.039  0.00  0.00     0.210 HD
ENDBRANCH   3  20
BRANCH   1  22
HETATM   22  S   UNK N   1      34.263  17.581   8.448  0.00  0.00     0.263 S 
HETATM   23  O   UNK N   1      35.200  16.714   7.594  0.00  0.00    -0.200 OA
HETATM   24  O   UNK N   1      34.835  18.994   8.270  0.00  0.00    -0.200 OA
BRANCH  22  25
HETATM   25  N   UNK N   1      34.650  17.139  10.113  0.00  0.00    -0.324 N 
HETATM   26  H   UNK N   1      34.823  16.165  10.362  0.00  0.00     0.169 HD
HETATM   27  H   UNK N   1      34.700  17.862  10.831  0.00  0.00     0.169 HD
ENDBRANCH  22  25
ENDBRANCH   1  22
TORSDOF 5
ENDMDL
MODEL 5
REMARK VINA RESULT:      -6.3      3.571      9.049
REMARK  5 active torsions:
REMARK  status: ('A' for Active; 'I' for Inactive)
REMARK    1  A    between atoms: C_1  and  S_14 
REMARK    2  A    between atoms: C_4  and  O_2 
REMARK    3  A    between atoms: C_5  and  N_22 
REMARK    4  A    between atoms: C_8  and  O_23 
REMARK    5  A    between atoms: N_13  and  S_14 
ROOT
HETATM    1  C   UNK N   1      22.768  19.255   3.490  0.00  0.00     0.121 A 
HETATM    2  C   UNK N   1      25.958  16.550   6.026  0.00  0.00     0.178 C 
HETATM    3  C   UNK N   1      24.887  16.417   4.900  0.00  0.00     0.172 C 
HETATM    4  C   UNK N   1      22.983  17.929   3.911  0.00  0.00     0.044 A 
HETATM    5  C   UNK N   1      24.307  17.738   4.427  0.00  0.00     0.004 A 
HETATM    6  C   UNK N   1      25.073  18.890   4.369  0.00  0.00     0.131 A 
HETATM    7  S   UNK N   1      24.163  20.104   3.742  0.00  0.00    -0.062 SA
HETATM    8  S   UNK N   1      26.736  18.947   4.896  0.00  0.00     0.272 S 
HETATM    9  O   UNK N   1      27.066  20.067   5.895  0.00  0.00    -0.199 OA
HETATM   10  O   UNK N   1      27.782  19.052   3.775  0.00  0.00    -0.199 OA
HETATM   11  N   UNK N   1      27.081  17.440   5.733  0.00  0.00    -0.269 N 
ENDROOT
BRANCH  11  12
HETATM   12  C   UNK N   1      28.333  17.280   6.410  0.00  0.00     0.045 A 
HETATM   13  C   UNK N   1      29.482  16.902   5.695  0.00  0.00     0.033 A 
HETATM   14  C   UNK N   1      30.723  16.814   6.321  0.00  0.00     0.039 A 
HETATM   15  C   UNK N   1      30.843  17.092   7.690  0.00  0.00     0.068 A 
HETATM   16  C   UNK N   1      29.700  17.443   8.420  0.00  0.00     0.039 A 
HETATM   17  C   UNK N   1      28.454  17.542   7.786  0.00  0.00     0.033 A 
BRANCH  15  18
HETATM   18  O   UNK N   1      32.042  17.040   8.317  0.00  0.00    -0.356 OA
HETATM   19  C   UNK N   1      33.084  17.893   8.023  0.00  0.00     0.210 C 
ENDBRANCH  15  18
ENDBRANCH  11  12
BRANCH   3  20
HETATM   20  O   UNK N   1      23.859  15.600   5.372  0.00  0.00    -0.389 OA
HETATM   21  H   UNK N   1      23.809  14.637   5.253  0.00  0.00     0.210 HD
ENDBRANCH   3  20
BRANCH   1  22
HETATM   22  S   UNK N   1      21.305  19.935   2.727  0.00  0.00     0.263 S 
HETATM   23  O   UNK N   1      20.334  20.570   3.734  0.00  0.00    -0.200 OA
HETATM   24  O   UNK N   1      21.584  21.078   1.742  0.00  0.00    -0.200 OA
BRANCH  22  25
HETATM   25  N   UNK N   1      20.313  18.788   1.823  0.00  0.00    -0.324 N 
HETATM   26  H   UNK N   1      20.290  17.803   2.090  0.00  0.00     0.169 HD
HETATM   27  H   UNK N   1      19.761  19.110   1.029  0.00  0.00     0.169 HD
ENDBRANCH  22  25
ENDBRANCH   1  22
TORSDOF 5
ENDMDL
MODEL 6
REMARK VINA RESULT:      -6.2      4.542      6.928
REMARK  5 active torsions:
REMARK  status: ('A' for Active; 'I' for Inactive)
REMARK    1  A    between atoms: C_1  and  S_14 
REMARK    2  A    between atoms: C_4  and  O_2 
REMARK    3  A    between atoms: C_5  and  N_22 
REMARK    4  A    between atoms: C_8  and  O_23 
REMARK    5  A    between atoms: N_13  and  S_14 
ROOT
HETATM    1  C   UNK N   1      35.428  13.879  12.547  0.00  0.00     0.121 A 
HETATM    2  C   UNK N   1      34.169  16.655   8.722  0.00  0.00     0.178 C 
HETATM    3  C   UNK N   1      35.344  16.440   9.725  0.00  0.00     0.172 C 
HETATM    4  C   UNK N   1      35.696  15.137  11.976  0.00  0.00     0.044 A 
HETATM    5  C   UNK N   1      35.171  15.245  10.647  0.00  0.00     0.004 A 
HETATM    6  C   UNK N   1      34.546  14.084  10.223  0.00  0.00     0.131 A 
HETATM    7  S   UNK N   1      34.603  12.978  11.435  0.00  0.00    -0.062 SA
HETATM    8  S   UNK N   1      33.844  13.914   8.635  0.00  0.00     0.272 S 
HETATM    9  O   UNK N   1      32.387  13.427   8.615  0.00  0.00    -0.199 OA
HETATM   10  O   UNK N   1      34.613  13.002   7.666  0.00  0.00    -0.199 OA
HETATM   11  N   UNK N   1      33.828  15.504   7.886  0.00  0.00    -0.269 N 
ENDROOT
BRANCH  11  12
HETATM   12  C   UNK N   1      33.159  15.688   6.633  0.00  0.00     0.045 A 
HETATM   13  C   UNK N   1      31.843  16.179   6.598  0.00  0.00     0.033 A 
HETATM   14  C   UNK N   1      31.202  16.435   5.388  0.00  0.00     0.039 A 
HETATM   15  C   UNK N   1      31.864  16.194   4.176  0.00  0.00     0.068 A 
HETATM   16  C   UNK N   1      33.166  15.679   4.197  0.00  0.00     0.039 A 
HETATM   17  C   UNK N   1      33.814  15.432   5.416  0.00  0.00     0.033 A 
BRANCH  15  18
HETATM   18  O   UNK N   1      31.274  16.460   2.986  0.00  0.00    -0.356 OA
HETATM   19  C   UNK N   1      29.929  16.269   2.753  0.00  0.00     0.210 C 
ENDBRANCH  15  18
ENDBRANCH  11  12
BRANCH   3  20
HETATM   20  O   UNK N   1      35.483  17.600  10.489  0.00  0.00    -0.389 OA
HETATM   21  H   UNK N   1      36.325  17.959  10.813  0.00  0.00     0.210 HD
ENDBRANCH   3  20
BRANCH   1  22
HETATM   22  S   UNK N   1      35.941  13.273  14.146  0.00  0.00     0.263 S 
HETATM   23  O   UNK N   1      34.780  13.129  15.142  0.00  0.00    -0.200 OA
HETATM   24  O   UNK N   1      36.553  11.865  14.117  0.00  0.00    -0.200 OA
BRANCH  22  25
HETATM   25  N   UNK N   1      37.128  14.268  14.993  0.00  0.00    -0.324 N 
HETATM   26  H   UNK N   1      37.767  13.847  15.668  0.00  0.00     0.169 HD
HETATM   27  H   UNK N   1      37.174  15.269  14.808  0.00  0.00     0.169 HD
ENDBRANCH  22  25
ENDBRANCH   1  22
TORSDOF 5
ENDMDL
MODEL 7
REMARK VINA RESULT:      -5.8      3.909      8.400
REMARK  5 active torsions:
REMARK  status: ('A' for Active; 'I' for Inactive)
REMARK    1  A    between atoms: C_1  and  S_14 
REMARK    2  A    between atoms: C_4  and  O_2 
REMARK    3  A    between atoms: C_5  and  N_22 
REMARK    4  A    between atoms: C_8  and  O_23 
REMARK    5  A    between atoms: N_13  and  S_14 
ROOT
HETATM    1  C   UNK N   1      24.788  15.106   2.634  0.00  0.00     0.121 A 
HETATM    2  C   UNK N   1      29.650  14.967   3.154  0.00  0.00     0.178 C 
HETATM    3  C   UNK N   1      28.550  14.913   2.049  0.00  0.00     0.172 C 
HETATM    4  C   UNK N   1      25.942  14.625   1.987  0.00  0.00     0.044 A 
HETATM    5  C   UNK N   1      27.141  15.169   2.554  0.00  0.00     0.004 A 
HETATM    6  C   UNK N   1      26.888  16.058   3.585  0.00  0.00     0.131 A 
HETATM    7  S   UNK N   1      25.266  16.153   3.819  0.00  0.00    -0.062 SA
HETATM    8  S   UNK N   1      28.155  16.902   4.439  0.00  0.00     0.272 S 
HETATM    9  O   UNK N   1      28.102  16.781   5.969  0.00  0.00    -0.199 OA
HETATM   10  O   UNK N   1      28.273  18.403   4.132  0.00  0.00    -0.199 OA
HETATM   11  N   UNK N   1      29.688  16.191   3.954  0.00  0.00    -0.269 N 
ENDROOT
BRANCH  11  12
HETATM   12  C   UNK N   1      30.892  16.587   4.621  0.00  0.00     0.045 A 
HETATM   13  C   UNK N   1      31.901  17.266   3.916  0.00  0.00     0.033 A 
HETATM   14  C   UNK N   1      33.046  17.725   4.563  0.00  0.00     0.039 A 
HETATM   15  C   UNK N   1      33.214  17.506   5.938  0.00  0.00     0.068 A 
HETATM   16  C   UNK N   1      32.228  16.807   6.645  0.00  0.00     0.039 A 
HETATM   17  C   UNK N   1      31.071  16.355   5.995  0.00  0.00     0.033 A 
BRANCH  15  18
HETATM   18  O   UNK N   1      34.305  17.966   6.596  0.00  0.00    -0.356 OA
HETATM   19  C   UNK N   1      34.327  18.187   7.956  0.00  0.00     0.210 C 
ENDBRANCH  15  18
ENDBRANCH  11  12
BRANCH   3  20
HETATM   20  O   UNK N   1      28.605  13.658   1.441  0.00  0.00    -0.389 OA
HETATM   21  H   UNK N   1      28.708  13.503   0.488  0.00  0.00     0.210 HD
ENDBRANCH   3  20
BRANCH   1  22
HETATM   22  S   UNK N   1      23.084  14.756   2.232  0.00  0.00     0.263 S 
HETATM   23  O   UNK N   1      22.117  15.866   2.672  0.00  0.00    -0.200 OA
HETATM   24  O   UNK N   1      22.808  14.628   0.728  0.00  0.00    -0.200 OA
BRANCH  22  25
HETATM   25  N   UNK N   1      22.420  13.285   2.945  0.00  0.00    -0.324 N 
HETATM   26  H   UNK N   1      21.466  12.991   2.730  0.00  0.00     0.169 HD
HETATM   27  H   UNK N   1      22.991  12.724   3.576  0.00  0.00     0.169 HD
ENDBRANCH  22  25
ENDBRANCH   1  22
TORSDOF 5
ENDMDL
MODEL 8
REMARK VINA RESULT:      -5.8      2.091      2.879
REMARK  5 active torsions:
REMARK  status: ('A' for Active; 'I' for Inactive)
REMARK    1  A    between atoms: C_1  and  S_14 
REMARK    2  A    between atoms: C_4  and  O_2 
REMARK    3  A    between atoms: C_5  and  N_22 
REMARK    4  A    between atoms: C_8  and  O_23 
REMARK    5  A    between atoms: N_13  and  S_14 
ROOT
HETATM    1  C   UNK N   1      33.839  15.169   7.784  0.00  0.00     0.121 A 
HETATM    2  C   UNK N   1      29.489  17.398   7.605  0.00  0.00     0.178 C 
HETATM    3  C   UNK N   1      30.859  17.479   8.346  0.00  0.00     0.172 C 
HETATM    4  C   UNK N   1      32.977  15.947   8.580  0.00  0.00     0.044 A 
HETATM    5  C   UNK N   1      31.918  16.531   7.811  0.00  0.00     0.004 A 
HETATM    6  C   UNK N   1      32.001  16.219   6.464  0.00  0.00     0.131 A 
HETATM    7  S   UNK N   1      33.298  15.241   6.225  0.00  0.00    -0.062 SA
HETATM    8  S   UNK N   1      30.867  16.820   5.282  0.00  0.00     0.272 S 
HETATM    9  O   UNK N   1      30.226  15.746   4.389  0.00  0.00    -0.199 OA
HETATM   10  O   UNK N   1      31.411  17.898   4.332  0.00  0.00    -0.199 OA
HETATM   11  N   UNK N   1      29.539  17.574   6.153  0.00  0.00    -0.269 N 
ENDROOT
BRANCH  11  12
HETATM   12  C   UNK N   1      28.383  18.017   5.433  0.00  0.00     0.045 A 
HETATM   13  C   UNK N   1      28.365  19.289   4.837  0.00  0.00     0.033 A 
HETATM   14  C   UNK N   1      27.280  19.708   4.069  0.00  0.00     0.039 A 
HETATM   15  C   UNK N   1      26.176  18.862   3.888  0.00  0.00     0.068 A 
HETATM   16  C   UNK N   1      26.172  17.603   4.500  0.00  0.00     0.039 A 
HETATM   17  C   UNK N   1      27.268  17.178   5.263  0.00  0.00     0.033 A 
BRANCH  15  18
HETATM   18  O   UNK N   1      25.122  19.235   3.125  0.00  0.00    -0.356 OA
HETATM   19  C   UNK N   1      24.964  20.511   2.629  0.00  0.00     0.210 C 
ENDBRANCH  15  18
ENDBRANCH  11  12
BRANCH   3  20
HETATM   20  O   UNK N   1      30.639  17.215   9.698  0.00  0.00    -0.389 OA
HETATM   21  H   UNK N   1      29.884  17.538  10.216  0.00  0.00     0.210 HD
ENDBRANCH   3  20
BRANCH   1  22
HETATM   22  S   UNK N   1      35.320  14.312   8.294  0.00  0.00     0.263 S 
HETATM   23  O   UNK N   1      36.401  14.267   7.203  0.00  0.00    -0.200 OA
HETATM   24  O   UNK N   1      36.046  14.963   9.479  0.00  0.00    -0.200 OA
BRANCH  22  25
HETATM   25  N   UNK N   1      35.099  12.625   8.765  0.00  0.00    -0.324 N 
HETATM   26  H   UNK N   1      34.568  12.388   9.604  0.00  0.00     0.169 HD
HETATM   27  H   UNK N   1      35.506  11.883   8.197  0.00  0.00     0.169 HD
ENDBRANCH  22  25
ENDBRANCH   1  22
TORSDOF 5
ENDMDL
MODEL 9
REMARK VINA RESULT:      -5.8      3.176      8.466
REMARK  5 active torsions:
REMARK  status: ('A' for Active; 'I' for Inactive)
REMARK    1  A    between atoms: C_1  and  S_14 
REMARK    2  A    between atoms: C_4  and  O_2 
REMARK    3  A    between atoms: C_5  and  N_22 
REMARK    4  A    between atoms: C_8  and  O_23 
REMARK    5  A    between atoms: N_13  and  S_14 
ROOT
HETATM    1  C   UNK N   1      23.722  18.087   4.252  0.00  0.00     0.121 A 
HETATM    2  C   UNK N   1      28.169  16.057   4.424  0.00  0.00     0.178 C 
HETATM    3  C   UNK N   1      26.929  16.175   3.485  0.00  0.00     0.172 C 
HETATM    4  C   UNK N   1      24.451  17.008   3.718  0.00  0.00     0.044 A 
HETATM    5  C   UNK N   1      25.855  17.128   3.981  0.00  0.00     0.004 A 
HETATM    6  C   UNK N   1      26.172  18.284   4.675  0.00  0.00     0.131 A 
HETATM    7  S   UNK N   1      24.790  19.113   4.985  0.00  0.00    -0.062 SA
HETATM    8  S   UNK N   1      27.809  18.711   5.103  0.00  0.00     0.272 S 
HETATM    9  O   UNK N   1      28.028  19.043   6.587  0.00  0.00    -0.199 OA
HETATM   10  O   UNK N   1      28.418  19.876   4.309  0.00  0.00    -0.199 OA
HETATM   11  N   UNK N   1      28.828  17.317   4.768  0.00  0.00    -0.269 N 
ENDROOT
BRANCH  11  12
HETATM   12  C   UNK N   1      30.201  17.333   5.174  0.00  0.00     0.045 A 
HETATM   13  C   UNK N   1      30.554  16.995   6.492  0.00  0.00     0.033 A 
HETATM   14  C   UNK N   1      31.889  16.932   6.886  0.00  0.00     0.039 A 
HETATM   15  C   UNK N   1      32.909  17.219   5.967  0.00  0.00     0.068 A 
HETATM   16  C   UNK N   1      32.568  17.584   4.659  0.00  0.00     0.039 A 
HETATM   17  C   UNK N   1      31.225  17.637   4.260  0.00  0.00     0.033 A 
BRANCH  15  18
HETATM   18  O   UNK N   1      34.214  17.138   6.317  0.00  0.00    -0.356 OA
HETATM   19  C   UNK N   1      34.696  16.222   7.227  0.00  0.00     0.210 C 
ENDBRANCH  15  18
ENDBRANCH  11  12
BRANCH   3  20
HETATM   20  O   UNK N   1      26.382  14.901   3.325  0.00  0.00    -0.389 OA
HETATM   21  H   UNK N   1      25.473  14.714   3.039  0.00  0.00     0.210 HD
ENDBRANCH   3  20
BRANCH   1  22
HETATM   22  S   UNK N   1      21.968  18.394   4.118  0.00  0.00     0.263 S 
HETATM   23  O   UNK N   1      21.192  18.056   5.399  0.00  0.00    -0.200 OA
HETATM   24  O   UNK N   1      21.606  19.865   3.867  0.00  0.00    -0.200 OA
BRANCH  22  25
HETATM   25  N   UNK N   1      21.133  17.497   2.848  0.00  0.00    -0.324 N 
HETATM   26  H   UNK N   1      20.292  17.878   2.414  0.00  0.00     0.169 HD
HETATM   27  H   UNK N   1      21.493  16.592   2.546  0.00  0.00     0.169 HD
ENDBRANCH  22  25
ENDBRANCH   1  22
TORSDOF 5
ENDMDL
