REMARK  5 active torsions:
REMARK  status: ('A' for Active; 'I' for Inactive)
REMARK    1  A    between atoms: C_1  and  S_14 
REMARK    2  A    between atoms: C_4  and  O_2 
REMARK    3  A    between atoms: C_5  and  N_22 
REMARK    4  A    between atoms: C_8  and  O_23 
REMARK    5  A    between atoms: N_13  and  S_14 
ROOT
HETATM    1  C   UNK N   1      -3.904  -1.504   0.159  0.00  0.00     0.121 A 
HETATM    2  C   UNK N   1       0.982  -1.694   0.281  0.00  0.00     0.178 C 
HETATM    3  C   UNK N   1      -0.242  -2.445  -0.327  0.00  0.00     0.172 C 
HETATM    4  C   UNK N   1      -2.843  -2.419   0.023  0.00  0.00     0.044 A 
HETATM    5  C   UNK N   1      -1.577  -1.758  -0.097  0.00  0.00     0.004 A 
HETATM    6  C   UNK N   1      -1.691  -0.378  -0.077  0.00  0.00     0.131 A 
HETATM    7  S   UNK N   1      -3.272   0.022   0.112  0.00  0.00    -0.062 SA
HETATM    8  S   UNK N   1      -0.318   0.687  -0.240  0.00  0.00     0.272 S 
HETATM    9  O   UNK N   1      -0.190   1.757   0.855  0.00  0.00    -0.199 OA
HETATM   10  O   UNK N   1      -0.213   1.431  -1.580  0.00  0.00    -0.199 OA
HETATM   11  N   UNK N   1       1.135  -0.296  -0.122  0.00  0.00    -0.269 N 
ENDROOT
BRANCH  11  12
HETATM   12  C   UNK N   1       2.416   0.342  -0.065  0.00  0.00     0.045 A 
HETATM   13  C   UNK N   1       2.516   1.740  -0.166  0.00  0.00     0.033 A 
HETATM   14  C   UNK N   1       3.744   2.385  -0.038  0.00  0.00     0.039 A 
HETATM   15  C   UNK N   1       4.911   1.640   0.185  0.00  0.00     0.068 A 
HETATM   16  C   UNK N   1       4.828   0.244   0.260  0.00  0.00     0.039 A 
HETATM   17  C   UNK N   1       3.590  -0.403   0.142  0.00  0.00     0.033 A 
BRANCH  15  18
HETATM   18  O   UNK N   1       6.113   2.244   0.340  0.00  0.00    -0.356 OA
HETATM   19  C   UNK N   1       6.273   3.613   0.349  0.00  0.00     0.210 C 
ENDBRANCH  15  18
ENDBRANCH  11  12
BRANCH   3  20
HETATM   20  O   UNK N   1      -0.280  -3.729   0.218  0.00  0.00    -0.389 OA
HETATM   21  H   UNK N   1      -1.067  -4.153   0.597  0.00  0.00     0.210 HD
ENDBRANCH   3  20
BRANCH   1  22
HETATM   22  S   UNK N   1      -5.649  -1.863   0.273  0.00  0.00     0.263 S 
HETATM   23  O   UNK N   1      -6.131  -2.873  -0.779  0.00  0.00    -0.200 OA
HETATM   24  O   UNK N   1      -6.071  -2.511   1.599  0.00  0.00    -0.200 OA
BRANCH  22  25
HETATM   25  N   UNK N   1      -6.726  -0.478   0.080  0.00  0.00    -0.324 N 
HETATM   26  H   UNK N   1      -6.344   0.462  -0.031  0.00  0.00     0.169 HD
HETATM   27  H   UNK N   1      -7.736  -0.617   0.080  0.00  0.00     0.169 HD
ENDBRANCH  22  25
ENDBRANCH   1  22
TORSDOF 5
