MODEL 1
REMARK VINA RESULT:      -6.9      0.000      0.000
REMARK  5 active torsions:
REMARK  status: ('A' for Active; 'I' for Inactive)
REMARK    1  A    between atoms: C_1  and  S_11 
REMARK    2  A    between atoms: C_3  and  N_22 
REMARK    3  A    between atoms: C_7  and  O_25 
REMARK    4  A    between atoms: N_10  and  S_11 
REMARK    5  A    between atoms: N_18  and  C_23 
ROOT
HETATM    1  C   UNK N   1      23.403  19.197   3.551  0.00  0.00     0.121 A 
HETATM    2  C   UNK N   1      27.148  16.570   5.406  0.00  0.00     0.171 C 
HETATM    3  C   UNK N   1      25.608  16.547   5.167  0.00  0.00     0.130 C 
HETATM    4  S   UNK N   1      24.674  20.180   3.939  0.00  0.00    -0.062 SA
HETATM    5  C   UNK N   1      25.666  19.046   4.598  0.00  0.00     0.130 A 
HETATM    6  C   UNK N   1      25.021  17.816   4.559  0.00  0.00    -0.002 A 
HETATM    7  C   UNK N   1      23.715  17.898   3.982  0.00  0.00     0.044 A 
HETATM    8  N   UNK N   1      27.704  17.751   6.047  0.00  0.00    -0.269 N 
HETATM    9  S   UNK N   1      27.174  19.312   5.446  0.00  0.00     0.272 S 
HETATM   10  O   UNK N   1      27.071  20.217   6.683  0.00  0.00    -0.199 OA
HETATM   11  O   UNK N   1      28.340  19.855   4.611  0.00  0.00    -0.199 OA
ENDROOT
BRANCH   8  12
HETATM   12  C   UNK N   1      28.918  17.656   6.803  0.00  0.00     0.048 A 
HETATM   13  C   UNK N   1      30.094  17.163   6.204  0.00  0.00     0.067 A 
HETATM   14  C   UNK N   1      31.299  17.130   6.919  0.00  0.00     0.070 A 
HETATM   15  C   UNK N   1      31.331  17.592   8.244  0.00  0.00     0.037 A 
HETATM   16  C   UNK N   1      30.170  18.075   8.848  0.00  0.00     0.005 A 
HETATM   17  C   UNK N   1      28.975  18.107   8.130  0.00  0.00     0.030 A 
BRANCH  14  18
HETATM   18  O   UNK N   1      32.412  16.662   6.304  0.00  0.00    -0.356 OA
HETATM   19  C   UNK N   1      33.318  17.480   5.666  0.00  0.00     0.210 C 
ENDBRANCH  14  18
ENDBRANCH   8  12
BRANCH   3  20
HETATM   20  N   UNK N   1      24.917  16.199   6.411  0.00  0.00    -0.416 N 
HETATM   21  C   UNK N   1      25.492  14.985   6.984  0.00  0.00     0.140 C 
HETATM   22  H   UNK N   1      24.147  16.729   6.818  0.00  0.00     0.153 HD
ENDBRANCH   3  20
BRANCH   1  23
HETATM   23  S   UNK N   1      21.778  19.797   3.133  0.00  0.00     0.263 S 
HETATM   24  O   UNK N   1      21.725  21.282   2.738  0.00  0.00    -0.200 OA
HETATM   25  O   UNK N   1      20.962  19.819   4.431  0.00  0.00    -0.200 OA
BRANCH  23  26
HETATM   26  N   UNK N   1      20.727  18.936   2.007  0.00  0.00    -0.324 N 
HETATM   27  H   UNK N   1      20.013  18.263   2.284  0.00  0.00     0.169 HD
HETATM   28  H   UNK N   1      20.842  19.123   1.011  0.00  0.00     0.169 HD
ENDBRANCH  23  26
ENDBRANCH   1  23
TORSDOF 5
ENDMDL
MODEL 2
REMARK VINA RESULT:      -6.9      1.590      2.177
REMARK  5 active torsions:
REMARK  status: ('A' for Active; 'I' for Inactive)
REMARK    1  A    between atoms: C_1  and  S_11 
REMARK    2  A    between atoms: C_3  and  N_22 
REMARK    3  A    between atoms: C_7  and  O_25 
REMARK    4  A    between atoms: N_10  and  S_11 
REMARK    5  A    between atoms: N_18  and  C_23 
ROOT
HETATM    1  C   UNK N   1      22.284  19.400   3.033  0.00  0.00     0.121 A 
HETATM    2  C   UNK N   1      25.933  16.582   4.794  0.00  0.00     0.171 C 
HETATM    3  C   UNK N   1      24.382  16.706   4.716  0.00  0.00     0.130 C 
HETATM    4  S   UNK N   1      23.682  20.270   3.173  0.00  0.00    -0.062 SA
HETATM    5  C   UNK N   1      24.624  19.108   3.856  0.00  0.00     0.130 A 
HETATM    6  C   UNK N   1      23.860  17.961   4.026  0.00  0.00    -0.002 A 
HETATM    7  C   UNK N   1      22.511  18.127   3.579  0.00  0.00     0.044 A 
HETATM    8  N   UNK N   1      26.673  17.754   5.233  0.00  0.00    -0.269 N 
HETATM    9  S   UNK N   1      26.237  19.292   4.510  0.00  0.00     0.272 S 
HETATM   10  O   UNK N   1      26.365  20.329   5.638  0.00  0.00    -0.199 OA
HETATM   11  O   UNK N   1      27.350  19.611   3.504  0.00  0.00    -0.199 OA
ENDROOT
BRANCH   8  12
HETATM   12  C   UNK N   1      27.950  17.604   5.868  0.00  0.00     0.048 A 
HETATM   13  C   UNK N   1      28.062  17.676   7.270  0.00  0.00     0.067 A 
HETATM   14  C   UNK N   1      29.296  17.464   7.899  0.00  0.00     0.070 A 
HETATM   15  C   UNK N   1      30.429  17.179   7.122  0.00  0.00     0.037 A 
HETATM   16  C   UNK N   1      30.330  17.113   5.732  0.00  0.00     0.005 A 
HETATM   17  C   UNK N   1      29.098  17.322   5.113  0.00  0.00     0.030 A 
BRANCH  14  18
HETATM   18  O   UNK N   1      29.361  17.528   9.251  0.00  0.00    -0.356 OA
HETATM   19  C   UNK N   1      29.701  18.674   9.934  0.00  0.00     0.210 C 
ENDBRANCH  14  18
ENDBRANCH   8  12
BRANCH   3  20
HETATM   20  N   UNK N   1      23.805  16.570   6.056  0.00  0.00    -0.416 N 
HETATM   21  C   UNK N   1      23.680  15.159   6.410  0.00  0.00     0.140 C 
HETATM   22  H   UNK N   1      23.531  17.349   6.655  0.00  0.00     0.153 HD
ENDBRANCH   3  20
BRANCH   1  23
HETATM   23  S   UNK N   1      20.689  20.130   2.714  0.00  0.00     0.263 S 
HETATM   24  O   UNK N   1      20.701  21.269   1.681  0.00  0.00    -0.200 OA
HETATM   25  O   UNK N   1      20.289  20.898   3.980  0.00  0.00    -0.200 OA
BRANCH  23  26
HETATM   26  N   UNK N   1      19.266  19.147   2.367  0.00  0.00    -0.324 N 
HETATM   27  H   UNK N   1      19.061  18.729   1.460  0.00  0.00     0.169 HD
HETATM   28  H   UNK N   1      18.604  18.985   3.125  0.00  0.00     0.169 HD
ENDBRANCH  23  26
ENDBRANCH   1  23
TORSDOF 5
ENDMDL
MODEL 3
REMARK VINA RESULT:      -6.8      3.228      8.467
REMARK  5 active torsions:
REMARK  status: ('A' for Active; 'I' for Inactive)
REMARK    1  A    between atoms: C_1  and  S_11 
REMARK    2  A    between atoms: C_3  and  N_22 
REMARK    3  A    between atoms: C_7  and  O_25 
REMARK    4  A    between atoms: N_10  and  S_11 
REMARK    5  A    between atoms: N_18  and  C_23 
ROOT
HETATM    1  C   UNK N   1      32.684  17.176   7.946  0.00  0.00     0.121 A 
HETATM    2  C   UNK N   1      28.825  16.367   4.977  0.00  0.00     0.171 C 
HETATM    3  C   UNK N   1      30.374  16.543   4.987  0.00  0.00     0.130 C 
HETATM    4  S   UNK N   1      31.282  17.692   8.652  0.00  0.00    -0.062 SA
HETATM    5  C   UNK N   1      30.254  17.384   7.405  0.00  0.00     0.130 A 
HETATM    6  C   UNK N   1      30.986  16.863   6.346  0.00  0.00    -0.002 A 
HETATM    7  C   UNK N   1      32.382  16.763   6.638  0.00  0.00     0.044 A 
HETATM    8  N   UNK N   1      28.036  17.372   5.670  0.00  0.00    -0.269 N 
HETATM    9  S   UNK N   1      28.569  17.838   7.276  0.00  0.00     0.272 S 
HETATM   10  O   UNK N   1      28.295  19.347   7.380  0.00  0.00    -0.199 OA
HETATM   11  O   UNK N   1      27.601  17.157   8.251  0.00  0.00    -0.199 OA
ENDROOT
BRANCH   8  12
HETATM   12  C   UNK N   1      26.686  17.634   5.266  0.00  0.00     0.048 A 
HETATM   13  C   UNK N   1      26.349  18.860   4.659  0.00  0.00     0.067 A 
HETATM   14  C   UNK N   1      25.045  19.094   4.202  0.00  0.00     0.070 A 
HETATM   15  C   UNK N   1      24.069  18.098   4.353  0.00  0.00     0.037 A 
HETATM   16  C   UNK N   1      24.391  16.884   4.960  0.00  0.00     0.005 A 
HETATM   17  C   UNK N   1      25.691  16.656   5.410  0.00  0.00     0.030 A 
BRANCH  14  18
HETATM   18  O   UNK N   1      24.762  20.280   3.610  0.00  0.00    -0.356 OA
HETATM   19  C   UNK N   1      23.585  20.522   2.937  0.00  0.00     0.210 C 
ENDBRANCH  14  18
ENDBRANCH   8  12
BRANCH   3  20
HETATM   20  N   UNK N   1      30.767  17.542   3.990  0.00  0.00    -0.416 N 
HETATM   21  C   UNK N   1      31.741  16.973   3.064  0.00  0.00     0.140 C 
HETATM   22  H   UNK N   1      30.410  18.497   3.949  0.00  0.00     0.153 HD
ENDBRANCH   3  20
BRANCH   1  23
HETATM   23  S   UNK N   1      34.309  17.556   8.573  0.00  0.00     0.263 S 
HETATM   24  O   UNK N   1      34.791  18.986   8.279  0.00  0.00    -0.200 OA
HETATM   25  O   UNK N   1      35.309  16.742   7.743  0.00  0.00    -0.200 OA
BRANCH  23  26
HETATM   26  N   UNK N   1      34.774  17.197  10.237  0.00  0.00    -0.324 N 
HETATM   27  H   UNK N   1      35.605  17.568  10.696  0.00  0.00     0.169 HD
HETATM   28  H   UNK N   1      34.170  16.577  10.776  0.00  0.00     0.169 HD
ENDBRANCH  23  26
ENDBRANCH   1  23
TORSDOF 5
ENDMDL
MODEL 4
REMARK VINA RESULT:      -6.8      8.353     11.221
REMARK  5 active torsions:
REMARK  status: ('A' for Active; 'I' for Inactive)
REMARK    1  A    between atoms: C_1  and  S_11 
REMARK    2  A    between atoms: C_3  and  N_22 
REMARK    3  A    between atoms: C_7  and  O_25 
REMARK    4  A    between atoms: N_10  and  S_11 
REMARK    5  A    between atoms: N_18  and  C_23 
ROOT
HETATM    1  C   UNK N   1      35.986  14.805  11.184  0.00  0.00     0.121 A 
HETATM    2  C   UNK N   1      34.156  17.464   7.449  0.00  0.00     0.171 C 
HETATM    3  C   UNK N   1      34.028  17.216   8.983  0.00  0.00     0.130 C 
HETATM    4  S   UNK N   1      36.277  14.062   9.736  0.00  0.00    -0.062 SA
HETATM    5  C   UNK N   1      35.478  15.115   8.757  0.00  0.00     0.130 A 
HETATM    6  C   UNK N   1      34.918  16.114   9.544  0.00  0.00    -0.002 A 
HETATM    7  C   UNK N   1      35.185  15.931  10.937  0.00  0.00     0.044 A 
HETATM    8  N   UNK N   1      34.134  16.296   6.583  0.00  0.00    -0.269 N 
HETATM    9  S   UNK N   1      35.139  14.935   7.050  0.00  0.00     0.272 S 
HETATM   10  O   UNK N   1      34.334  13.680   6.677  0.00  0.00    -0.199 OA
HETATM   11  O   UNK N   1      36.348  14.966   6.107  0.00  0.00    -0.199 OA
ENDROOT
BRANCH   8  12
HETATM   12  C   UNK N   1      33.681  16.412   5.228  0.00  0.00     0.048 A 
HETATM   13  C   UNK N   1      33.989  15.413   4.285  0.00  0.00     0.067 A 
HETATM   14  C   UNK N   1      33.493  15.489   2.976  0.00  0.00     0.070 A 
HETATM   15  C   UNK N   1      32.683  16.574   2.605  0.00  0.00     0.037 A 
HETATM   16  C   UNK N   1      32.379  17.573   3.530  0.00  0.00     0.005 A 
HETATM   17  C   UNK N   1      32.874  17.489   4.831  0.00  0.00     0.030 A 
BRANCH  14  18
HETATM   18  O   UNK N   1      33.799  14.501   2.101  0.00  0.00    -0.356 OA
HETATM   19  C   UNK N   1      34.808  13.589   2.320  0.00  0.00     0.210 C 
ENDBRANCH  14  18
ENDBRANCH   8  12
BRANCH   3  20
HETATM   20  N   UNK N   1      32.625  16.980   9.332  0.00  0.00    -0.416 N 
HETATM   21  C   UNK N   1      31.755  17.837   8.531  0.00  0.00     0.140 C 
HETATM   22  H   UNK N   1      32.303  16.313  10.034  0.00  0.00     0.153 HD
ENDBRANCH   3  20
BRANCH   1  23
HETATM   23  S   UNK N   1      36.232  14.023  12.767  0.00  0.00     0.263 S 
HETATM   24  O   UNK N   1      36.995  12.689  12.711  0.00  0.00    -0.200 OA
HETATM   25  O   UNK N   1      34.856  13.544  13.245  0.00  0.00    -0.200 OA
BRANCH  23  26
HETATM   26  N   UNK N   1      36.861  14.910  14.157  0.00  0.00    -0.324 N 
HETATM   27  H   UNK N   1      37.820  14.846  14.495  0.00  0.00     0.169 HD
HETATM   28  H   UNK N   1      36.221  15.528  14.655  0.00  0.00     0.169 HD
ENDBRANCH  23  26
ENDBRANCH   1  23
TORSDOF 5
ENDMDL
MODEL 5
REMARK VINA RESULT:      -6.7      4.492      8.044
REMARK  5 active torsions:
REMARK  status: ('A' for Active; 'I' for Inactive)
REMARK    1  A    between atoms: C_1  and  S_11 
REMARK    2  A    between atoms: C_3  and  N_22 
REMARK    3  A    between atoms: C_7  and  O_25 
REMARK    4  A    between atoms: N_10  and  S_11 
REMARK    5  A    between atoms: N_18  and  C_23 
ROOT
HETATM    1  C   UNK N   1      22.893  13.469   8.582  0.00  0.00     0.121 A 
HETATM    2  C   UNK N   1      23.641  16.331   4.630  0.00  0.00     0.171 C 
HETATM    3  C   UNK N   1      24.377  15.491   5.717  0.00  0.00     0.130 C 
HETATM    4  S   UNK N   1      21.594  14.455   8.316  0.00  0.00    -0.062 SA
HETATM    5  C   UNK N   1      22.193  15.311   7.046  0.00  0.00     0.130 A 
HETATM    6  C   UNK N   1      23.479  14.862   6.776  0.00  0.00    -0.002 A 
HETATM    7  C   UNK N   1      23.898  13.823   7.666  0.00  0.00     0.044 A 
HETATM    8  N   UNK N   1      22.643  17.284   5.088  0.00  0.00    -0.269 N 
HETATM    9  S   UNK N   1      21.489  16.720   6.283  0.00  0.00     0.272 S 
HETATM   10  O   UNK N   1      21.251  17.914   7.222  0.00  0.00    -0.199 OA
HETATM   11  O   UNK N   1      20.175  16.501   5.524  0.00  0.00    -0.199 OA
ENDROOT
BRANCH   8  12
HETATM   12  C   UNK N   1      22.344  18.446   4.304  0.00  0.00     0.048 A 
HETATM   13  C   UNK N   1      23.382  19.211   3.737  0.00  0.00     0.067 A 
HETATM   14  C   UNK N   1      23.093  20.309   2.917  0.00  0.00     0.070 A 
HETATM   15  C   UNK N   1      21.755  20.648   2.659  0.00  0.00     0.037 A 
HETATM   16  C   UNK N   1      20.720  19.902   3.222  0.00  0.00     0.005 A 
HETATM   17  C   UNK N   1      21.015  18.808   4.036  0.00  0.00     0.030 A 
BRANCH  14  18
HETATM   18  O   UNK N   1      24.118  21.012   2.378  0.00  0.00    -0.356 OA
HETATM   19  C   UNK N   1      25.437  20.638   2.510  0.00  0.00     0.210 C 
ENDBRANCH  14  18
ENDBRANCH   8  12
BRANCH   3  20
HETATM   20  N   UNK N   1      25.430  16.297   6.340  0.00  0.00    -0.416 N 
HETATM   21  C   UNK N   1      26.204  16.993   5.315  0.00  0.00     0.140 C 
HETATM   22  H   UNK N   1      25.597  16.364   7.344  0.00  0.00     0.153 HD
ENDBRANCH   3  20
BRANCH   1  23
HETATM   23  S   UNK N   1      23.124  12.510  10.066  0.00  0.00     0.263 S 
HETATM   24  O   UNK N   1      22.970  10.992   9.878  0.00  0.00    -0.200 OA
HETATM   25  O   UNK N   1      21.928  12.807  10.979  0.00  0.00    -0.200 OA
BRANCH  23  26
HETATM   26  N   UNK N   1      24.515  12.751  11.125  0.00  0.00    -0.324 N 
HETATM   27  H   UNK N   1      25.469  12.473  10.896  0.00  0.00     0.169 HD
HETATM   28  H   UNK N   1      24.354  13.198  12.027  0.00  0.00     0.169 HD
ENDBRANCH  23  26
ENDBRANCH   1  23
TORSDOF 5
ENDMDL
MODEL 6
REMARK VINA RESULT:      -6.3      6.907     10.759
REMARK  5 active torsions:
REMARK  status: ('A' for Active; 'I' for Inactive)
REMARK    1  A    between atoms: C_1  and  S_11 
REMARK    2  A    between atoms: C_3  and  N_22 
REMARK    3  A    between atoms: C_7  and  O_25 
REMARK    4  A    between atoms: N_10  and  S_11 
REMARK    5  A    between atoms: N_18  and  C_23 
ROOT
HETATM    1  C   UNK N   1      35.569  14.889  10.895  0.00  0.00     0.121 A 
HETATM    2  C   UNK N   1      32.862  17.243   7.505  0.00  0.00     0.171 C 
HETATM    3  C   UNK N   1      32.922  16.881   9.020  0.00  0.00     0.130 C 
HETATM    4  S   UNK N   1      35.908  14.326   9.379  0.00  0.00    -0.062 SA
HETATM    5  C   UNK N   1      34.805  15.210   8.538  0.00  0.00     0.130 A 
HETATM    6  C   UNK N   1      34.091  15.996   9.435  0.00  0.00    -0.002 A 
HETATM    7  C   UNK N   1      34.506  15.800  10.789  0.00  0.00     0.044 A 
HETATM    8  N   UNK N   1      33.046  16.159   6.554  0.00  0.00    -0.269 N 
HETATM    9  S   UNK N   1      34.380  15.056   6.848  0.00  0.00     0.272 S 
HETATM   10  O   UNK N   1      33.867  13.669   6.432  0.00  0.00    -0.199 OA
HETATM   11  O   UNK N   1      35.466  15.435   5.833  0.00  0.00    -0.199 OA
ENDROOT
BRANCH   8  12
HETATM   12  C   UNK N   1      32.469  16.243   5.245  0.00  0.00     0.048 A 
HETATM   13  C   UNK N   1      31.297  15.527   4.935  0.00  0.00     0.067 A 
HETATM   14  C   UNK N   1      30.693  15.657   3.677  0.00  0.00     0.070 A 
HETATM   15  C   UNK N   1      31.263  16.510   2.720  0.00  0.00     0.037 A 
HETATM   16  C   UNK N   1      32.429  17.217   3.014  0.00  0.00     0.005 A 
HETATM   17  C   UNK N   1      33.024  17.084   4.268  0.00  0.00     0.030 A 
BRANCH  14  18
HETATM   18  O   UNK N   1      29.557  14.963   3.421  0.00  0.00    -0.356 OA
HETATM   19  C   UNK N   1      28.955  14.937   2.183  0.00  0.00     0.210 C 
ENDBRANCH  14  18
ENDBRANCH   8  12
BRANCH   3  20
HETATM   20  N   UNK N   1      31.648  16.293   9.441  0.00  0.00    -0.416 N 
HETATM   21  C   UNK N   1      30.533  17.057   8.889  0.00  0.00     0.140 C 
HETATM   22  H   UNK N   1      31.555  15.468  10.033  0.00  0.00     0.153 HD
ENDBRANCH   3  20
BRANCH   1  23
HETATM   23  S   UNK N   1      36.122  14.097  12.393  0.00  0.00     0.263 S 
HETATM   24  O   UNK N   1      37.078  12.913  12.177  0.00  0.00    -0.200 OA
HETATM   25  O   UNK N   1      34.907  13.377  12.991  0.00  0.00    -0.200 OA
BRANCH  23  26
HETATM   26  N   UNK N   1      36.759  15.020  13.756  0.00  0.00    -0.324 N 
HETATM   27  H   UNK N   1      36.933  16.024  13.740  0.00  0.00     0.169 HD
HETATM   28  H   UNK N   1      36.966  14.515  14.616  0.00  0.00     0.169 HD
ENDBRANCH  23  26
ENDBRANCH   1  23
TORSDOF 5
ENDMDL
MODEL 7
REMARK VINA RESULT:      -6.2     12.758     15.650
REMARK  5 active torsions:
REMARK  status: ('A' for Active; 'I' for Inactive)
REMARK    1  A    between atoms: C_1  and  S_11 
REMARK    2  A    between atoms: C_3  and  N_22 
REMARK    3  A    between atoms: C_7  and  O_25 
REMARK    4  A    between atoms: N_10  and  S_11 
REMARK    5  A    between atoms: N_18  and  C_23 
ROOT
HETATM    1  C   UNK N   1      36.909  13.619  11.867  0.00  0.00     0.121 A 
HETATM    2  C   UNK N   1      36.952  10.616  15.784  0.00  0.00     0.171 C 
HETATM    3  C   UNK N   1      37.074  10.639  14.230  0.00  0.00     0.130 C 
HETATM    4  S   UNK N   1      36.138  14.318  13.150  0.00  0.00    -0.062 SA
HETATM    5  C   UNK N   1      36.239  13.062  14.208  0.00  0.00     0.130 A 
HETATM    6  C   UNK N   1      36.884  12.004  13.580  0.00  0.00    -0.002 A 
HETATM    7  C   UNK N   1      37.250  12.306  12.231  0.00  0.00     0.044 A 
HETATM    8  N   UNK N   1      35.818  11.310  16.372  0.00  0.00    -0.269 N 
HETATM    9  S   UNK N   1      35.470  12.923  15.774  0.00  0.00     0.272 S 
HETATM   10  O   UNK N   1      33.938  13.035  15.757  0.00  0.00    -0.199 OA
HETATM   11  O   UNK N   1      35.959  13.887  16.863  0.00  0.00    -0.199 OA
ENDROOT
BRANCH   8  12
HETATM   12  C   UNK N   1      35.301  10.898  17.644  0.00  0.00     0.048 A 
HETATM   13  C   UNK N   1      34.590   9.688  17.766  0.00  0.00     0.067 A 
HETATM   14  C   UNK N   1      34.140   9.249  19.018  0.00  0.00     0.070 A 
HETATM   15  C   UNK N   1      34.402  10.023  20.159  0.00  0.00     0.037 A 
HETATM   16  C   UNK N   1      35.099  11.226  20.047  0.00  0.00     0.005 A 
HETATM   17  C   UNK N   1      35.545  11.657  18.799  0.00  0.00     0.030 A 
BRANCH  14  18
HETATM   18  O   UNK N   1      33.471   8.073  19.098  0.00  0.00    -0.356 OA
HETATM   19  C   UNK N   1      32.336   7.904  19.859  0.00  0.00     0.210 C 
ENDBRANCH  14  18
ENDBRANCH   8  12
BRANCH   3  20
HETATM   20  N   UNK N   1      36.163   9.652  13.646  0.00  0.00    -0.416 N 
HETATM   21  C   UNK N   1      36.901   8.452  13.261  0.00  0.00     0.140 C 
HETATM   22  H   UNK N   1      35.159   9.784  13.525  0.00  0.00     0.153 HD
ENDBRANCH   3  20
BRANCH   1  23
HETATM   23  S   UNK N   1      36.850  14.261  10.205  0.00  0.00     0.263 S 
HETATM   24  O   UNK N   1      38.205  14.288   9.480  0.00  0.00    -0.200 OA
HETATM   25  O   UNK N   1      36.556  15.761  10.317  0.00  0.00    -0.200 OA
BRANCH  23  26
HETATM   26  N   UNK N   1      35.658  13.699   9.031  0.00  0.00    -0.324 N 
HETATM   27  H   UNK N   1      34.889  13.065   9.248  0.00  0.00     0.169 HD
HETATM   28  H   UNK N   1      35.744  14.030   8.071  0.00  0.00     0.169 HD
ENDBRANCH  23  26
ENDBRANCH   1  23
TORSDOF 5
ENDMDL
MODEL 8
REMARK VINA RESULT:      -6.2      9.024     11.952
REMARK  5 active torsions:
REMARK  status: ('A' for Active; 'I' for Inactive)
REMARK    1  A    between atoms: C_1  and  S_11 
REMARK    2  A    between atoms: C_3  and  N_22 
REMARK    3  A    between atoms: C_7  and  O_25 
REMARK    4  A    between atoms: N_10  and  S_11 
REMARK    5  A    between atoms: N_18  and  C_23 
ROOT
HETATM    1  C   UNK N   1      34.852  16.409   8.632  0.00  0.00     0.121 A 
HETATM    2  C   UNK N   1      35.834  11.708   9.776  0.00  0.00     0.171 C 
HETATM    3  C   UNK N   1      35.090  12.610   8.746  0.00  0.00     0.130 C 
HETATM    4  S   UNK N   1      35.251  16.264  10.229  0.00  0.00    -0.062 SA
HETATM    5  C   UNK N   1      35.407  14.628  10.294  0.00  0.00     0.130 A 
HETATM    6  C   UNK N   1      35.130  14.106   9.037  0.00  0.00    -0.002 A 
HETATM    7  C   UNK N   1      34.788  15.117   8.085  0.00  0.00     0.044 A 
HETATM    8  N   UNK N   1      35.584  11.963  11.185  0.00  0.00    -0.269 N 
HETATM    9  S   UNK N   1      35.633  13.635  11.717  0.00  0.00     0.272 S 
HETATM   10  O   UNK N   1      34.530  13.763  12.779  0.00  0.00    -0.199 OA
HETATM   11  O   UNK N   1      36.965  13.798  12.459  0.00  0.00    -0.199 OA
ENDROOT
BRANCH   8  12
HETATM   12  C   UNK N   1      35.729  10.908  12.145  0.00  0.00     0.048 A 
HETATM   13  C   UNK N   1      36.984  10.303  12.355  0.00  0.00     0.067 A 
HETATM   14  C   UNK N   1      37.145   9.317  13.338  0.00  0.00     0.070 A 
HETATM   15  C   UNK N   1      36.044   8.932  14.119  0.00  0.00     0.037 A 
HETATM   16  C   UNK N   1      34.796   9.519  13.913  0.00  0.00     0.005 A 
HETATM   17  C   UNK N   1      34.643  10.501  12.935  0.00  0.00     0.030 A 
BRANCH  14  18
HETATM   18  O   UNK N   1      38.370   8.768  13.520  0.00  0.00    -0.356 OA
HETATM   19  C   UNK N   1      39.045   8.091  12.529  0.00  0.00     0.210 C 
ENDBRANCH  14  18
ENDBRANCH   8  12
BRANCH   3  20
HETATM   20  N   UNK N   1      33.709  12.148   8.586  0.00  0.00    -0.416 N 
HETATM   21  C   UNK N   1      33.501  11.641   7.233  0.00  0.00     0.140 C 
HETATM   22  H   UNK N   1      32.997  12.176   9.316  0.00  0.00     0.153 HD
ENDBRANCH   3  20
BRANCH   1  23
HETATM   23  S   UNK N   1      34.156  17.883   7.913  0.00  0.00     0.263 S 
HETATM   24  O   UNK N   1      34.328  17.996   6.389  0.00  0.00    -0.200 OA
HETATM   25  O   UNK N   1      35.020  19.059   8.384  0.00  0.00    -0.200 OA
BRANCH  23  26
HETATM   26  N   UNK N   1      32.513  18.413   8.278  0.00  0.00    -0.324 N 
HETATM   27  H   UNK N   1      31.713  18.274   7.662  0.00  0.00     0.169 HD
HETATM   28  H   UNK N   1      32.353  18.890   9.164  0.00  0.00     0.169 HD
ENDBRANCH  23  26
ENDBRANCH   1  23
TORSDOF 5
ENDMDL
MODEL 9
REMARK VINA RESULT:      -6.1      5.306      8.218
REMARK  5 active torsions:
REMARK  status: ('A' for Active; 'I' for Inactive)
REMARK    1  A    between atoms: C_1  and  S_11 
REMARK    2  A    between atoms: C_3  and  N_22 
REMARK    3  A    between atoms: C_7  and  O_25 
REMARK    4  A    between atoms: N_10  and  S_11 
REMARK    5  A    between atoms: N_18  and  C_23 
ROOT
HETATM    1  C   UNK N   1      30.210  16.122   5.249  0.00  0.00     0.121 A 
HETATM    2  C   UNK N   1      33.133  16.589   9.200  0.00  0.00     0.171 C 
HETATM    3  C   UNK N   1      32.550  17.368   7.982  0.00  0.00     0.130 C 
HETATM    4  S   UNK N   1      30.776  14.648   5.738  0.00  0.00    -0.062 SA
HETATM    5  C   UNK N   1      31.758  15.156   6.956  0.00  0.00     0.130 A 
HETATM    6  C   UNK N   1      31.697  16.543   7.025  0.00  0.00    -0.002 A 
HETATM    7  C   UNK N   1      30.831  17.105   6.036  0.00  0.00     0.044 A 
HETATM    8  N   UNK N   1      33.761  15.306   8.930  0.00  0.00    -0.269 N 
HETATM    9  S   UNK N   1      32.898  14.199   7.876  0.00  0.00     0.272 S 
HETATM   10  O   UNK N   1      33.980  13.498   7.040  0.00  0.00    -0.199 OA
HETATM   11  O   UNK N   1      32.303  13.126   8.796  0.00  0.00    -0.199 OA
ENDROOT
BRANCH   8  12
HETATM   12  C   UNK N   1      34.781  14.805   9.804  0.00  0.00     0.048 A 
HETATM   13  C   UNK N   1      34.495  14.544  11.158  0.00  0.00     0.067 A 
HETATM   14  C   UNK N   1      35.469  13.993  12.000  0.00  0.00     0.070 A 
HETATM   15  C   UNK N   1      36.742  13.699  11.486  0.00  0.00     0.037 A 
HETATM   16  C   UNK N   1      37.038  13.961  10.148  0.00  0.00     0.005 A 
HETATM   17  C   UNK N   1      36.062  14.508   9.315  0.00  0.00     0.030 A 
BRANCH  14  18
HETATM   18  O   UNK N   1      35.152  13.743  13.293  0.00  0.00    -0.356 OA
HETATM   19  C   UNK N   1      36.079  13.765  14.312  0.00  0.00     0.210 C 
ENDBRANCH  14  18
ENDBRANCH   8  12
BRANCH   3  20
HETATM   20  N   UNK N   1      33.631  18.046   7.262  0.00  0.00    -0.416 N 
HETATM   21  C   UNK N   1      34.634  18.534   8.204  0.00  0.00     0.140 C 
HETATM   22  H   UNK N   1      33.676  18.160   6.250  0.00  0.00     0.153 HD
ENDBRANCH   3  20
BRANCH   1  23
HETATM   23  S   UNK N   1      29.370  16.398   3.701  0.00  0.00     0.263 S 
HETATM   24  O   UNK N   1      28.592  15.184   3.169  0.00  0.00    -0.200 OA
HETATM   25  O   UNK N   1      30.454  16.536   2.625  0.00  0.00    -0.200 OA
BRANCH  23  26
HETATM   26  N   UNK N   1      28.348  17.812   3.434  0.00  0.00    -0.324 N 
HETATM   27  H   UNK N   1      27.994  18.415   4.176  0.00  0.00     0.169 HD
HETATM   28  H   UNK N   1      28.095  18.040   2.474  0.00  0.00     0.169 HD
ENDBRANCH  23  26
ENDBRANCH   1  23
TORSDOF 5
ENDMDL
