REMARK  5 active torsions:
REMARK  status: ('A' for Active; 'I' for Inactive)
REMARK    1  A    between atoms: C_1  and  S_11 
REMARK    2  A    between atoms: C_3  and  N_22 
REMARK    3  A    between atoms: C_7  and  O_25 
REMARK    4  A    between atoms: N_10  and  S_11 
REMARK    5  A    between atoms: N_18  and  C_23 
ROOT
HETATM    1  C   UNK N   1      -3.729  -0.357  -0.603  0.00  0.00     0.121 A 
HETATM    2  C   UNK N   1       1.175  -0.915  -0.685  0.00  0.00     0.171 C 
HETATM    3  C   UNK N   1      -0.158  -1.655  -0.361  0.00  0.00     0.130 C 
HETATM    4  S   UNK N   1      -2.970   1.109  -0.529  0.00  0.00    -0.062 SA
HETATM    5  C   UNK N   1      -1.415   0.576  -0.472  0.00  0.00     0.130 A 
HETATM    6  C   UNK N   1      -1.422  -0.813  -0.492  0.00  0.00    -0.002 A 
HETATM    7  C   UNK N   1      -2.744  -1.356  -0.543  0.00  0.00     0.044 A 
HETATM    8  N   UNK N   1       1.369   0.397  -0.089  0.00  0.00    -0.269 N 
HETATM    9  S   UNK N   1       0.027   1.524  -0.183  0.00  0.00     0.272 S 
HETATM   10  O   UNK N   1       0.041   2.294   1.147  0.00  0.00    -0.199 OA
HETATM   11  O   UNK N   1       0.408   2.537  -1.270  0.00  0.00    -0.199 OA
ENDROOT
BRANCH   8  12
HETATM   12  C   UNK N   1       2.693   0.888   0.157  0.00  0.00     0.048 A 
HETATM   13  C   UNK N   1       3.807   0.038   0.014  0.00  0.00     0.067 A 
HETATM   14  C   UNK N   1       5.107   0.530   0.189  0.00  0.00     0.070 A 
HETATM   15  C   UNK N   1       5.298   1.883   0.510  0.00  0.00     0.037 A 
HETATM   16  C   UNK N   1       4.201   2.731   0.662  0.00  0.00     0.005 A 
HETATM   17  C   UNK N   1       2.910   2.235   0.484  0.00  0.00     0.030 A 
BRANCH  14  18
HETATM   18  O   UNK N   1       6.154  -0.315   0.029  0.00  0.00    -0.356 OA
HETATM   19  C   UNK N   1       7.467   0.086   0.139  0.00  0.00     0.210 C 
ENDBRANCH  14  18
ENDBRANCH   8  12
BRANCH   3  20
HETATM   20  N   UNK N   1      -0.076  -2.268   0.967  0.00  0.00    -0.416 N 
HETATM   21  C   UNK N   1      -0.958  -3.429   1.041  0.00  0.00     0.140 C 
HETATM   22  H   UNK N   1       0.513  -1.932   1.729  0.00  0.00     0.153 HD
ENDBRANCH   3  20
BRANCH   1  23
HETATM   23  S   UNK N   1      -5.471  -0.588  -0.306  0.00  0.00     0.263 S 
HETATM   24  O   UNK N   1      -6.339   0.649  -0.590  0.00  0.00    -0.200 OA
HETATM   25  O   UNK N   1      -5.651  -0.720   1.211  0.00  0.00    -0.200 OA
BRANCH  23  26
HETATM   26  N   UNK N   1      -6.349  -1.980  -0.943  0.00  0.00    -0.324 N 
HETATM   27  H   UNK N   1      -7.299  -1.943  -1.311  0.00  0.00     0.169 HD
HETATM   28  H   UNK N   1      -5.874  -2.882  -0.943  0.00  0.00     0.169 HD
ENDBRANCH  23  26
ENDBRANCH   1  23
TORSDOF 5
