MODEL 1
REMARK VINA RESULT:      -6.8      0.000      0.000
REMARK  3 active torsions:
REMARK  status: ('A' for Active; 'I' for Inactive)
REMARK    1  A    between atoms: C_7  and  N_16 
REMARK    2  A    between atoms: C_7  and  C_17 
REMARK    3  A    between atoms: C_17  and  O_19 
ROOT
HETATM    1  C   UNK N   1      22.596  14.762   7.626  0.00  0.00     0.044 A 
HETATM    2  C   UNK N   1      21.443  13.553   9.384  0.00  0.00     0.044 A 
HETATM    3  C   UNK N   1      20.355  14.432   9.263  0.00  0.00     0.262 A 
HETATM    4  C   UNK N   1      21.498  15.626   7.517  0.00  0.00     0.262 A 
HETATM    5  O   UNK N   1      19.403  14.265   9.995  0.00  0.00    -0.267 OA
HETATM    6  O   UNK N   1      21.534  16.531   6.694  0.00  0.00    -0.267 OA
HETATM    7  C   UNK N   1      22.566  13.722   8.564  0.00  0.00     0.005 A 
HETATM    8  C   UNK N   1      23.670  12.847   8.688  0.00  0.00    -0.024 A 
HETATM    9  C   UNK N   1      23.637  11.811   9.624  0.00  0.00     0.012 A 
HETATM   10  C   UNK N   1      22.515  11.640  10.438  0.00  0.00     0.002 A 
HETATM   11  C   UNK N   1      21.424  12.505  10.321  0.00  0.00     0.018 A 
HETATM   12  C   UNK N   1      23.730  14.925   6.813  0.00  0.00     0.018 A 
HETATM   13  C   UNK N   1      24.821  14.061   6.939  0.00  0.00     0.002 A 
HETATM   14  C   UNK N   1      24.791  13.023   7.875  0.00  0.00     0.012 A 
HETATM   15  N   UNK N   1      20.380  15.470   8.329  0.00  0.00    -0.270 N 
ENDROOT
BRANCH  15  16
HETATM   16  C   UNK N   1      19.307  16.477   8.099  0.00  0.00     0.245 C 
BRANCH  16  17
HETATM   17  C   UNK N   1      18.988  17.693   8.945  0.00  0.00     0.158 C 
HETATM   18  O   UNK N   1      19.911  18.432   9.236  0.00  0.00    -0.649 OA
BRANCH  17  19
HETATM   19  O   UNK N   1      17.760  18.010   9.379  0.00  0.00    -0.775 OA
HETATM   20  H   UNK N   1      17.525  17.853  10.273  0.00  0.00     0.167 HD
ENDBRANCH  17  19
ENDBRANCH  16  17
ENDBRANCH  15  16
TORSDOF 3
ENDMDL
MODEL 2
REMARK VINA RESULT:      -6.8      5.624      7.223
REMARK  3 active torsions:
REMARK  status: ('A' for Active; 'I' for Inactive)
REMARK    1  A    between atoms: C_7  and  N_16 
REMARK    2  A    between atoms: C_7  and  C_17 
REMARK    3  A    between atoms: C_17  and  O_19 
ROOT
HETATM    1  C   UNK N   1      25.249  19.627   3.682  0.00  0.00     0.044 A 
HETATM    2  C   UNK N   1      23.774  17.876   4.479  0.00  0.00     0.044 A 
HETATM    3  C   UNK N   1      22.684  18.537   3.893  0.00  0.00     0.262 A 
HETATM    4  C   UNK N   1      24.149  20.271   3.098  0.00  0.00     0.262 A 
HETATM    5  O   UNK N   1      21.584  18.041   4.012  0.00  0.00    -0.267 OA
HETATM    6  O   UNK N   1      24.326  21.321   2.494  0.00  0.00    -0.267 OA
HETATM    7  C   UNK N   1      25.059  18.425   4.374  0.00  0.00     0.005 A 
HETATM    8  C   UNK N   1      26.159  17.769   4.972  0.00  0.00    -0.024 A 
HETATM    9  C   UNK N   1      25.966  16.571   5.662  0.00  0.00     0.012 A 
HETATM   10  C   UNK N   1      24.686  16.020   5.763  0.00  0.00     0.002 A 
HETATM   11  C   UNK N   1      23.596  16.668   5.177  0.00  0.00     0.018 A 
HETATM   12  C   UNK N   1      26.540  20.172   3.587  0.00  0.00     0.018 A 
HETATM   13  C   UNK N   1      27.627  19.523   4.181  0.00  0.00     0.002 A 
HETATM   14  C   UNK N   1      27.437  18.323   4.872  0.00  0.00     0.012 A 
HETATM   15  N   UNK N   1      22.870  19.736   3.201  0.00  0.00    -0.270 N 
ENDROOT
BRANCH  15  16
HETATM   16  C   UNK N   1      21.809  20.547   2.540  0.00  0.00     0.245 C 
BRANCH  16  17
HETATM   17  C   UNK N   1      20.976  20.166   1.333  0.00  0.00     0.158 C 
HETATM   18  O   UNK N   1      21.115  20.830   0.322  0.00  0.00    -0.649 OA
BRANCH  17  19
HETATM   19  O   UNK N   1      20.109  19.143   1.306  0.00  0.00    -0.775 OA
HETATM   20  H   UNK N   1      20.061  18.590   0.550  0.00  0.00     0.167 HD
ENDBRANCH  17  19
ENDBRANCH  16  17
ENDBRANCH  15  16
TORSDOF 3
ENDMDL
MODEL 3
REMARK VINA RESULT:      -6.8      5.644      7.770
REMARK  3 active torsions:
REMARK  status: ('A' for Active; 'I' for Inactive)
REMARK    1  A    between atoms: C_7  and  N_16 
REMARK    2  A    between atoms: C_7  and  C_17 
REMARK    3  A    between atoms: C_17  and  O_19 
ROOT
HETATM    1  C   UNK N   1      23.630  17.952   4.426  0.00  0.00     0.044 A 
HETATM    2  C   UNK N   1      25.224  19.607   3.652  0.00  0.00     0.044 A 
HETATM    3  C   UNK N   1      24.178  20.324   3.053  0.00  0.00     0.262 A 
HETATM    4  C   UNK N   1      22.596  18.685   3.826  0.00  0.00     0.262 A 
HETATM    5  O   UNK N   1      24.451  21.344   2.458  0.00  0.00    -0.267 OA
HETATM    6  O   UNK N   1      21.447  18.271   3.910  0.00  0.00    -0.267 OA
HETATM    7  C   UNK N   1      24.948  18.417   4.338  0.00  0.00     0.005 A 
HETATM    8  C   UNK N   1      25.999  17.684   4.934  0.00  0.00    -0.024 A 
HETATM    9  C   UNK N   1      27.313  18.149   4.844  0.00  0.00     0.012 A 
HETATM   10  C   UNK N   1      27.588  19.338   4.164  0.00  0.00     0.002 A 
HETATM   11  C   UNK N   1      26.552  20.064   3.570  0.00  0.00     0.018 A 
HETATM   12  C   UNK N   1      23.365  16.756   5.112  0.00  0.00     0.018 A 
HETATM   13  C   UNK N   1      24.406  16.031   5.698  0.00  0.00     0.002 A 
HETATM   14  C   UNK N   1      25.721  16.494   5.610  0.00  0.00     0.012 A 
HETATM   15  N   UNK N   1      22.861  19.865   3.140  0.00  0.00    -0.270 N 
ENDROOT
BRANCH  15  16
HETATM   16  C   UNK N   1      21.659  20.516   2.548  0.00  0.00     0.245 C 
BRANCH  16  17
HETATM   17  C   UNK N   1      20.969  20.167   1.245  0.00  0.00     0.158 C 
HETATM   18  O   UNK N   1      21.160  20.902   0.293  0.00  0.00    -0.649 OA
BRANCH  17  19
HETATM   19  O   UNK N   1      20.176  19.099   1.073  0.00  0.00    -0.775 OA
HETATM   20  H   UNK N   1      20.334  18.509   0.362  0.00  0.00     0.167 HD
ENDBRANCH  17  19
ENDBRANCH  16  17
ENDBRANCH  15  16
TORSDOF 3
ENDMDL
MODEL 4
REMARK VINA RESULT:      -6.8      0.241      2.994
REMARK  3 active torsions:
REMARK  status: ('A' for Active; 'I' for Inactive)
REMARK    1  A    between atoms: C_7  and  N_16 
REMARK    2  A    between atoms: C_7  and  C_17 
REMARK    3  A    between atoms: C_17  and  O_19 
ROOT
HETATM    1  C   UNK N   1      21.311  13.647   9.446  0.00  0.00     0.044 A 
HETATM    2  C   UNK N   1      22.616  14.687   7.687  0.00  0.00     0.044 A 
HETATM    3  C   UNK N   1      21.582  15.612   7.478  0.00  0.00     0.262 A 
HETATM    4  C   UNK N   1      20.291  14.583   9.227  0.00  0.00     0.262 A 
HETATM    5  O   UNK N   1      21.728  16.446   6.610  0.00  0.00    -0.267 OA
HETATM    6  O   UNK N   1      19.277  14.528   9.910  0.00  0.00    -0.267 OA
HETATM    7  C   UNK N   1      22.477  13.701   8.672  0.00  0.00     0.005 A 
HETATM    8  C   UNK N   1      23.510  12.758   8.880  0.00  0.00    -0.024 A 
HETATM    9  C   UNK N   1      24.671  12.814   8.106  0.00  0.00     0.012 A 
HETATM   10  C   UNK N   1      24.811  13.800   7.126  0.00  0.00     0.002 A 
HETATM   11  C   UNK N   1      23.791  14.731   6.915  0.00  0.00     0.018 A 
HETATM   12  C   UNK N   1      21.181  12.651  10.428  0.00  0.00     0.018 A 
HETATM   13  C   UNK N   1      22.202  11.718  10.630  0.00  0.00     0.002 A 
HETATM   14  C   UNK N   1      23.365  11.772   9.858  0.00  0.00     0.012 A 
HETATM   15  N   UNK N   1      20.418  15.563   8.249  0.00  0.00    -0.270 N 
ENDROOT
BRANCH  15  16
HETATM   16  C   UNK N   1      19.243  16.470   8.131  0.00  0.00     0.245 C 
BRANCH  16  17
HETATM   17  C   UNK N   1      18.990  17.755   8.894  0.00  0.00     0.158 C 
HETATM   18  O   UNK N   1      19.894  18.570   8.936  0.00  0.00    -0.649 OA
BRANCH  17  19
HETATM   19  O   UNK N   1      17.838  18.053   9.512  0.00  0.00    -0.775 OA
HETATM   20  H   UNK N   1      17.746  18.870   9.962  0.00  0.00     0.167 HD
ENDBRANCH  17  19
ENDBRANCH  16  17
ENDBRANCH  15  16
TORSDOF 3
ENDMDL
MODEL 5
REMARK VINA RESULT:      -6.8      9.335     11.703
REMARK  3 active torsions:
REMARK  status: ('A' for Active; 'I' for Inactive)
REMARK    1  A    between atoms: C_7  and  N_16 
REMARK    2  A    between atoms: C_7  and  C_17 
REMARK    3  A    between atoms: C_17  and  O_19 
ROOT
HETATM    1  C   UNK N   1      32.462  17.213   5.266  0.00  0.00     0.044 A 
HETATM    2  C   UNK N   1      30.638  17.202   6.864  0.00  0.00     0.044 A 
HETATM    3  C   UNK N   1      31.550  17.467   7.896  0.00  0.00     0.262 A 
HETATM    4  C   UNK N   1      33.358  17.484   6.310  0.00  0.00     0.262 A 
HETATM    5  O   UNK N   1      31.122  17.563   9.027  0.00  0.00    -0.267 OA
HETATM    6  O   UNK N   1      34.548  17.607   6.054  0.00  0.00    -0.267 OA
HETATM    7  C   UNK N   1      31.097  17.072   5.547  0.00  0.00     0.005 A 
HETATM    8  C   UNK N   1      30.184  16.793   4.504  0.00  0.00    -0.024 A 
HETATM    9  C   UNK N   1      28.824  16.651   4.787  0.00  0.00     0.012 A 
HETATM   10  C   UNK N   1      28.365  16.786   6.099  0.00  0.00     0.002 A 
HETATM   11  C   UNK N   1      29.265  17.057   7.133  0.00  0.00     0.018 A 
HETATM   12  C   UNK N   1      32.912  17.076   3.943  0.00  0.00     0.018 A 
HETATM   13  C   UNK N   1      32.008  16.797   2.913  0.00  0.00     0.002 A 
HETATM   14  C   UNK N   1      30.646  16.657   3.194  0.00  0.00     0.012 A 
HETATM   15  N   UNK N   1      32.912  17.610   7.621  0.00  0.00    -0.270 N 
ENDROOT
BRANCH  15  16
HETATM   16  C   UNK N   1      33.989  17.884   8.613  0.00  0.00     0.245 C 
BRANCH  16  17
HETATM   17  C   UNK N   1      34.481  16.968   9.716  0.00  0.00     0.158 C 
HETATM   18  O   UNK N   1      35.573  17.206  10.199  0.00  0.00    -0.649 OA
BRANCH  17  19
HETATM   19  O   UNK N   1      33.788  15.926  10.197  0.00  0.00    -0.775 OA
HETATM   20  H   UNK N   1      32.851  15.947  10.198  0.00  0.00     0.167 HD
ENDBRANCH  17  19
ENDBRANCH  16  17
ENDBRANCH  15  16
TORSDOF 3
ENDMDL
MODEL 6
REMARK VINA RESULT:      -6.6     18.839     20.851
REMARK  3 active torsions:
REMARK  status: ('A' for Active; 'I' for Inactive)
REMARK    1  A    between atoms: C_7  and  N_16 
REMARK    2  A    between atoms: C_7  and  C_17 
REMARK    3  A    between atoms: C_17  and  O_19 
ROOT
HETATM    1  C   UNK N   1      26.191  27.080  -5.520  0.00  0.00     0.044 A 
HETATM    2  C   UNK N   1      27.770  27.449  -7.322  0.00  0.00     0.044 A 
HETATM    3  C   UNK N   1      27.461  26.183  -7.842  0.00  0.00     0.262 A 
HETATM    4  C   UNK N   1      25.890  25.821  -6.057  0.00  0.00     0.262 A 
HETATM    5  O   UNK N   1      28.037  25.822  -8.845  0.00  0.00    -0.267 OA
HETATM    6  O   UNK N   1      25.063  25.116  -5.494  0.00  0.00    -0.267 OA
HETATM    7  C   UNK N   1      27.135  27.896  -6.156  0.00  0.00     0.005 A 
HETATM    8  C   UNK N   1      27.450  29.166  -5.621  0.00  0.00    -0.024 A 
HETATM    9  C   UNK N   1      28.392  29.977  -6.257  0.00  0.00     0.012 A 
HETATM   10  C   UNK N   1      29.023  29.533  -7.422  0.00  0.00     0.002 A 
HETATM   11  C   UNK N   1      28.717  28.277  -7.952  0.00  0.00     0.018 A 
HETATM   12  C   UNK N   1      25.563  27.536  -4.349  0.00  0.00     0.018 A 
HETATM   13  C   UNK N   1      25.878  28.791  -3.819  0.00  0.00     0.002 A 
HETATM   14  C   UNK N   1      26.820  29.605  -4.455  0.00  0.00     0.012 A 
HETATM   15  N   UNK N   1      26.519  25.367  -7.211  0.00  0.00    -0.270 N 
ENDROOT
BRANCH  15  16
HETATM   16  C   UNK N   1      26.101  24.004  -7.644  0.00  0.00     0.245 C 
BRANCH  16  17
HETATM   17  C   UNK N   1      25.087  23.648  -8.712  0.00  0.00     0.158 C 
HETATM   18  O   UNK N   1      24.306  22.745  -8.466  0.00  0.00    -0.649 OA
BRANCH  17  19
HETATM   19  O   UNK N   1      24.987  24.267  -9.897  0.00  0.00    -0.775 OA
HETATM   20  H   UNK N   1      24.745  23.781 -10.660  0.00  0.00     0.167 HD
ENDBRANCH  17  19
ENDBRANCH  16  17
ENDBRANCH  15  16
TORSDOF 3
ENDMDL
MODEL 7
REMARK VINA RESULT:      -6.6     18.929     20.780
REMARK  3 active torsions:
REMARK  status: ('A' for Active; 'I' for Inactive)
REMARK    1  A    between atoms: C_7  and  N_16 
REMARK    2  A    between atoms: C_7  and  C_17 
REMARK    3  A    between atoms: C_17  and  O_19 
ROOT
HETATM    1  C   UNK N   1      27.813  27.634  -7.299  0.00  0.00     0.044 A 
HETATM    2  C   UNK N   1      26.206  27.200  -5.536  0.00  0.00     0.044 A 
HETATM    3  C   UNK N   1      25.899  25.967  -6.131  0.00  0.00     0.262 A 
HETATM    4  C   UNK N   1      27.497  26.396  -7.875  0.00  0.00     0.262 A 
HETATM    5  O   UNK N   1      25.057  25.272  -5.603  0.00  0.00    -0.267 OA
HETATM    6  O   UNK N   1      28.071  26.054  -8.901  0.00  0.00    -0.267 OA
HETATM    7  C   UNK N   1      27.164  28.036  -6.125  0.00  0.00     0.005 A 
HETATM    8  C   UNK N   1      27.470  29.285  -5.537  0.00  0.00    -0.024 A 
HETATM    9  C   UNK N   1      26.820  29.683  -4.367  0.00  0.00     0.012 A 
HETATM   10  C   UNK N   1      25.868  28.847  -3.777  0.00  0.00     0.002 A 
HETATM   11  C   UNK N   1      25.560  27.614  -4.357  0.00  0.00     0.018 A 
HETATM   12  C   UNK N   1      28.768  28.482  -7.883  0.00  0.00     0.018 A 
HETATM   13  C   UNK N   1      29.068  29.718  -7.303  0.00  0.00     0.002 A 
HETATM   14  C   UNK N   1      28.420  30.118  -6.131  0.00  0.00     0.012 A 
HETATM   15  N   UNK N   1      26.544  25.562  -7.301  0.00  0.00    -0.270 N 
ENDROOT
BRANCH  15  16
HETATM   16  C   UNK N   1      26.313  24.290  -8.042  0.00  0.00     0.245 C 
BRANCH  16  17
HETATM   17  C   UNK N   1      25.124  23.932  -8.910  0.00  0.00     0.158 C 
HETATM   18  O   UNK N   1      24.393  23.039  -8.520  0.00  0.00    -0.649 OA
BRANCH  17  19
HETATM   19  O   UNK N   1      24.822  24.541 -10.066  0.00  0.00    -0.775 OA
HETATM   20  H   UNK N   1      25.215  24.249 -10.865  0.00  0.00     0.167 HD
ENDBRANCH  17  19
ENDBRANCH  16  17
ENDBRANCH  15  16
TORSDOF 3
ENDMDL
MODEL 8
REMARK VINA RESULT:      -6.6      1.477      3.462
REMARK  3 active torsions:
REMARK  status: ('A' for Active; 'I' for Inactive)
REMARK    1  A    between atoms: C_7  and  N_16 
REMARK    2  A    between atoms: C_7  and  C_17 
REMARK    3  A    between atoms: C_17  and  O_19 
ROOT
HETATM    1  C   UNK N   1      21.057  13.793   9.484  0.00  0.00     0.044 A 
HETATM    2  C   UNK N   1      22.833  14.235   7.894  0.00  0.00     0.044 A 
HETATM    3  C   UNK N   1      22.008  15.163   7.242  0.00  0.00     0.262 A 
HETATM    4  C   UNK N   1      20.249  14.729   8.823  0.00  0.00     0.262 A 
HETATM    5  O   UNK N   1      22.449  15.734   6.267  0.00  0.00    -0.267 OA
HETATM    6  O   UNK N   1      19.118  14.937   9.240  0.00  0.00    -0.267 OA
HETATM    7  C   UNK N   1      22.354  13.546   9.016  0.00  0.00     0.005 A 
HETATM    8  C   UNK N   1      23.176  12.601   9.671  0.00  0.00    -0.024 A 
HETATM    9  C   UNK N   1      24.468  12.357   9.202  0.00  0.00     0.012 A 
HETATM   10  C   UNK N   1      24.948  13.046   8.086  0.00  0.00     0.002 A 
HETATM   11  C   UNK N   1      24.137  13.979   7.434  0.00  0.00     0.018 A 
HETATM   12  C   UNK N   1      20.584  13.094  10.607  0.00  0.00     0.018 A 
HETATM   13  C   UNK N   1      21.397  12.157  11.252  0.00  0.00     0.002 A 
HETATM   14  C   UNK N   1      22.691  11.912  10.784  0.00  0.00     0.012 A 
HETATM   15  N   UNK N   1      20.714  15.413   7.706  0.00  0.00    -0.270 N 
ENDROOT
BRANCH  15  16
HETATM   16  C   UNK N   1      19.731  16.361   7.111  0.00  0.00     0.245 C 
BRANCH  16  17
HETATM   17  C   UNK N   1      18.882  16.151   5.873  0.00  0.00     0.158 C 
HETATM   18  O   UNK N   1      19.433  16.251   4.791  0.00  0.00    -0.649 OA
BRANCH  17  19
HETATM   19  O   UNK N   1      17.575  15.854   5.895  0.00  0.00    -0.775 OA
HETATM   20  H   UNK N   1      16.953  16.497   6.174  0.00  0.00     0.167 HD
ENDBRANCH  17  19
ENDBRANCH  16  17
ENDBRANCH  15  16
TORSDOF 3
ENDMDL
MODEL 9
REMARK VINA RESULT:      -6.3     14.350     16.262
REMARK  3 active torsions:
REMARK  status: ('A' for Active; 'I' for Inactive)
REMARK    1  A    between atoms: C_7  and  N_16 
REMARK    2  A    between atoms: C_7  and  C_17 
REMARK    3  A    between atoms: C_17  and  O_19 
ROOT
HETATM    1  C   UNK N   1      35.210  10.038  16.379  0.00  0.00     0.044 A 
HETATM    2  C   UNK N   1      35.177  12.455  16.566  0.00  0.00     0.044 A 
HETATM    3  C   UNK N   1      35.138  12.556  15.167  0.00  0.00     0.262 A 
HETATM    4  C   UNK N   1      35.165  10.158  14.983  0.00  0.00     0.262 A 
HETATM    5  O   UNK N   1      35.117  13.663  14.674  0.00  0.00    -0.267 OA
HETATM    6  O   UNK N   1      35.159   9.143  14.299  0.00  0.00    -0.267 OA
HETATM    7  C   UNK N   1      35.215  11.193  17.172  0.00  0.00     0.005 A 
HETATM    8  C   UNK N   1      35.265  11.085  18.581  0.00  0.00    -0.024 A 
HETATM    9  C   UNK N   1      35.272  12.238  19.368  0.00  0.00     0.012 A 
HETATM   10  C   UNK N   1      35.229  13.497  18.765  0.00  0.00     0.002 A 
HETATM   11  C   UNK N   1      35.183  13.608  17.373  0.00  0.00     0.018 A 
HETATM   12  C   UNK N   1      35.253   8.778  16.996  0.00  0.00     0.018 A 
HETATM   13  C   UNK N   1      35.306   8.673  18.390  0.00  0.00     0.002 A 
HETATM   14  C   UNK N   1      35.311   9.825  19.180  0.00  0.00     0.012 A 
HETATM   15  N   UNK N   1      35.131  11.407  14.373  0.00  0.00    -0.270 N 
ENDROOT
BRANCH  15  16
HETATM   16  C   UNK N   1      35.101  11.363  12.884  0.00  0.00     0.245 C 
BRANCH  16  17
HETATM   17  C   UNK N   1      35.076  12.539  11.928  0.00  0.00     0.158 C 
HETATM   18  O   UNK N   1      35.848  12.513  10.986  0.00  0.00    -0.649 OA
BRANCH  17  19
HETATM   19  O   UNK N   1      34.256  13.593  12.048  0.00  0.00    -0.775 OA
HETATM   20  H   UNK N   1      34.371  14.198  12.754  0.00  0.00     0.167 HD
ENDBRANCH  17  19
ENDBRANCH  16  17
ENDBRANCH  15  16
TORSDOF 3
ENDMDL
