REMARK  3 active torsions:
REMARK  status: ('A' for Active; 'I' for Inactive)
REMARK    1  A    between atoms: C_7  and  N_16 
REMARK    2  A    between atoms: C_7  and  C_17 
REMARK    3  A    between atoms: C_17  and  O_19 
ROOT
HETATM    1  C   UNK N   1      -0.451  -1.442   0.083  0.00  0.00     0.044 A 
HETATM    2  C   UNK N   1       0.887   0.579   0.012  0.00  0.00     0.044 A 
HETATM    3  C   UNK N   1      -0.287   1.347   0.006  0.00  0.00     0.262 A 
HETATM    4  C   UNK N   1      -1.613  -0.658   0.082  0.00  0.00     0.262 A 
HETATM    5  O   UNK N   1      -0.180   2.554  -0.037  0.00  0.00    -0.267 OA
HETATM    6  O   UNK N   1      -2.704  -1.212   0.114  0.00  0.00    -0.267 OA
HETATM    7  C   UNK N   1       0.803  -0.819   0.048  0.00  0.00     0.005 A 
HETATM    8  C   UNK N   1       1.982  -1.599   0.043  0.00  0.00    -0.024 A 
HETATM    9  C   UNK N   1       3.231  -0.975   0.007  0.00  0.00     0.012 A 
HETATM   10  C   UNK N   1       3.315   0.419  -0.024  0.00  0.00     0.002 A 
HETATM   11  C   UNK N   1       2.152   1.193  -0.023  0.00  0.00     0.018 A 
HETATM   12  C   UNK N   1      -0.524  -2.844   0.114  0.00  0.00     0.018 A 
HETATM   13  C   UNK N   1       0.643  -3.614   0.106  0.00  0.00     0.002 A 
HETATM   14  C   UNK N   1       1.894  -2.992   0.071  0.00  0.00     0.012 A 
HETATM   15  N   UNK N   1      -1.540   0.730   0.042  0.00  0.00    -0.270 N 
ENDROOT
BRANCH  15  16
HETATM   16  C   UNK N   1      -2.862   1.416   0.032  0.00  0.00     0.245 C 
BRANCH  16  17
HETATM   17  C   UNK N   1      -3.126   2.908   0.026  0.00  0.00     0.158 C 
HETATM   18  O   UNK N   1      -4.288   3.273   0.006  0.00  0.00    -0.649 OA
BRANCH  17  19
HETATM   19  O   UNK N   1      -2.167   3.845   0.053  0.00  0.00    -0.775 OA
HETATM   20  H   UNK N   1      -1.265   3.591   0.072  0.00  0.00     0.167 HD
ENDBRANCH  17  19
ENDBRANCH  16  17
ENDBRANCH  15  16
TORSDOF 3
