REMARK  6 active torsions:
REMARK  status: ('A' for Active; 'I' for Inactive)
REMARK       I    between atoms: C_2  and  N_11 
REMARK    1  A    between atoms: C_4  and  C_5 
REMARK    2  A    between atoms: C_4  and  C_12 
REMARK    3  A    between atoms: C_5  and  S_6 
REMARK    4  A    between atoms: C_8  and  O_10 
REMARK    5  A    between atoms: C_8  and  C_12 
REMARK    6  A    between atoms: C_12  and  N_11 
ROOT
HETATM    1  C   UNK N   1       0.036   0.001   0.154  0.00  0.00     0.183 C 
ENDROOT
BRANCH   1   2
HETATM    2  C   UNK N   1       1.309  -0.737  -0.268  0.00  0.00     0.046 C 
BRANCH   2   3
HETATM    3  C   UNK N   1       2.567  -0.028   0.210  0.00  0.00     0.076 C 
BRANCH   3   4
HETATM    4  S   UNK N   1       4.016  -1.086  -0.040  0.00  0.00    -0.173 SA
HETATM    5  C   UNK N   1       5.147   0.323   0.122  0.00  0.00     0.089 C 
ENDBRANCH   3   4
ENDBRANCH   2   3
ENDBRANCH   1   2
BRANCH   1   6
HETATM    6  C   UNK N   1      -0.041   1.356  -0.523  0.00  0.00     0.163 C 
HETATM    7  O   UNK N   1      -0.951   1.618  -1.295  0.00  0.00    -0.648 OA
BRANCH   6   8
HETATM    8  O   UNK N   1       0.894   2.290  -0.266  0.00  0.00    -0.775 OA
HETATM    9  H   UNK N   1       1.782   2.051  -0.087  0.00  0.00     0.167 HD
ENDBRANCH   6   8
ENDBRANCH   1   6
BRANCH   1  10
HETATM   10  N   UNK N   1      -1.102  -0.836  -0.183  0.00  0.00    -0.347 N 
HETATM   11  C   UNK N   1      -2.382  -0.534   0.165  0.00  0.00     0.214 C 
HETATM   12  C   UNK N   1      -3.485  -1.454  -0.229  0.00  0.00     0.117 C 
HETATM   13  O   UNK N   1      -2.639   0.477   0.798  0.00  0.00    -0.274 OA
HETATM   14  H   UNK N   1      -0.939  -1.663  -0.691  0.00  0.00     0.163 HD
ENDBRANCH   1  10
TORSDOF 6
