MODEL 1
REMARK VINA RESULT:      -4.6      0.000      0.000
REMARK  6 active torsions:
REMARK  status: ('A' for Active; 'I' for Inactive)
REMARK       I    between atoms: C_2  and  N_11 
REMARK    1  A    between atoms: C_4  and  C_5 
REMARK    2  A    between atoms: C_4  and  C_12 
REMARK    3  A    between atoms: C_5  and  S_6 
REMARK    4  A    between atoms: C_8  and  O_10 
REMARK    5  A    between atoms: C_8  and  C_12 
REMARK    6  A    between atoms: C_12  and  N_11 
ROOT
HETATM    1  C   UNK N   1      33.567  17.159   8.569  0.00  0.00     0.183 C 
ENDROOT
BRANCH   1   2
HETATM    2  C   UNK N   1      32.130  17.660   8.733  0.00  0.00     0.046 C 
BRANCH   2   3
HETATM    3  C   UNK N   1      31.226  17.184   7.606  0.00  0.00     0.076 C 
BRANCH   3   4
HETATM    4  S   UNK N   1      29.493  17.534   8.003  0.00  0.00    -0.173 SA
HETATM    5  C   UNK N   1      29.965  18.629   9.369  0.00  0.00     0.089 C 
ENDBRANCH   3   4
ENDBRANCH   2   3
ENDBRANCH   1   2
BRANCH   1   6
HETATM    6  C   UNK N   1      34.379  18.138   7.743  0.00  0.00     0.163 C 
HETATM    7  O   UNK N   1      34.991  19.051   8.278  0.00  0.00    -0.648 OA
BRANCH   6   8
HETATM    8  O   UNK N   1      34.441  17.999   6.405  0.00  0.00    -0.775 OA
HETATM    9  H   UNK N   1      34.964  18.574   5.881  0.00  0.00     0.167 HD
ENDBRANCH   6   8
ENDBRANCH   1   6
BRANCH   1  10
HETATM   10  N   UNK N   1      34.132  16.973   9.894  0.00  0.00    -0.347 N 
HETATM   11  C   UNK N   1      35.051  16.013  10.187  0.00  0.00     0.214 C 
HETATM   12  C   UNK N   1      35.575  15.901  11.576  0.00  0.00     0.117 C 
HETATM   13  O   UNK N   1      35.448  15.241   9.330  0.00  0.00    -0.274 OA
HETATM   14  H   UNK N   1      33.837  17.573  10.616  0.00  0.00     0.163 HD
ENDBRANCH   1  10
TORSDOF 6
ENDMDL
MODEL 2
REMARK VINA RESULT:      -4.5      2.731      4.745
REMARK  6 active torsions:
REMARK  status: ('A' for Active; 'I' for Inactive)
REMARK       I    between atoms: C_2  and  N_11 
REMARK    1  A    between atoms: C_4  and  C_5 
REMARK    2  A    between atoms: C_4  and  C_12 
REMARK    3  A    between atoms: C_5  and  S_6 
REMARK    4  A    between atoms: C_8  and  O_10 
REMARK    5  A    between atoms: C_8  and  C_12 
REMARK    6  A    between atoms: C_12  and  N_11 
ROOT
HETATM    1  C   UNK N   1      33.703  17.414   8.913  0.00  0.00     0.183 C 
ENDROOT
BRANCH   1   2
HETATM    2  C   UNK N   1      34.526  16.240   9.452  0.00  0.00     0.046 C 
BRANCH   2   3
HETATM    3  C   UNK N   1      35.287  16.607  10.716  0.00  0.00     0.076 C 
BRANCH   3   4
HETATM    4  S   UNK N   1      35.867  15.110  11.556  0.00  0.00    -0.173 SA
HETATM    5  C   UNK N   1      36.921  14.658  10.150  0.00  0.00     0.089 C 
ENDBRANCH   3   4
ENDBRANCH   2   3
ENDBRANCH   1   2
BRANCH   1   6
HETATM    6  C   UNK N   1      34.555  18.291   8.017  0.00  0.00     0.163 C 
HETATM    7  O   UNK N   1      34.553  18.136   6.805  0.00  0.00    -0.648 OA
BRANCH   6   8
HETATM    8  O   UNK N   1      35.317  19.263   8.554  0.00  0.00    -0.775 OA
HETATM    9  H   UNK N   1      35.112  19.633   9.390  0.00  0.00     0.167 HD
ENDBRANCH   6   8
ENDBRANCH   1   6
BRANCH   1  10
HETATM   10  N   UNK N   1      32.556  16.872   8.206  0.00  0.00    -0.347 N 
HETATM   11  C   UNK N   1      31.322  17.445   8.233  0.00  0.00     0.214 C 
HETATM   12  C   UNK N   1      30.207  16.817   7.472  0.00  0.00     0.117 C 
HETATM   13  O   UNK N   1      31.116  18.463   8.873  0.00  0.00    -0.274 OA
HETATM   14  H   UNK N   1      32.678  16.050   7.679  0.00  0.00     0.163 HD
ENDBRANCH   1  10
TORSDOF 6
ENDMDL
MODEL 3
REMARK VINA RESULT:      -4.5      1.212      1.992
REMARK  6 active torsions:
REMARK  status: ('A' for Active; 'I' for Inactive)
REMARK       I    between atoms: C_2  and  N_11 
REMARK    1  A    between atoms: C_4  and  C_5 
REMARK    2  A    between atoms: C_4  and  C_12 
REMARK    3  A    between atoms: C_5  and  S_6 
REMARK    4  A    between atoms: C_8  and  O_10 
REMARK    5  A    between atoms: C_8  and  C_12 
REMARK    6  A    between atoms: C_12  and  N_11 
ROOT
HETATM    1  C   UNK N   1      33.547  17.145   8.521  0.00  0.00     0.183 C 
ENDROOT
BRANCH   1   2
HETATM    2  C   UNK N   1      32.101  17.632   8.652  0.00  0.00     0.046 C 
BRANCH   2   3
HETATM    3  C   UNK N   1      31.216  17.109   7.532  0.00  0.00     0.076 C 
BRANCH   3   4
HETATM    4  S   UNK N   1      31.717  15.430   7.070  0.00  0.00    -0.173 SA
HETATM    5  C   UNK N   1      31.833  15.883   5.317  0.00  0.00     0.089 C 
ENDBRANCH   3   4
ENDBRANCH   2   3
ENDBRANCH   1   2
BRANCH   1   6
HETATM    6  C   UNK N   1      34.368  18.132   7.715  0.00  0.00     0.163 C 
HETATM    7  O   UNK N   1      34.445  18.036   6.499  0.00  0.00    -0.648 OA
BRANCH   6   8
HETATM    8  O   UNK N   1      35.014  19.136   8.338  0.00  0.00    -0.775 OA
HETATM    9  H   UNK N   1      34.584  19.662   8.983  0.00  0.00     0.167 HD
ENDBRANCH   6   8
ENDBRANCH   1   6
BRANCH   1  10
HETATM   10  N   UNK N   1      34.083  16.961   9.858  0.00  0.00    -0.347 N 
HETATM   11  C   UNK N   1      35.058  16.060  10.155  0.00  0.00     0.214 C 
HETATM   12  C   UNK N   1      35.547  15.946  11.557  0.00  0.00     0.117 C 
HETATM   13  O   UNK N   1      35.536  15.343   9.291  0.00  0.00    -0.274 OA
HETATM   14  H   UNK N   1      33.724  17.518  10.585  0.00  0.00     0.163 HD
ENDBRANCH   1  10
TORSDOF 6
ENDMDL
MODEL 4
REMARK VINA RESULT:      -4.3     11.723     13.497
REMARK  6 active torsions:
REMARK  status: ('A' for Active; 'I' for Inactive)
REMARK       I    between atoms: C_2  and  N_11 
REMARK    1  A    between atoms: C_4  and  C_5 
REMARK    2  A    between atoms: C_4  and  C_12 
REMARK    3  A    between atoms: C_5  and  S_6 
REMARK    4  A    between atoms: C_8  and  O_10 
REMARK    5  A    between atoms: C_8  and  C_12 
REMARK    6  A    between atoms: C_12  and  N_11 
ROOT
HETATM    1  C   UNK N   1      21.838  19.437   2.815  0.00  0.00     0.183 C 
ENDROOT
BRANCH   1   2
HETATM    2  C   UNK N   1      21.064  18.213   3.313  0.00  0.00     0.046 C 
BRANCH   2   3
HETATM    3  C   UNK N   1      20.334  17.500   2.186  0.00  0.00     0.076 C 
BRANCH   3   4
HETATM    4  S   UNK N   1      20.918  15.791   2.043  0.00  0.00    -0.173 SA
HETATM    5  C   UNK N   1      19.698  15.419   0.753  0.00  0.00     0.089 C 
ENDBRANCH   3   4
ENDBRANCH   2   3
ENDBRANCH   1   2
BRANCH   1   6
HETATM    6  C   UNK N   1      20.988  20.687   2.936  0.00  0.00     0.163 C 
HETATM    7  O   UNK N   1      20.176  20.806   3.841  0.00  0.00    -0.648 OA
BRANCH   6   8
HETATM    8  O   UNK N   1      21.134  21.688   2.047  0.00  0.00    -0.775 OA
HETATM    9  H   UNK N   1      21.345  22.557   2.325  0.00  0.00     0.167 HD
ENDBRANCH   6   8
ENDBRANCH   1   6
BRANCH   1  10
HETATM   10  N   UNK N   1      23.063  19.540   3.588  0.00  0.00    -0.347 N 
HETATM   11  C   UNK N   1      24.144  20.261   3.185  0.00  0.00     0.214 C 
HETATM   12  C   UNK N   1      25.356  20.309   4.049  0.00  0.00     0.117 C 
HETATM   13  O   UNK N   1      24.136  20.865   2.125  0.00  0.00    -0.274 OA
HETATM   14  H   UNK N   1      23.113  19.065   4.449  0.00  0.00     0.163 HD
ENDBRANCH   1  10
TORSDOF 6
ENDMDL
MODEL 5
REMARK VINA RESULT:      -4.3      2.746      4.400
REMARK  6 active torsions:
REMARK  status: ('A' for Active; 'I' for Inactive)
REMARK       I    between atoms: C_2  and  N_11 
REMARK    1  A    between atoms: C_4  and  C_5 
REMARK    2  A    between atoms: C_4  and  C_12 
REMARK    3  A    between atoms: C_5  and  S_6 
REMARK    4  A    between atoms: C_8  and  O_10 
REMARK    5  A    between atoms: C_8  and  C_12 
REMARK    6  A    between atoms: C_12  and  N_11 
ROOT
HETATM    1  C   UNK N   1      33.563  17.432   8.839  0.00  0.00     0.183 C 
ENDROOT
BRANCH   1   2
HETATM    2  C   UNK N   1      34.315  16.223   9.402  0.00  0.00     0.046 C 
BRANCH   2   3
HETATM    3  C   UNK N   1      34.035  14.955   8.609  0.00  0.00     0.076 C 
BRANCH   3   4
HETATM    4  S   UNK N   1      35.506  14.464   7.673  0.00  0.00    -0.173 SA
HETATM    5  C   UNK N   1      34.654  14.711   6.090  0.00  0.00     0.089 C 
ENDBRANCH   3   4
ENDBRANCH   2   3
ENDBRANCH   1   2
BRANCH   1   6
HETATM    6  C   UNK N   1      34.483  18.274   7.976  0.00  0.00     0.163 C 
HETATM    7  O   UNK N   1      34.503  18.133   6.763  0.00  0.00    -0.648 OA
BRANCH   6   8
HETATM    8  O   UNK N   1      35.280  19.197   8.545  0.00  0.00    -0.775 OA
HETATM    9  H   UNK N   1      35.088  20.112   8.478  0.00  0.00     0.167 HD
ENDBRANCH   6   8
ENDBRANCH   1   6
BRANCH   1  10
HETATM   10  N   UNK N   1      32.419  16.942   8.091  0.00  0.00    -0.347 N 
HETATM   11  C   UNK N   1      31.177  17.491   8.177  0.00  0.00     0.214 C 
HETATM   12  C   UNK N   1      30.066  16.920   7.367  0.00  0.00     0.117 C 
HETATM   13  O   UNK N   1      30.961  18.441   8.911  0.00  0.00    -0.274 OA
HETATM   14  H   UNK N   1      32.549  16.174   7.489  0.00  0.00     0.163 HD
ENDBRANCH   1  10
TORSDOF 6
ENDMDL
MODEL 6
REMARK VINA RESULT:      -4.2      2.580      3.845
REMARK  6 active torsions:
REMARK  status: ('A' for Active; 'I' for Inactive)
REMARK       I    between atoms: C_2  and  N_11 
REMARK    1  A    between atoms: C_4  and  C_5 
REMARK    2  A    between atoms: C_4  and  C_12 
REMARK    3  A    between atoms: C_5  and  S_6 
REMARK    4  A    between atoms: C_8  and  O_10 
REMARK    5  A    between atoms: C_8  and  C_12 
REMARK    6  A    between atoms: C_12  and  N_11 
ROOT
HETATM    1  C   UNK N   1      33.633  17.498   8.010  0.00  0.00     0.183 C 
ENDROOT
BRANCH   1   2
HETATM    2  C   UNK N   1      33.876  17.557   6.499  0.00  0.00     0.046 C 
BRANCH   2   3
HETATM    3  C   UNK N   1      33.547  16.239   5.815  0.00  0.00     0.076 C 
BRANCH   3   4
HETATM    4  S   UNK N   1      32.963  16.539   4.126  0.00  0.00    -0.173 SA
HETATM    5  C   UNK N   1      31.456  17.349   4.727  0.00  0.00     0.089 C 
ENDBRANCH   3   4
ENDBRANCH   2   3
ENDBRANCH   1   2
BRANCH   1   6
HETATM    6  C   UNK N   1      34.804  18.103   8.760  0.00  0.00     0.163 C 
HETATM    7  O   UNK N   1      35.263  19.187   8.433  0.00  0.00    -0.648 OA
BRANCH   6   8
HETATM    8  O   UNK N   1      35.342  17.448   9.806  0.00  0.00    -0.775 OA
HETATM    9  H   UNK N   1      35.234  16.523   9.907  0.00  0.00     0.167 HD
ENDBRANCH   6   8
ENDBRANCH   1   6
BRANCH   1  10
HETATM   10  N   UNK N   1      32.392  18.198   8.293  0.00  0.00    -0.347 N 
HETATM   11  C   UNK N   1      31.217  17.562   8.550  0.00  0.00     0.214 C 
HETATM   12  C   UNK N   1      29.995  18.366   8.833  0.00  0.00     0.117 C 
HETATM   13  O   UNK N   1      31.148  16.344   8.548  0.00  0.00    -0.274 OA
HETATM   14  H   UNK N   1      32.402  19.182   8.301  0.00  0.00     0.163 HD
ENDBRANCH   1  10
TORSDOF 6
ENDMDL
MODEL 7
REMARK VINA RESULT:      -4.1      1.939      3.294
REMARK  6 active torsions:
REMARK  status: ('A' for Active; 'I' for Inactive)
REMARK       I    between atoms: C_2  and  N_11 
REMARK    1  A    between atoms: C_4  and  C_5 
REMARK    2  A    between atoms: C_4  and  C_12 
REMARK    3  A    between atoms: C_5  and  S_6 
REMARK    4  A    between atoms: C_8  and  O_10 
REMARK    5  A    between atoms: C_8  and  C_12 
REMARK    6  A    between atoms: C_12  and  N_11 
ROOT
HETATM    1  C   UNK N   1      33.189  17.853   7.643  0.00  0.00     0.183 C 
ENDROOT
BRANCH   1   2
HETATM    2  C   UNK N   1      31.929  17.542   8.455  0.00  0.00     0.046 C 
BRANCH   2   3
HETATM    3  C   UNK N   1      30.719  17.303   7.565  0.00  0.00     0.076 C 
BRANCH   3   4
HETATM    4  S   UNK N   1      29.191  17.488   8.520  0.00  0.00    -0.173 SA
HETATM    5  C   UNK N   1      29.923  18.790   9.550  0.00  0.00     0.089 C 
ENDBRANCH   3   4
ENDBRANCH   2   3
ENDBRANCH   1   2
BRANCH   1   6
HETATM    6  C   UNK N   1      34.356  18.146   8.566  0.00  0.00     0.163 C 
HETATM    7  O   UNK N   1      34.599  17.417   9.517  0.00  0.00    -0.648 OA
BRANCH   6   8
HETATM    8  O   UNK N   1      35.145  19.212   8.335  0.00  0.00    -0.775 OA
HETATM    9  H   UNK N   1      35.549  19.678   9.040  0.00  0.00     0.167 HD
ENDBRANCH   6   8
ENDBRANCH   1   6
BRANCH   1  10
HETATM   10  N   UNK N   1      33.457  16.719   6.777  0.00  0.00    -0.347 N 
HETATM   11  C   UNK N   1      33.637  16.830   5.433  0.00  0.00     0.214 C 
HETATM   12  C   UNK N   1      33.911  15.608   4.627  0.00  0.00     0.117 C 
HETATM   13  O   UNK N   1      33.573  17.915   4.878  0.00  0.00    -0.274 OA
HETATM   14  H   UNK N   1      33.514  15.824   7.183  0.00  0.00     0.163 HD
ENDBRANCH   1  10
TORSDOF 6
ENDMDL
MODEL 8
REMARK VINA RESULT:      -4.1     13.911     15.415
REMARK  6 active torsions:
REMARK  status: ('A' for Active; 'I' for Inactive)
REMARK       I    between atoms: C_2  and  N_11 
REMARK    1  A    between atoms: C_4  and  C_5 
REMARK    2  A    between atoms: C_4  and  C_12 
REMARK    3  A    between atoms: C_5  and  S_6 
REMARK    4  A    between atoms: C_8  and  O_10 
REMARK    5  A    between atoms: C_8  and  C_12 
REMARK    6  A    between atoms: C_12  and  N_11 
ROOT
HETATM    1  C   UNK N   1      29.309  23.185  -3.753  0.00  0.00     0.183 C 
ENDROOT
BRANCH   1   2
HETATM    2  C   UNK N   1      30.038  22.663  -4.994  0.00  0.00     0.046 C 
BRANCH   2   3
HETATM    3  C   UNK N   1      30.354  21.179  -4.891  0.00  0.00     0.076 C 
BRANCH   3   4
HETATM    4  S   UNK N   1      30.382  20.428  -6.539  0.00  0.00    -0.173 SA
HETATM    5  C   UNK N   1      29.031  21.495  -7.113  0.00  0.00     0.089 C 
ENDBRANCH   3   4
ENDBRANCH   2   3
ENDBRANCH   1   2
BRANCH   1   6
HETATM    6  C   UNK N   1      30.302  23.715  -2.737  0.00  0.00     0.163 C 
HETATM    7  O   UNK N   1      30.842  24.799  -2.898  0.00  0.00    -0.648 OA
BRANCH   6   8
HETATM    8  O   UNK N   1      30.589  22.994  -1.637  0.00  0.00    -0.775 OA
HETATM    9  H   UNK N   1      31.343  22.438  -1.604  0.00  0.00     0.167 HD
ENDBRANCH   6   8
ENDBRANCH   1   6
BRANCH   1  10
HETATM   10  N   UNK N   1      28.373  24.211  -4.179  0.00  0.00    -0.347 N 
HETATM   11  C   UNK N   1      27.209  24.479  -3.527  0.00  0.00     0.214 C 
HETATM   12  C   UNK N   1      26.314  25.554  -4.039  0.00  0.00     0.117 C 
HETATM   13  O   UNK N   1      26.887  23.850  -2.533  0.00  0.00    -0.274 OA
HETATM   14  H   UNK N   1      28.593  24.740  -4.979  0.00  0.00     0.163 HD
ENDBRANCH   1  10
TORSDOF 6
ENDMDL
MODEL 9
REMARK VINA RESULT:      -4.0      2.680      3.663
REMARK  6 active torsions:
REMARK  status: ('A' for Active; 'I' for Inactive)
REMARK       I    between atoms: C_2  and  N_11 
REMARK    1  A    between atoms: C_4  and  C_5 
REMARK    2  A    between atoms: C_4  and  C_12 
REMARK    3  A    between atoms: C_5  and  S_6 
REMARK    4  A    between atoms: C_8  and  O_10 
REMARK    5  A    between atoms: C_8  and  C_12 
REMARK    6  A    between atoms: C_12  and  N_11 
ROOT
HETATM    1  C   UNK N   1      34.920  14.942  10.235  0.00  0.00     0.183 C 
ENDROOT
BRANCH   1   2
HETATM    2  C   UNK N   1      33.658  15.389   9.492  0.00  0.00     0.046 C 
BRANCH   2   3
HETATM    3  C   UNK N   1      33.856  15.399   7.983  0.00  0.00     0.076 C 
BRANCH   3   4
HETATM    4  S   UNK N   1      34.004  17.102   7.383  0.00  0.00    -0.173 SA
HETATM    5  C   UNK N   1      32.593  17.642   8.387  0.00  0.00     0.089 C 
ENDBRANCH   3   4
ENDBRANCH   2   3
ENDBRANCH   1   2
BRANCH   1   6
HETATM    6  C   UNK N   1      35.733  16.145  10.671  0.00  0.00     0.163 C 
HETATM    7  O   UNK N   1      35.207  17.239  10.807  0.00  0.00    -0.648 OA
BRANCH   6   8
HETATM    8  O   UNK N   1      37.049  16.011  10.925  0.00  0.00    -0.775 OA
HETATM    9  H   UNK N   1      37.653  15.786  10.245  0.00  0.00     0.167 HD
ENDBRANCH   6   8
ENDBRANCH   1   6
BRANCH   1  10
HETATM   10  N   UNK N   1      34.512  14.127  11.366  0.00  0.00    -0.347 N 
HETATM   11  C   UNK N   1      35.256  13.100  11.856  0.00  0.00     0.214 C 
HETATM   12  C   UNK N   1      34.755  12.323  13.023  0.00  0.00     0.117 C 
HETATM   13  O   UNK N   1      36.327  12.804  11.351  0.00  0.00    -0.274 OA
HETATM   14  H   UNK N   1      33.653  14.331  11.801  0.00  0.00     0.163 HD
ENDBRANCH   1  10
TORSDOF 6
ENDMDL
