MODEL 1
REMARK VINA RESULT:      -7.8      0.000      0.000
REMARK  11 active torsions:
REMARK  status: ('A' for Active; 'I' for Inactive)
REMARK    1  A    between atoms: C_2  and  N_1 
REMARK       I    between atoms: N_1  and  C_18 
REMARK    2  A    between atoms: C_2  and  C_3 
REMARK    3  A    between atoms: C_2  and  C_4 
REMARK    4  A    between atoms: C_3  and  C_8 
REMARK    5  A    between atoms: C_4  and  O_6 
REMARK    6  A    between atoms: C_12  and  C_14 
REMARK    7  A    between atoms: C_14  and  N_15 
REMARK    8  A    between atoms: C_18  and  C_19 
REMARK    9  A    between atoms: C_19  and  N_20 
REMARK   10  A    between atoms: N_20  and  S_29 
REMARK   11  A    between atoms: C_26  and  S_29 
ROOT
HETATM    1  C   UNK N   1      20.105  15.739   8.174  0.00  0.00     0.188 C 
ENDROOT
BRANCH   1   2
HETATM    2  N   UNK N   1      21.489  15.857   7.755  0.00  0.00    -0.346 N 
HETATM    3  C   UNK N   1      21.979  16.102   6.508  0.00  0.00     0.236 C 
HETATM    4  O   UNK N   1      23.174  15.978   6.314  0.00  0.00    -0.272 OA
HETATM    5  H   UNK N   1      22.162  15.745   8.464  0.00  0.00     0.163 HD
BRANCH   3   6
HETATM    6  C   UNK N   1      21.130  16.572   5.360  0.00  0.00     0.235 C 
BRANCH   6   7
HETATM    7  N   UNK N   1      20.813  18.003   5.433  0.00  0.00    -0.307 N 
HETATM    8  H   UNK N   1      20.279  18.422   6.195  0.00  0.00     0.172 HD
BRANCH   7   9
HETATM    9  S   UNK N   1      21.455  18.938   4.055  0.00  0.00     0.259 S 
HETATM   10  O   UNK N   1      20.906  18.217   2.815  0.00  0.00    -0.201 OA
HETATM   11  O   UNK N   1      20.615  20.224   4.015  0.00  0.00    -0.201 OA
BRANCH   9  12
HETATM   12  C   UNK N   1      23.198  19.298   3.845  0.00  0.00     0.079 A 
HETATM   13  C   UNK N   1      23.612  20.319   2.984  0.00  0.00     0.026 A 
HETATM   14  C   UNK N   1      24.969  20.646   2.888  0.00  0.00     0.008 A 
HETATM   15  C   UNK N   1      25.913  19.958   3.661  0.00  0.00    -0.062 A 
HETATM   16  C   UNK N   1      27.352  20.320   3.576  0.00  0.00     0.048 C 
HETATM   17  C   UNK N   1      25.500  18.937   4.520  0.00  0.00     0.008 A 
HETATM   18  C   UNK N   1      24.144  18.610   4.615  0.00  0.00     0.026 A 
ENDBRANCH   9  12
ENDBRANCH   7   9
ENDBRANCH   6   7
ENDBRANCH   3   6
ENDBRANCH   1   2
BRANCH   1  19
HETATM   19  C   UNK N   1      20.069  14.654   9.251  0.00  0.00     0.074 C 
BRANCH  19  20
HETATM   20  C   UNK N   1      21.121  13.600   9.126  0.00  0.00    -0.055 A 
HETATM   21  C   UNK N   1      21.231  12.811   7.975  0.00  0.00     0.007 A 
HETATM   22  C   UNK N   1      22.222  11.829   7.893  0.00  0.00     0.002 A 
HETATM   23  C   UNK N   1      23.094  11.624   8.966  0.00  0.00     0.015 A 
HETATM   24  C   UNK N   1      22.979  12.397  10.130  0.00  0.00     0.007 A 
HETATM   25  C   UNK N   1      21.989  13.387  10.199  0.00  0.00     0.022 A 
BRANCH  24  26
HETATM   26  C   UNK N   1      23.887  12.165  11.273  0.00  0.00     0.102 C 
HETATM   27  N   UNK N   1      25.148  12.024  11.084  0.00  0.00    -0.385 N 
HETATM   28  H   UNK N   1      25.501  11.942  10.168  0.00  0.00     0.157 HD
ATOM     29  HN  UNK N   1      25.784  11.994  11.880  1.00  0.00     0.157 HD
BRANCH  26  30
HETATM   30  N   UNK N   1      23.375  12.113  12.589  0.00  0.00    -0.385 N 
HETATM   31  H   UNK N   1      23.746  12.692  13.294  0.00  0.00     0.157 HD
HETATM   32  H   UNK N   1      22.641  11.492  12.805  0.00  0.00     0.157 HD
ENDBRANCH  26  30
ENDBRANCH  24  26
ENDBRANCH  19  20
ENDBRANCH   1  19
BRANCH   1  33
HETATM   33  C   UNK N   1      19.526  17.011   8.742  0.00  0.00     0.281 C 
HETATM   34  O   UNK N   1      20.102  18.073   8.549  0.00  0.00    -0.263 OA
BRANCH  33  35
HETATM   35  O   UNK N   1      18.356  16.977   9.427  0.00  0.00    -0.325 OA
HETATM   36  C   UNK N   1      17.138  17.138   8.806  0.00  0.00     0.213 C 
ENDBRANCH  33  35
ENDBRANCH   1  33
TORSDOF 11
ENDMDL
MODEL 2
REMARK VINA RESULT:      -7.7     15.195     17.749
REMARK  11 active torsions:
REMARK  status: ('A' for Active; 'I' for Inactive)
REMARK    1  A    between atoms: C_2  and  N_1 
REMARK       I    between atoms: N_1  and  C_18 
REMARK    2  A    between atoms: C_2  and  C_3 
REMARK    3  A    between atoms: C_2  and  C_4 
REMARK    4  A    between atoms: C_3  and  C_8 
REMARK    5  A    between atoms: C_4  and  O_6 
REMARK    6  A    between atoms: C_12  and  C_14 
REMARK    7  A    between atoms: C_14  and  N_15 
REMARK    8  A    between atoms: C_18  and  C_19 
REMARK    9  A    between atoms: C_19  and  N_20 
REMARK   10  A    between atoms: N_20  and  S_29 
REMARK   11  A    between atoms: C_26  and  S_29 
ROOT
HETATM    1  C   UNK N   1      26.408  24.389  -6.958  0.00  0.00     0.188 C 
ENDROOT
BRANCH   1   2
HETATM    2  N   UNK N   1      27.827  24.114  -7.083  0.00  0.00    -0.346 N 
HETATM    3  C   UNK N   1      28.795  24.205  -6.128  0.00  0.00     0.236 C 
HETATM    4  O   UNK N   1      29.961  24.116  -6.468  0.00  0.00    -0.272 OA
HETATM    5  H   UNK N   1      28.130  23.824  -7.973  0.00  0.00     0.163 HD
BRANCH   3   6
HETATM    6  C   UNK N   1      28.503  24.357  -4.662  0.00  0.00     0.235 C 
BRANCH   6   7
HETATM    7  N   UNK N   1      28.912  23.188  -3.874  0.00  0.00    -0.307 N 
HETATM    8  H   UNK N   1      28.353  22.338  -3.800  0.00  0.00     0.172 HD
BRANCH   7   9
HETATM    9  S   UNK N   1      30.486  23.403  -3.060  0.00  0.00     0.259 S 
HETATM   10  O   UNK N   1      30.710  24.922  -3.057  0.00  0.00    -0.201 OA
HETATM   11  O   UNK N   1      30.203  23.167  -1.569  0.00  0.00    -0.201 OA
BRANCH   9  12
HETATM   12  C   UNK N   1      31.978  22.553  -3.577  0.00  0.00     0.079 A 
HETATM   13  C   UNK N   1      32.739  23.045  -4.641  0.00  0.00     0.026 A 
HETATM   14  C   UNK N   1      33.944  22.421  -4.985  0.00  0.00     0.008 A 
HETATM   15  C   UNK N   1      34.392  21.311  -4.259  0.00  0.00    -0.062 A 
HETATM   16  C   UNK N   1      35.682  20.661  -4.611  0.00  0.00     0.048 C 
HETATM   17  C   UNK N   1      33.630  20.819  -3.197  0.00  0.00     0.008 A 
HETATM   18  C   UNK N   1      32.426  21.441  -2.854  0.00  0.00     0.026 A 
ENDBRANCH   9  12
ENDBRANCH   7   9
ENDBRANCH   6   7
ENDBRANCH   3   6
ENDBRANCH   1   2
BRANCH   1  19
HETATM   19  C   UNK N   1      26.148  25.684  -7.729  0.00  0.00     0.074 C 
BRANCH  19  20
HETATM   20  C   UNK N   1      26.700  26.922  -7.098  0.00  0.00    -0.055 A 
HETATM   21  C   UNK N   1      27.719  27.662  -7.709  0.00  0.00     0.007 A 
HETATM   22  C   UNK N   1      28.217  28.810  -7.090  0.00  0.00     0.002 A 
HETATM   23  C   UNK N   1      27.710  29.213  -5.851  0.00  0.00     0.015 A 
HETATM   24  C   UNK N   1      26.702  28.467  -5.222  0.00  0.00     0.007 A 
HETATM   25  C   UNK N   1      26.200  27.323  -5.857  0.00  0.00     0.022 A 
BRANCH  24  26
HETATM   26  C   UNK N   1      26.181  28.881  -3.902  0.00  0.00     0.102 C 
HETATM   27  N   UNK N   1      26.063  30.124  -3.610  0.00  0.00    -0.385 N 
HETATM   28  H   UNK N   1      26.435  30.808  -4.212  0.00  0.00     0.157 HD
ATOM     29  HN  UNK N   1      25.584  30.405  -2.754  1.00  0.00     0.157 HD
BRANCH  26  30
HETATM   30  N   UNK N   1      25.793  27.907  -2.954  0.00  0.00    -0.385 N 
HETATM   31  H   UNK N   1      24.845  27.657  -2.853  0.00  0.00     0.157 HD
HETATM   32  H   UNK N   1      26.474  27.474  -2.389  0.00  0.00     0.157 HD
ENDBRANCH  26  30
ENDBRANCH  24  26
ENDBRANCH  19  20
ENDBRANCH   1  19
BRANCH   1  33
HETATM   33  C   UNK N   1      25.521  23.303  -7.514  0.00  0.00     0.281 C 
HETATM   34  O   UNK N   1      24.797  23.548  -8.468  0.00  0.00    -0.263 OA
BRANCH  33  35
HETATM   35  O   UNK N   1      25.561  22.057  -6.981  0.00  0.00    -0.325 OA
HETATM   36  C   UNK N   1      24.447  21.251  -6.916  0.00  0.00     0.213 C 
ENDBRANCH  33  35
ENDBRANCH   1  33
TORSDOF 11
ENDMDL
MODEL 3
REMARK VINA RESULT:      -7.6      3.224      6.493
REMARK  11 active torsions:
REMARK  status: ('A' for Active; 'I' for Inactive)
REMARK    1  A    between atoms: C_2  and  N_1 
REMARK       I    between atoms: N_1  and  C_18 
REMARK    2  A    between atoms: C_2  and  C_3 
REMARK    3  A    between atoms: C_2  and  C_4 
REMARK    4  A    between atoms: C_3  and  C_8 
REMARK    5  A    between atoms: C_4  and  O_6 
REMARK    6  A    between atoms: C_12  and  C_14 
REMARK    7  A    between atoms: C_14  and  N_15 
REMARK    8  A    between atoms: C_18  and  C_19 
REMARK    9  A    between atoms: C_19  and  N_20 
REMARK   10  A    between atoms: N_20  and  S_29 
REMARK   11  A    between atoms: C_26  and  S_29 
ROOT
HETATM    1  C   UNK N   1      20.275  16.098   8.631  0.00  0.00     0.188 C 
ENDROOT
BRANCH   1   2
HETATM    2  N   UNK N   1      19.897  14.994   9.494  0.00  0.00    -0.346 N 
HETATM    3  C   UNK N   1      20.621  13.887   9.820  0.00  0.00     0.236 C 
HETATM    4  O   UNK N   1      20.065  12.977  10.407  0.00  0.00    -0.272 OA
HETATM    5  H   UNK N   1      19.001  15.053   9.896  0.00  0.00     0.163 HD
BRANCH   3   6
HETATM    6  C   UNK N   1      22.091  13.745   9.541  0.00  0.00     0.235 C 
BRANCH   6   7
HETATM    7  N   UNK N   1      22.451  12.409   9.048  0.00  0.00    -0.307 N 
HETATM    8  H   UNK N   1      22.764  11.653   9.656  0.00  0.00     0.172 HD
BRANCH   7   9
HETATM    9  S   UNK N   1      22.287  12.244   7.278  0.00  0.00     0.259 S 
HETATM   10  O   UNK N   1      22.737  10.805   6.986  0.00  0.00    -0.201 OA
HETATM   11  O   UNK N   1      20.777  12.111   7.026  0.00  0.00    -0.201 OA
BRANCH   9  12
HETATM   12  C   UNK N   1      23.039  13.382   6.116  0.00  0.00     0.079 A 
HETATM   13  C   UNK N   1      22.485  13.564   4.845  0.00  0.00     0.026 A 
HETATM   14  C   UNK N   1      23.032  14.514   3.974  0.00  0.00     0.008 A 
HETATM   15  C   UNK N   1      24.128  15.287   4.377  0.00  0.00    -0.062 A 
HETATM   16  C   UNK N   1      24.695  16.311   3.461  0.00  0.00     0.048 C 
HETATM   17  C   UNK N   1      24.682  15.103   5.646  0.00  0.00     0.008 A 
HETATM   18  C   UNK N   1      24.136  14.155   6.516  0.00  0.00     0.026 A 
ENDBRANCH   9  12
ENDBRANCH   7   9
ENDBRANCH   6   7
ENDBRANCH   3   6
ENDBRANCH   1   2
BRANCH   1  19
HETATM   19  C   UNK N   1      20.173  15.581   7.196  0.00  0.00     0.074 C 
BRANCH  19  20
HETATM   20  C   UNK N   1      20.675  16.518   6.145  0.00  0.00    -0.055 A 
HETATM   21  C   UNK N   1      21.788  17.337   6.369  0.00  0.00     0.007 A 
HETATM   22  C   UNK N   1      22.229  18.207   5.369  0.00  0.00     0.002 A 
HETATM   23  C   UNK N   1      21.548  18.272   4.149  0.00  0.00     0.015 A 
HETATM   24  C   UNK N   1      20.422  17.468   3.923  0.00  0.00     0.007 A 
HETATM   25  C   UNK N   1      19.994  16.590   4.928  0.00  0.00     0.022 A 
BRANCH  24  26
HETATM   26  C   UNK N   1      19.690  17.553   2.641  0.00  0.00     0.102 C 
HETATM   27  N   UNK N   1      19.828  16.639   1.752  0.00  0.00    -0.385 N 
HETATM   28  H   UNK N   1      20.516  15.944   1.864  0.00  0.00     0.157 HD
ATOM     29  HN  UNK N   1      19.226  16.632   0.928  1.00  0.00     0.157 HD
BRANCH  26  30
HETATM   30  N   UNK N   1      18.817  18.637   2.391  0.00  0.00    -0.385 N 
HETATM   31  H   UNK N   1      18.182  18.603   1.640  0.00  0.00     0.157 HD
HETATM   32  H   UNK N   1      18.845  19.432   2.971  0.00  0.00     0.157 HD
ENDBRANCH  26  30
ENDBRANCH  24  26
ENDBRANCH  19  20
ENDBRANCH   1  19
BRANCH   1  33
HETATM   33  C   UNK N   1      19.399  17.317   8.775  0.00  0.00     0.281 C 
HETATM   34  O   UNK N   1      19.879  18.354   9.211  0.00  0.00    -0.263 OA
BRANCH  33  35
HETATM   35  O   UNK N   1      18.101  17.268   8.386  0.00  0.00    -0.325 OA
HETATM   36  C   UNK N   1      17.067  17.178   9.290  0.00  0.00     0.213 C 
ENDBRANCH  33  35
ENDBRANCH   1  33
TORSDOF 11
ENDMDL
MODEL 4
REMARK VINA RESULT:      -7.6     14.822     17.343
REMARK  11 active torsions:
REMARK  status: ('A' for Active; 'I' for Inactive)
REMARK    1  A    between atoms: C_2  and  N_1 
REMARK       I    between atoms: N_1  and  C_18 
REMARK    2  A    between atoms: C_2  and  C_3 
REMARK    3  A    between atoms: C_2  and  C_4 
REMARK    4  A    between atoms: C_3  and  C_8 
REMARK    5  A    between atoms: C_4  and  O_6 
REMARK    6  A    between atoms: C_12  and  C_14 
REMARK    7  A    between atoms: C_14  and  N_15 
REMARK    8  A    between atoms: C_18  and  C_19 
REMARK    9  A    between atoms: C_19  and  N_20 
REMARK   10  A    between atoms: N_20  and  S_29 
REMARK   11  A    between atoms: C_26  and  S_29 
ROOT
HETATM    1  C   UNK N   1      30.374  25.029  -3.781  0.00  0.00     0.188 C 
ENDROOT
BRANCH   1   2
HETATM    2  N   UNK N   1      31.152  26.250  -3.886  0.00  0.00    -0.346 N 
HETATM    3  C   UNK N   1      30.737  27.535  -3.710  0.00  0.00     0.236 C 
HETATM    4  O   UNK N   1      31.488  28.440  -4.025  0.00  0.00    -0.272 OA
HETATM    5  H   UNK N   1      32.102  26.134  -4.113  0.00  0.00     0.163 HD
BRANCH   3   6
HETATM    6  C   UNK N   1      29.416  27.905  -3.096  0.00  0.00     0.235 C 
BRANCH   6   7
HETATM    7  N   UNK N   1      28.971  29.253  -3.469  0.00  0.00    -0.307 N 
HETATM    8  H   UNK N   1      29.538  30.090  -3.329  0.00  0.00     0.172 HD
BRANCH   7   9
HETATM    9  S   UNK N   1      27.339  29.282  -4.191  0.00  0.00     0.259 S 
HETATM   10  O   UNK N   1      26.394  29.014  -3.011  0.00  0.00    -0.201 OA
HETATM   11  O   UNK N   1      27.038  30.767  -4.446  0.00  0.00    -0.201 OA
BRANCH   9  12
HETATM   12  C   UNK N   1      26.876  28.278  -5.601  0.00  0.00     0.079 A 
HETATM   13  C   UNK N   1      27.787  28.051  -6.638  0.00  0.00     0.026 A 
HETATM   14  C   UNK N   1      27.445  27.200  -7.695  0.00  0.00     0.008 A 
HETATM   15  C   UNK N   1      26.195  26.570  -7.712  0.00  0.00    -0.062 A 
HETATM   16  C   UNK N   1      25.840  25.649  -8.824  0.00  0.00     0.048 C 
HETATM   17  C   UNK N   1      25.284  26.798  -6.677  0.00  0.00     0.008 A 
HETATM   18  C   UNK N   1      25.626  27.647  -5.622  0.00  0.00     0.026 A 
ENDBRANCH   9  12
ENDBRANCH   7   9
ENDBRANCH   6   7
ENDBRANCH   3   6
ENDBRANCH   1   2
BRANCH   1  19
HETATM   19  C   UNK N   1      29.784  24.771  -5.169  0.00  0.00     0.074 C 
BRANCH  19  20
HETATM   20  C   UNK N   1      28.342  24.380  -5.183  0.00  0.00    -0.055 A 
HETATM   21  C   UNK N   1      27.468  24.774  -4.162  0.00  0.00     0.007 A 
HETATM   22  C   UNK N   1      26.126  24.387  -4.202  0.00  0.00     0.002 A 
HETATM   23  C   UNK N   1      25.659  23.591  -5.252  0.00  0.00     0.015 A 
HETATM   24  C   UNK N   1      26.531  23.175  -6.268  0.00  0.00     0.007 A 
HETATM   25  C   UNK N   1      27.873  23.579  -6.226  0.00  0.00     0.022 A 
BRANCH  24  26
HETATM   26  C   UNK N   1      26.041  22.316  -7.367  0.00  0.00     0.102 C 
HETATM   27  N   UNK N   1      26.859  21.834  -8.229  0.00  0.00    -0.385 N 
HETATM   28  H   UNK N   1      27.797  22.134  -8.239  0.00  0.00     0.157 HD
ATOM     29  HN  UNK N   1      26.539  21.140  -8.905  1.00  0.00     0.157 HD
BRANCH  26  30
HETATM   30  N   UNK N   1      24.666  22.005  -7.467  0.00  0.00    -0.385 N 
HETATM   31  H   UNK N   1      24.021  22.684  -7.771  0.00  0.00     0.157 HD
HETATM   32  H   UNK N   1      24.349  21.103  -7.230  0.00  0.00     0.157 HD
ENDBRANCH  26  30
ENDBRANCH  24  26
ENDBRANCH  19  20
ENDBRANCH   1  19
BRANCH   1  33
HETATM   33  C   UNK N   1      31.178  23.824  -3.361  0.00  0.00     0.281 C 
HETATM   34  O   UNK N   1      32.131  23.470  -4.042  0.00  0.00    -0.263 OA
BRANCH  33  35
HETATM   35  O   UNK N   1      30.868  23.167  -2.216  0.00  0.00    -0.325 OA
HETATM   36  C   UNK N   1      29.567  22.985  -1.805  0.00  0.00     0.213 C 
ENDBRANCH  33  35
ENDBRANCH   1  33
TORSDOF 11
ENDMDL
MODEL 5
REMARK VINA RESULT:      -7.5     11.444     14.084
REMARK  11 active torsions:
REMARK  status: ('A' for Active; 'I' for Inactive)
REMARK    1  A    between atoms: C_2  and  N_1 
REMARK       I    between atoms: N_1  and  C_18 
REMARK    2  A    between atoms: C_2  and  C_3 
REMARK    3  A    between atoms: C_2  and  C_4 
REMARK    4  A    between atoms: C_3  and  C_8 
REMARK    5  A    between atoms: C_4  and  O_6 
REMARK    6  A    between atoms: C_12  and  C_14 
REMARK    7  A    between atoms: C_14  and  N_15 
REMARK    8  A    between atoms: C_18  and  C_19 
REMARK    9  A    between atoms: C_19  and  N_20 
REMARK   10  A    between atoms: N_20  and  S_29 
REMARK   11  A    between atoms: C_26  and  S_29 
ROOT
HETATM    1  C   UNK N   1      35.638  13.438  12.017  0.00  0.00     0.188 C 
ENDROOT
BRANCH   1   2
HETATM    2  N   UNK N   1      34.413  13.738  11.299  0.00  0.00    -0.346 N 
HETATM    3  C   UNK N   1      34.114  14.840  10.557  0.00  0.00     0.236 C 
HETATM    4  O   UNK N   1      32.966  15.001  10.184  0.00  0.00    -0.272 OA
HETATM    5  H   UNK N   1      33.706  13.055  11.355  0.00  0.00     0.163 HD
BRANCH   3   6
HETATM    6  C   UNK N   1      35.138  15.851  10.123  0.00  0.00     0.235 C 
BRANCH   6   7
HETATM    7  N   UNK N   1      34.559  17.177   9.871  0.00  0.00    -0.307 N 
HETATM    8  H   UNK N   1      34.457  17.891  10.592  0.00  0.00     0.172 HD
BRANCH   7   9
HETATM    9  S   UNK N   1      34.053  17.414   8.176  0.00  0.00     0.259 S 
HETATM   10  O   UNK N   1      34.807  18.672   7.724  0.00  0.00    -0.201 OA
HETATM   11  O   UNK N   1      34.810  16.342   7.377  0.00  0.00    -0.201 OA
BRANCH   9  12
HETATM   12  C   UNK N   1      32.335  17.501   7.672  0.00  0.00     0.079 A 
HETATM   13  C   UNK N   1      31.952  17.098   6.389  0.00  0.00     0.026 A 
HETATM   14  C   UNK N   1      30.599  17.094   6.033  0.00  0.00     0.008 A 
HETATM   15  C   UNK N   1      29.627  17.486   6.961  0.00  0.00    -0.062 A 
HETATM   16  C   UNK N   1      28.188  17.461   6.590  0.00  0.00     0.048 C 
HETATM   17  C   UNK N   1      30.010  17.890   8.243  0.00  0.00     0.008 A 
HETATM   18  C   UNK N   1      31.361  17.895   8.598  0.00  0.00     0.026 A 
ENDBRANCH   9  12
ENDBRANCH   7   9
ENDBRANCH   6   7
ENDBRANCH   3   6
ENDBRANCH   1   2
BRANCH   1  19
HETATM   19  C   UNK N   1      35.218  12.789  13.337  0.00  0.00     0.074 C 
BRANCH  19  20
HETATM   20  C   UNK N   1      35.734  13.460  14.568  0.00  0.00    -0.055 A 
HETATM   21  C   UNK N   1      36.680  14.490  14.497  0.00  0.00     0.007 A 
HETATM   22  C   UNK N   1      37.147  15.093  15.667  0.00  0.00     0.002 A 
HETATM   23  C   UNK N   1      36.682  14.658  16.912  0.00  0.00     0.015 A 
HETATM   24  C   UNK N   1      35.749  13.615  16.994  0.00  0.00     0.007 A 
HETATM   25  C   UNK N   1      35.277  13.024  15.814  0.00  0.00     0.022 A 
BRANCH  24  26
HETATM   26  C   UNK N   1      35.273  13.140  18.311  0.00  0.00     0.102 C 
HETATM   27  N   UNK N   1      34.899  13.977  19.207  0.00  0.00    -0.385 N 
HETATM   28  H   UNK N   1      35.043  14.942  19.071  0.00  0.00     0.157 HD
ATOM     29  HN  UNK N   1      34.451  13.645  20.062  1.00  0.00     0.157 HD
BRANCH  26  30
HETATM   30  N   UNK N   1      35.214  11.755  18.588  0.00  0.00    -0.385 N 
HETATM   31  H   UNK N   1      36.031  11.256  18.818  0.00  0.00     0.157 HD
HETATM   32  H   UNK N   1      34.349  11.285  18.551  0.00  0.00     0.157 HD
ENDBRANCH  26  30
ENDBRANCH  24  26
ENDBRANCH  19  20
ENDBRANCH   1  19
BRANCH   1  33
HETATM   33  C   UNK N   1      36.565  12.502  11.285  0.00  0.00     0.281 C 
HETATM   34  O   UNK N   1      36.096  11.653  10.539  0.00  0.00    -0.263 OA
BRANCH  33  35
HETATM   35  O   UNK N   1      37.908  12.630  11.425  0.00  0.00    -0.325 OA
HETATM   36  C   UNK N   1      38.712  13.081  10.403  0.00  0.00     0.213 C 
ENDBRANCH  33  35
ENDBRANCH   1  33
TORSDOF 11
ENDMDL
MODEL 6
REMARK VINA RESULT:      -7.5     10.654     14.567
REMARK  11 active torsions:
REMARK  status: ('A' for Active; 'I' for Inactive)
REMARK    1  A    between atoms: C_2  and  N_1 
REMARK       I    between atoms: N_1  and  C_18 
REMARK    2  A    between atoms: C_2  and  C_3 
REMARK    3  A    between atoms: C_2  and  C_4 
REMARK    4  A    between atoms: C_3  and  C_8 
REMARK    5  A    between atoms: C_4  and  O_6 
REMARK    6  A    between atoms: C_12  and  C_14 
REMARK    7  A    between atoms: C_14  and  N_15 
REMARK    8  A    between atoms: C_18  and  C_19 
REMARK    9  A    between atoms: C_19  and  N_20 
REMARK   10  A    between atoms: N_20  and  S_29 
REMARK   11  A    between atoms: C_26  and  S_29 
ROOT
HETATM    1  C   UNK N   1      33.925  15.801   7.962  0.00  0.00     0.188 C 
ENDROOT
BRANCH   1   2
HETATM    2  N   UNK N   1      35.006  16.300   8.791  0.00  0.00    -0.346 N 
HETATM    3  C   UNK N   1      35.208  16.110  10.125  0.00  0.00     0.236 C 
HETATM    4  O   UNK N   1      36.069  16.764  10.685  0.00  0.00    -0.272 OA
HETATM    5  H   UNK N   1      35.682  16.846   8.330  0.00  0.00     0.163 HD
BRANCH   3   6
HETATM    6  C   UNK N   1      34.459  15.095  10.941  0.00  0.00     0.235 C 
BRANCH   6   7
HETATM    7  N   UNK N   1      34.806  13.712  10.591  0.00  0.00    -0.307 N 
HETATM    8  H   UNK N   1      34.414  13.221   9.788  0.00  0.00     0.172 HD
BRANCH   7   9
HETATM    9  S   UNK N   1      35.984  12.976  11.713  0.00  0.00     0.259 S 
HETATM   10  O   UNK N   1      36.148  11.537  11.205  0.00  0.00    -0.201 OA
HETATM   11  O   UNK N   1      37.345  13.563  11.309  0.00  0.00    -0.201 OA
BRANCH   9  12
HETATM   12  C   UNK N   1      35.778  12.990  13.494  0.00  0.00     0.079 A 
HETATM   13  C   UNK N   1      36.584  13.805  14.293  0.00  0.00     0.026 A 
HETATM   14  C   UNK N   1      36.362  13.869  15.674  0.00  0.00     0.008 A 
HETATM   15  C   UNK N   1      35.328  13.125  16.253  0.00  0.00    -0.062 A 
HETATM   16  C   UNK N   1      35.078  13.209  17.716  0.00  0.00     0.048 C 
HETATM   17  C   UNK N   1      34.523  12.309  15.455  0.00  0.00     0.008 A 
HETATM   18  C   UNK N   1      34.746  12.244  14.077  0.00  0.00     0.026 A 
ENDBRANCH   9  12
ENDBRANCH   7   9
ENDBRANCH   6   7
ENDBRANCH   3   6
ENDBRANCH   1   2
BRANCH   1  19
HETATM   19  C   UNK N   1      33.503  16.959   7.056  0.00  0.00     0.074 C 
BRANCH  19  20
HETATM   20  C   UNK N   1      32.028  17.170   6.938  0.00  0.00    -0.055 A 
HETATM   21  C   UNK N   1      31.359  16.984   5.723  0.00  0.00     0.007 A 
HETATM   22  C   UNK N   1      29.980  17.195   5.645  0.00  0.00     0.002 A 
HETATM   23  C   UNK N   1      29.270  17.608   6.777  0.00  0.00     0.015 A 
HETATM   24  C   UNK N   1      29.936  17.814   7.993  0.00  0.00     0.007 A 
HETATM   25  C   UNK N   1      31.317  17.589   8.065  0.00  0.00     0.022 A 
BRANCH  24  26
HETATM   26  C   UNK N   1      29.189  18.271   9.185  0.00  0.00     0.102 C 
HETATM   27  N   UNK N   1      29.813  18.616  10.250  0.00  0.00    -0.385 N 
HETATM   28  H   UNK N   1      30.782  18.460  10.326  0.00  0.00     0.157 HD
ATOM     29  HN  UNK N   1      29.306  19.052  11.021  1.00  0.00     0.157 HD
BRANCH  26  30
HETATM   30  N   UNK N   1      27.778  18.347   9.153  0.00  0.00    -0.385 N 
HETATM   31  H   UNK N   1      27.230  17.630   9.547  0.00  0.00     0.157 HD
HETATM   32  H   UNK N   1      27.338  19.121   8.733  0.00  0.00     0.157 HD
ENDBRANCH  26  30
ENDBRANCH  24  26
ENDBRANCH  19  20
ENDBRANCH   1  19
BRANCH   1  33
HETATM   33  C   UNK N   1      34.305  14.622   7.102  0.00  0.00     0.281 C 
HETATM   34  O   UNK N   1      35.100  13.797   7.531  0.00  0.00    -0.263 OA
BRANCH  33  35
HETATM   35  O   UNK N   1      33.737  14.461   5.881  0.00  0.00    -0.325 OA
HETATM   36  C   UNK N   1      34.482  14.201   4.754  0.00  0.00     0.213 C 
ENDBRANCH  33  35
ENDBRANCH   1  33
TORSDOF 11
ENDMDL
MODEL 7
REMARK VINA RESULT:      -7.5     10.666     14.527
REMARK  11 active torsions:
REMARK  status: ('A' for Active; 'I' for Inactive)
REMARK    1  A    between atoms: C_2  and  N_1 
REMARK       I    between atoms: N_1  and  C_18 
REMARK    2  A    between atoms: C_2  and  C_3 
REMARK    3  A    between atoms: C_2  and  C_4 
REMARK    4  A    between atoms: C_3  and  C_8 
REMARK    5  A    between atoms: C_4  and  O_6 
REMARK    6  A    between atoms: C_12  and  C_14 
REMARK    7  A    between atoms: C_14  and  N_15 
REMARK    8  A    between atoms: C_18  and  C_19 
REMARK    9  A    between atoms: C_19  and  N_20 
REMARK   10  A    between atoms: N_20  and  S_29 
REMARK   11  A    between atoms: C_26  and  S_29 
ROOT
HETATM    1  C   UNK N   1      33.599  16.874   8.514  0.00  0.00     0.188 C 
ENDROOT
BRANCH   1   2
HETATM    2  N   UNK N   1      34.148  17.174   9.824  0.00  0.00    -0.346 N 
HETATM    3  C   UNK N   1      35.069  16.470  10.537  0.00  0.00     0.236 C 
HETATM    4  O   UNK N   1      35.267  16.775  11.700  0.00  0.00    -0.272 OA
HETATM    5  H   UNK N   1      33.810  17.993  10.252  0.00  0.00     0.163 HD
BRANCH   3   6
HETATM    6  C   UNK N   1      35.901  15.362   9.955  0.00  0.00     0.235 C 
BRANCH   6   7
HETATM    7  N   UNK N   1      37.003  14.952  10.835  0.00  0.00    -0.307 N 
HETATM    8  H   UNK N   1      37.861  15.491  10.947  0.00  0.00     0.172 HD
BRANCH   7   9
HETATM    9  S   UNK N   1      36.687  13.417  11.689  0.00  0.00     0.259 S 
HETATM   10  O   UNK N   1      35.710  12.664  10.774  0.00  0.00    -0.201 OA
HETATM   11  O   UNK N   1      37.956  12.574  11.483  0.00  0.00    -0.201 OA
BRANCH   9  12
HETATM   12  C   UNK N   1      36.132  13.342  13.391  0.00  0.00     0.079 A 
HETATM   13  C   UNK N   1      35.071  12.506  13.753  0.00  0.00     0.026 A 
HETATM   14  C   UNK N   1      34.697  12.394  15.097  0.00  0.00     0.008 A 
HETATM   15  C   UNK N   1      35.389  13.110  16.081  0.00  0.00    -0.062 A 
HETATM   16  C   UNK N   1      35.007  12.974  17.511  0.00  0.00     0.048 C 
HETATM   17  C   UNK N   1      36.448  13.947  15.719  0.00  0.00     0.008 A 
HETATM   18  C   UNK N   1      36.821  14.059  14.377  0.00  0.00     0.026 A 
ENDBRANCH   9  12
ENDBRANCH   7   9
ENDBRANCH   6   7
ENDBRANCH   3   6
ENDBRANCH   1   2
BRANCH   1  19
HETATM   19  C   UNK N   1      32.124  17.276   8.559  0.00  0.00     0.074 C 
BRANCH  19  20
HETATM   20  C   UNK N   1      31.265  16.661   7.502  0.00  0.00    -0.055 A 
HETATM   21  C   UNK N   1      31.496  15.360   7.039  0.00  0.00     0.007 A 
HETATM   22  C   UNK N   1      30.678  14.816   6.045  0.00  0.00     0.002 A 
HETATM   23  C   UNK N   1      29.639  15.577   5.500  0.00  0.00     0.015 A 
HETATM   24  C   UNK N   1      29.413  16.887   5.945  0.00  0.00     0.007 A 
HETATM   25  C   UNK N   1      30.231  17.420   6.951  0.00  0.00     0.022 A 
BRANCH  24  26
HETATM   26  C   UNK N   1      28.327  17.699   5.354  0.00  0.00     0.102 C 
HETATM   27  N   UNK N   1      28.519  18.345   4.263  0.00  0.00    -0.385 N 
HETATM   28  H   UNK N   1      29.424  18.407   3.880  0.00  0.00     0.157 HD
ATOM     29  HN  UNK N   1      27.735  18.796   3.791  1.00  0.00     0.157 HD
BRANCH  26  30
HETATM   30  N   UNK N   1      27.061  17.757   5.980  0.00  0.00    -0.385 N 
HETATM   31  H   UNK N   1      26.876  17.217   6.782  0.00  0.00     0.157 HD
HETATM   32  H   UNK N   1      26.359  18.340   5.612  0.00  0.00     0.157 HD
ENDBRANCH  26  30
ENDBRANCH  24  26
ENDBRANCH  19  20
ENDBRANCH   1  19
BRANCH   1  33
HETATM   33  C   UNK N   1      34.272  17.612   7.384  0.00  0.00     0.281 C 
HETATM   34  O   UNK N   1      34.781  18.704   7.597  0.00  0.00    -0.263 OA
BRANCH  33  35
HETATM   35  O   UNK N   1      34.346  17.046   6.153  0.00  0.00    -0.325 OA
HETATM   36  C   UNK N   1      33.599  17.502   5.091  0.00  0.00     0.213 C 
ENDBRANCH  33  35
ENDBRANCH   1  33
TORSDOF 11
ENDMDL
MODEL 8
REMARK VINA RESULT:      -7.3     11.348     14.034
REMARK  11 active torsions:
REMARK  status: ('A' for Active; 'I' for Inactive)
REMARK    1  A    between atoms: C_2  and  N_1 
REMARK       I    between atoms: N_1  and  C_18 
REMARK    2  A    between atoms: C_2  and  C_3 
REMARK    3  A    between atoms: C_2  and  C_4 
REMARK    4  A    between atoms: C_3  and  C_8 
REMARK    5  A    between atoms: C_4  and  O_6 
REMARK    6  A    between atoms: C_12  and  C_14 
REMARK    7  A    between atoms: C_14  and  N_15 
REMARK    8  A    between atoms: C_18  and  C_19 
REMARK    9  A    between atoms: C_19  and  N_20 
REMARK   10  A    between atoms: N_20  and  S_29 
REMARK   11  A    between atoms: C_26  and  S_29 
ROOT
HETATM    1  C   UNK N   1      36.376  13.740  13.111  0.00  0.00     0.188 C 
ENDROOT
BRANCH   1   2
HETATM    2  N   UNK N   1      36.084  15.078  12.630  0.00  0.00    -0.346 N 
HETATM    3  C   UNK N   1      35.318  15.448  11.567  0.00  0.00     0.236 C 
HETATM    4  O   UNK N   1      35.343  16.610  11.204  0.00  0.00    -0.272 OA
HETATM    5  H   UNK N   1      36.493  15.814  13.140  0.00  0.00     0.163 HD
BRANCH   3   6
HETATM    6  C   UNK N   1      34.397  14.508  10.841  0.00  0.00     0.235 C 
BRANCH   6   7
HETATM    7  N   UNK N   1      33.078  15.095  10.575  0.00  0.00    -0.307 N 
HETATM    8  H   UNK N   1      32.477  15.480  11.304  0.00  0.00     0.172 HD
BRANCH   7   9
HETATM    9  S   UNK N   1      32.630  15.066   8.847  0.00  0.00     0.259 S 
HETATM   10  O   UNK N   1      33.965  15.215   8.104  0.00  0.00    -0.201 OA
HETATM   11  O   UNK N   1      32.310  13.595   8.538  0.00  0.00    -0.201 OA
BRANCH   9  12
HETATM   12  C   UNK N   1      31.397  16.158   8.139  0.00  0.00     0.079 A 
HETATM   13  C   UNK N   1      31.096  16.095   6.775  0.00  0.00     0.026 A 
HETATM   14  C   UNK N   1      30.076  16.895   6.247  0.00  0.00     0.008 A 
HETATM   15  C   UNK N   1      29.351  17.751   7.084  0.00  0.00    -0.062 A 
HETATM   16  C   UNK N   1      28.253  18.584   6.527  0.00  0.00     0.048 C 
HETATM   17  C   UNK N   1      29.653  17.815   8.447  0.00  0.00     0.008 A 
HETATM   18  C   UNK N   1      30.672  17.017   8.973  0.00  0.00     0.026 A 
ENDBRANCH   9  12
ENDBRANCH   7   9
ENDBRANCH   6   7
ENDBRANCH   3   6
ENDBRANCH   1   2
BRANCH   1  19
HETATM   19  C   UNK N   1      35.065  13.185  13.670  0.00  0.00     0.074 C 
BRANCH  19  20
HETATM   20  C   UNK N   1      35.172  12.525  15.007  0.00  0.00    -0.055 A 
HETATM   21  C   UNK N   1      35.233  11.132  15.130  0.00  0.00     0.007 A 
HETATM   22  C   UNK N   1      35.327  10.546  16.395  0.00  0.00     0.002 A 
HETATM   23  C   UNK N   1      35.345  11.349  17.539  0.00  0.00     0.015 A 
HETATM   24  C   UNK N   1      35.266  12.745  17.425  0.00  0.00     0.007 A 
HETATM   25  C   UNK N   1      35.183  13.324  16.152  0.00  0.00     0.022 A 
BRANCH  24  26
HETATM   26  C   UNK N   1      35.263  13.593  18.636  0.00  0.00     0.102 C 
HETATM   27  N   UNK N   1      35.345  14.869  18.536  0.00  0.00    -0.385 N 
HETATM   28  H   UNK N   1      35.537  15.283  17.664  0.00  0.00     0.157 HD
ATOM     29  HN  UNK N   1      35.212  15.456  19.360  1.00  0.00     0.157 HD
BRANCH  26  30
HETATM   30  N   UNK N   1      35.154  13.004  19.917  0.00  0.00    -0.385 N 
HETATM   31  H   UNK N   1      35.376  12.054  20.050  0.00  0.00     0.157 HD
HETATM   32  H   UNK N   1      34.852  13.547  20.681  0.00  0.00     0.157 HD
ENDBRANCH  26  30
ENDBRANCH  24  26
ENDBRANCH  19  20
ENDBRANCH   1  19
BRANCH   1  33
HETATM   33  C   UNK N   1      36.888  12.804  12.046  0.00  0.00     0.281 C 
HETATM   34  O   UNK N   1      36.225  11.822  11.739  0.00  0.00    -0.263 OA
BRANCH  33  35
HETATM   35  O   UNK N   1      38.054  13.075  11.408  0.00  0.00    -0.325 OA
HETATM   36  C   UNK N   1      38.093  13.491  10.097  0.00  0.00     0.213 C 
ENDBRANCH  33  35
ENDBRANCH   1  33
TORSDOF 11
ENDMDL
MODEL 9
REMARK VINA RESULT:      -7.3     14.828     17.128
REMARK  11 active torsions:
REMARK  status: ('A' for Active; 'I' for Inactive)
REMARK    1  A    between atoms: C_2  and  N_1 
REMARK       I    between atoms: N_1  and  C_18 
REMARK    2  A    between atoms: C_2  and  C_3 
REMARK    3  A    between atoms: C_2  and  C_4 
REMARK    4  A    between atoms: C_3  and  C_8 
REMARK    5  A    between atoms: C_4  and  O_6 
REMARK    6  A    between atoms: C_12  and  C_14 
REMARK    7  A    between atoms: C_14  and  N_15 
REMARK    8  A    between atoms: C_18  and  C_19 
REMARK    9  A    between atoms: C_19  and  N_20 
REMARK   10  A    between atoms: N_20  and  S_29 
REMARK   11  A    between atoms: C_26  and  S_29 
ROOT
HETATM    1  C   UNK N   1      26.505  26.876  -4.637  0.00  0.00     0.188 C 
ENDROOT
BRANCH   1   2
HETATM    2  N   UNK N   1      26.317  25.857  -3.621  0.00  0.00    -0.346 N 
HETATM    3  C   UNK N   1      27.118  24.795  -3.329  0.00  0.00     0.236 C 
HETATM    4  O   UNK N   1      26.702  23.939  -2.569  0.00  0.00    -0.272 OA
HETATM    5  H   UNK N   1      25.506  25.944  -3.072  0.00  0.00     0.163 HD
BRANCH   3   6
HETATM    6  C   UNK N   1      28.518  24.642  -3.854  0.00  0.00     0.235 C 
BRANCH   6   7
HETATM    7  N   UNK N   1      28.979  23.248  -3.854  0.00  0.00    -0.307 N 
HETATM    8  H   UNK N   1      28.456  22.484  -4.282  0.00  0.00     0.172 HD
BRANCH   7   9
HETATM    9  S   UNK N   1      30.546  23.023  -3.029  0.00  0.00     0.259 S 
HETATM   10  O   UNK N   1      31.209  24.407  -3.085  0.00  0.00    -0.201 OA
HETATM   11  O   UNK N   1      30.205  22.946  -1.533  0.00  0.00    -0.201 OA
BRANCH   9  12
HETATM   12  C   UNK N   1      31.720  21.750  -3.491  0.00  0.00     0.079 A 
HETATM   13  C   UNK N   1      32.971  21.683  -2.870  0.00  0.00     0.026 A 
HETATM   14  C   UNK N   1      33.849  20.638  -3.180  0.00  0.00     0.008 A 
HETATM   15  C   UNK N   1      33.473  19.655  -4.103  0.00  0.00    -0.062 A 
HETATM   16  C   UNK N   1      34.396  18.533  -4.415  0.00  0.00     0.048 C 
HETATM   17  C   UNK N   1      32.223  19.723  -4.724  0.00  0.00     0.008 A 
HETATM   18  C   UNK N   1      31.347  20.767  -4.416  0.00  0.00     0.026 A 
ENDBRANCH   9  12
ENDBRANCH   7   9
ENDBRANCH   6   7
ENDBRANCH   3   6
ENDBRANCH   1   2
BRANCH   1  19
HETATM   19  C   UNK N   1      25.344  26.724  -5.623  0.00  0.00     0.074 C 
BRANCH  19  20
HETATM   20  C   UNK N   1      25.656  25.938  -6.855  0.00  0.00    -0.055 A 
HETATM   21  C   UNK N   1      26.066  26.565  -8.037  0.00  0.00     0.007 A 
HETATM   22  C   UNK N   1      26.343  25.801  -9.174  0.00  0.00     0.002 A 
HETATM   23  C   UNK N   1      26.196  24.411  -9.136  0.00  0.00     0.015 A 
HETATM   24  C   UNK N   1      25.767  23.776  -7.961  0.00  0.00     0.007 A 
HETATM   25  C   UNK N   1      25.503  24.550  -6.822  0.00  0.00     0.022 A 
BRANCH  24  26
HETATM   26  C   UNK N   1      25.591  22.309  -7.927  0.00  0.00     0.102 C 
HETATM   27  N   UNK N   1      26.609  21.531  -7.954  0.00  0.00    -0.385 N 
HETATM   28  H   UNK N   1      27.506  21.900  -8.123  0.00  0.00     0.157 HD
ATOM     29  HN  UNK N   1      26.492  20.529  -7.800  1.00  0.00     0.157 HD
BRANCH  26  30
HETATM   30  N   UNK N   1      24.294  21.751  -7.849  0.00  0.00    -0.385 N 
HETATM   31  H   UNK N   1      23.508  22.274  -8.128  0.00  0.00     0.157 HD
HETATM   32  H   UNK N   1      24.176  20.833  -7.514  0.00  0.00     0.157 HD
ENDBRANCH  26  30
ENDBRANCH  24  26
ENDBRANCH  19  20
ENDBRANCH   1  19
BRANCH   1  33
HETATM   33  C   UNK N   1      26.508  28.285  -4.099  0.00  0.00     0.281 C 
HETATM   34  O   UNK N   1      26.299  28.474  -2.909  0.00  0.00    -0.263 OA
BRANCH  33  35
HETATM   35  O   UNK N   1      26.781  29.325  -4.925  0.00  0.00    -0.325 OA
HETATM   36  C   UNK N   1      27.955  30.037  -4.844  0.00  0.00     0.213 C 
ENDBRANCH  33  35
ENDBRANCH   1  33
TORSDOF 11
ENDMDL
