REMARK  11 active torsions:
REMARK  status: ('A' for Active; 'I' for Inactive)
REMARK    1  A    between atoms: C_2  and  N_1 
REMARK       I    between atoms: N_1  and  C_18 
REMARK    2  A    between atoms: C_2  and  C_3 
REMARK    3  A    between atoms: C_2  and  C_4 
REMARK    4  A    between atoms: C_3  and  C_8 
REMARK    5  A    between atoms: C_4  and  O_6 
REMARK    6  A    between atoms: C_12  and  C_14 
REMARK    7  A    between atoms: C_14  and  N_15 
REMARK    8  A    between atoms: C_18  and  C_19 
REMARK    9  A    between atoms: C_19  and  N_20 
REMARK   10  A    between atoms: N_20  and  S_29 
REMARK   11  A    between atoms: C_26  and  S_29 
ROOT
HETATM    1  C   UNK N   1      -1.522   0.024   0.408  0.00  0.00     0.188 C 
ENDROOT
BRANCH   1   2
HETATM    2  N   UNK N   1      -0.211   0.642   0.484  0.00  0.00    -0.346 N 
HETATM    3  C   UNK N   1       0.899   0.196   1.135  0.00  0.00     0.236 C 
HETATM    4  O   UNK N   1       1.854   0.944   1.243  0.00  0.00    -0.272 OA
HETATM    5  H   UNK N   1      -0.111   1.494   0.002  0.00  0.00     0.163 HD
BRANCH   3   6
HETATM    6  C   UNK N   1       1.035  -1.195   1.687  0.00  0.00     0.235 C 
BRANCH   6   7
HETATM    7  N   UNK N   1       1.217  -2.209   0.641  0.00  0.00    -0.307 N 
HETATM    8  H   UNK N   1       0.707  -3.092   0.621  0.00  0.00     0.172 HD
BRANCH   7   9
HETATM    9  S   UNK N   1       2.420  -1.741  -0.592  0.00  0.00     0.259 S 
HETATM   10  O   UNK N   1       2.571  -2.990  -1.472  0.00  0.00    -0.201 OA
HETATM   11  O   UNK N   1       1.665  -0.817  -1.560  0.00  0.00    -0.201 OA
BRANCH   9  12
HETATM   12  C   UNK N   1       4.030  -1.069  -0.181  0.00  0.00     0.079 A 
HETATM   13  C   UNK N   1       4.929  -1.809   0.593  0.00  0.00     0.026 A 
HETATM   14  C   UNK N   1       6.213  -1.310   0.841  0.00  0.00     0.008 A 
HETATM   15  C   UNK N   1       6.601  -0.075   0.308  0.00  0.00    -0.062 A 
HETATM   16  C   UNK N   1       7.972   0.445   0.553  0.00  0.00     0.048 C 
HETATM   17  C   UNK N   1       5.702   0.665  -0.464  0.00  0.00     0.008 A 
HETATM   18  C   UNK N   1       4.420   0.167  -0.711  0.00  0.00     0.026 A 
ENDBRANCH   9  12
ENDBRANCH   7   9
ENDBRANCH   6   7
ENDBRANCH   3   6
ENDBRANCH   1   2
BRANCH   1  19
HETATM   19  C   UNK N   1      -2.350   0.881  -0.551  0.00  0.00     0.074 C 
BRANCH  19  20
HETATM   20  C   UNK N   1      -3.831   0.770  -0.385  0.00  0.00    -0.055 A 
HETATM   21  C   UNK N   1      -4.482  -0.468  -0.447  0.00  0.00     0.007 A 
HETATM   22  C   UNK N   1      -5.869  -0.537  -0.294  0.00  0.00     0.002 A 
HETATM   23  C   UNK N   1      -6.610   0.632  -0.095  0.00  0.00     0.015 A 
HETATM   24  C   UNK N   1      -5.968   1.878  -0.050  0.00  0.00     0.007 A 
HETATM   25  C   UNK N   1      -4.575   1.936  -0.193  0.00  0.00     0.022 A 
BRANCH  24  26
HETATM   26  C   UNK N   1      -6.754   3.116   0.139  0.00  0.00     0.102 C 
HETATM   27  N   UNK N   1      -6.175   4.260   0.138  0.00  0.00    -0.385 N 
HETATM   28  H   UNK N   1      -5.192   4.314   0.138  0.00  0.00     0.157 HD
ATOM     29  HN  UNK N   1      -6.732   5.115   0.138  1.00  0.00     0.157 HD
BRANCH  26  30
HETATM   30  N   UNK N   1      -8.156   3.049   0.307  0.00  0.00    -0.385 N 
HETATM   31  H   UNK N   1      -8.685   3.871   0.425  0.00  0.00     0.157 HD
HETATM   32  H   UNK N   1      -8.608   2.174   0.307  0.00  0.00     0.157 HD
ENDBRANCH  26  30
ENDBRANCH  24  26
ENDBRANCH  19  20
ENDBRANCH   1  19
BRANCH   1  33
HETATM   33  C   UNK N   1      -1.502  -1.396  -0.099  0.00  0.00     0.281 C 
HETATM   34  O   UNK N   1      -1.942  -2.293   0.607  0.00  0.00    -0.263 OA
BRANCH  33  35
HETATM   35  O   UNK N   1      -1.036  -1.665  -1.344  0.00  0.00    -0.325 OA
HETATM   36  C   UNK N   1      -1.034  -2.938  -1.867  0.00  0.00     0.213 C 
ENDBRANCH  33  35
ENDBRANCH   1  33
TORSDOF 11
