MODEL 1
REMARK VINA RESULT:      -7.3      0.000      0.000
REMARK  8 active torsions:
REMARK  status: ('A' for Active; 'I' for Inactive)
REMARK    1  A    between atoms: C_6  and  C_7 
REMARK    2  A    between atoms: C_7  and  C_8 
REMARK    3  A    between atoms: C_8  and  N_9 
REMARK    4  A    between atoms: C_8  and  C_10 
REMARK    5  A    between atoms: C_10  and  O_11 
REMARK    6  A    between atoms: C_10  and  C_12 
REMARK       I    between atoms: C_12  and  N_14 
REMARK    7  A    between atoms: N_14  and  N_15 
REMARK    8  A    between atoms: N_15  and  C_16 
ROOT
HETATM    1  C   UNK N   1      35.024  15.972  10.084  0.00  0.00     0.233 C 
ENDROOT
BRANCH   1   2
HETATM    2  C   UNK N   1      33.693  15.666   9.394  0.00  0.00     0.112 C 
BRANCH   2   3
HETATM    3  C   UNK N   1      33.222  16.919   8.652  0.00  0.00     0.032 C 
BRANCH   3   4
HETATM    4  C   UNK N   1      32.793  16.664   7.213  0.00  0.00    -0.013 C 
HETATM    5  C   UNK N   1      31.318  17.037   7.076  0.00  0.00     0.005 C 
HETATM    6  C   UNK N   1      30.838  16.799   5.648  0.00  0.00     0.000 C 
HETATM    7  C   UNK N   1      31.690  17.594   4.659  0.00  0.00     0.000 C 
HETATM    8  C   UNK N   1      33.159  17.210   4.802  0.00  0.00     0.000 C 
HETATM    9  C   UNK N   1      33.624  17.485   6.226  0.00  0.00     0.005 C 
ENDBRANCH   3   4
ENDBRANCH   2   3
BRANCH   2  10
HETATM   10  N   UNK N   1      32.690  15.255  10.367  0.00  0.00    -0.423 N 
HETATM   11  H   UNK N   1      32.055  14.733  10.971  0.00  0.00     0.150 HD
HETATM   12  H   UNK N   1      32.424  16.190  10.680  0.00  0.00     0.150 HD
ENDBRANCH   2  10
ENDBRANCH   1   2
BRANCH   1  13
HETATM   13  O   UNK N   1      34.953  17.200  10.749  0.00  0.00    -0.384 OA
HETATM   14  H   UNK N   1      34.319  17.530  11.404  0.00  0.00     0.210 HD
ENDBRANCH   1  13
BRANCH   1  15
HETATM   15  C   UNK N   1      35.431  14.907  11.062  0.00  0.00     0.266 C 
HETATM   16  O   UNK N   1      35.098  13.749  10.857  0.00  0.00    -0.269 OA
HETATM   17  N   UNK N   1      36.211  15.213  12.128  0.00  0.00    -0.267 N 
HETATM   18  H   UNK N   1      36.363  16.155  12.372  0.00  0.00     0.190 HD
BRANCH  17  19
HETATM   19  N   UNK N   1      36.791  14.210  12.872  0.00  0.00    -0.298 N 
HETATM   20  H   UNK N   1      37.511  13.658  12.489  0.00  0.00     0.187 HD
BRANCH  19  21
HETATM   21  C   UNK N   1      36.340  13.983  14.195  0.00  0.00     0.048 A 
HETATM   22  C   UNK N   1      35.284  13.100  14.442  0.00  0.00     0.031 A 
HETATM   23  C   UNK N   1      34.878  12.853  15.760  0.00  0.00     0.009 A 
HETATM   24  C   UNK N   1      35.523  13.493  16.826  0.00  0.00    -0.062 A 
HETATM   25  C   UNK N   1      36.567  14.383  16.580  0.00  0.00     0.009 A 
HETATM   26  C   UNK N   1      35.101  13.227  18.225  0.00  0.00     0.048 C 
HETATM   27  C   UNK N   1      36.975  14.624  15.271  0.00  0.00     0.031 A 
ENDBRANCH  19  21
ENDBRANCH  17  19
ENDBRANCH   1  15
TORSDOF 8
ENDMDL
MODEL 2
REMARK VINA RESULT:      -7.3      1.397      8.876
REMARK  8 active torsions:
REMARK  status: ('A' for Active; 'I' for Inactive)
REMARK    1  A    between atoms: C_6  and  C_7 
REMARK    2  A    between atoms: C_7  and  C_8 
REMARK    3  A    between atoms: C_8  and  N_9 
REMARK    4  A    between atoms: C_8  and  C_10 
REMARK    5  A    between atoms: C_10  and  O_11 
REMARK    6  A    between atoms: C_10  and  C_12 
REMARK       I    between atoms: C_12  and  N_14 
REMARK    7  A    between atoms: N_14  and  N_15 
REMARK    8  A    between atoms: N_15  and  C_16 
ROOT
HETATM    1  C   UNK N   1      35.891  15.515  11.746  0.00  0.00     0.233 C 
ENDROOT
BRANCH   1   2
HETATM    2  C   UNK N   1      36.289  14.114  12.217  0.00  0.00     0.112 C 
BRANCH   2   3
HETATM    3  C   UNK N   1      36.469  14.138  13.737  0.00  0.00     0.032 C 
BRANCH   3   4
HETATM    4  C   UNK N   1      35.454  13.293  14.495  0.00  0.00    -0.013 C 
HETATM    5  C   UNK N   1      34.998  12.155  13.586  0.00  0.00     0.005 C 
HETATM    6  C   UNK N   1      33.976  11.276  14.303  0.00  0.00     0.000 C 
HETATM    7  C   UNK N   1      34.564  10.727  15.602  0.00  0.00     0.000 C 
HETATM    8  C   UNK N   1      35.012  11.873  16.503  0.00  0.00     0.000 C 
HETATM    9  C   UNK N   1      36.053  12.716  15.779  0.00  0.00     0.005 C 
ENDBRANCH   3   4
ENDBRANCH   2   3
BRANCH   2  10
HETATM   10  N   UNK N   1      37.524  13.684  11.574  0.00  0.00    -0.423 N 
HETATM   11  H   UNK N   1      38.358  13.603  10.993  0.00  0.00     0.150 HD
HETATM   12  H   UNK N   1      37.645  12.816  12.097  0.00  0.00     0.150 HD
ENDBRANCH   2  10
ENDBRANCH   1   2
BRANCH   1  13
HETATM   13  O   UNK N   1      36.899  16.059  10.944  0.00  0.00    -0.384 OA
HETATM   14  H   UNK N   1      37.852  15.881  10.915  0.00  0.00     0.210 HD
ENDBRANCH   1  13
BRANCH   1  15
HETATM   15  C   UNK N   1      34.597  15.527  10.982  0.00  0.00     0.266 C 
HETATM   16  O   UNK N   1      33.718  14.732  11.284  0.00  0.00    -0.269 OA
HETATM   17  N   UNK N   1      34.379  16.448  10.011  0.00  0.00    -0.267 N 
HETATM   18  H   UNK N   1      35.126  16.992   9.673  0.00  0.00     0.190 HD
BRANCH  17  19
HETATM   19  N   UNK N   1      33.114  16.623   9.495  0.00  0.00    -0.298 N 
HETATM   20  H   UNK N   1      32.325  16.573  10.082  0.00  0.00     0.187 HD
BRANCH  19  21
HETATM   21  C   UNK N   1      32.963  16.877   8.110  0.00  0.00     0.048 A 
HETATM   22  C   UNK N   1      34.086  17.065   7.298  0.00  0.00     0.031 A 
HETATM   23  C   UNK N   1      33.921  17.272   5.921  0.00  0.00     0.009 A 
HETATM   24  C   UNK N   1      32.638  17.298   5.363  0.00  0.00    -0.062 A 
HETATM   25  C   UNK N   1      31.517  17.124   6.175  0.00  0.00     0.009 A 
HETATM   26  C   UNK N   1      32.459  17.509   3.903  0.00  0.00     0.048 C 
HETATM   27  C   UNK N   1      31.681  16.911   7.541  0.00  0.00     0.031 A 
ENDBRANCH  19  21
ENDBRANCH  17  19
ENDBRANCH   1  15
TORSDOF 8
ENDMDL
MODEL 3
REMARK VINA RESULT:      -7.2      1.473      9.052
REMARK  8 active torsions:
REMARK  status: ('A' for Active; 'I' for Inactive)
REMARK    1  A    between atoms: C_6  and  C_7 
REMARK    2  A    between atoms: C_7  and  C_8 
REMARK    3  A    between atoms: C_8  and  N_9 
REMARK    4  A    between atoms: C_8  and  C_10 
REMARK    5  A    between atoms: C_10  and  O_11 
REMARK    6  A    between atoms: C_10  and  C_12 
REMARK       I    between atoms: C_12  and  N_14 
REMARK    7  A    between atoms: N_14  and  N_15 
REMARK    8  A    between atoms: N_15  and  C_16 
ROOT
HETATM    1  C   UNK N   1      35.603  13.687  12.033  0.00  0.00     0.233 C 
ENDROOT
BRANCH   1   2
HETATM    2  C   UNK N   1      36.198  13.638  13.442  0.00  0.00     0.112 C 
BRANCH   2   3
HETATM    3  C   UNK N   1      35.113  13.183  14.421  0.00  0.00     0.032 C 
BRANCH   3   4
HETATM    4  C   UNK N   1      35.649  12.701  15.762  0.00  0.00    -0.013 C 
HETATM    5  C   UNK N   1      34.802  13.321  16.871  0.00  0.00     0.005 C 
HETATM    6  C   UNK N   1      35.300  12.867  18.240  0.00  0.00     0.000 C 
HETATM    7  C   UNK N   1      35.282  11.342  18.335  0.00  0.00     0.000 C 
HETATM    8  C   UNK N   1      36.134  10.736  17.226  0.00  0.00     0.000 C 
HETATM    9  C   UNK N   1      35.600  11.176  15.870  0.00  0.00     0.005 C 
ENDBRANCH   3   4
ENDBRANCH   2   3
BRANCH   2  10
HETATM   10  N   UNK N   1      36.707  14.946  13.833  0.00  0.00    -0.423 N 
HETATM   11  H   UNK N   1      36.813  15.916  14.130  0.00  0.00     0.150 HD
HETATM   12  H   UNK N   1      37.700  14.730  13.746  0.00  0.00     0.150 HD
ENDBRANCH   2  10
ENDBRANCH   1   2
BRANCH   1  13
HETATM   13  O   UNK N   1      34.240  13.377  12.073  0.00  0.00    -0.384 OA
HETATM   14  H   UNK N   1      33.781  12.570  12.351  0.00  0.00     0.210 HD
ENDBRANCH   1  13
BRANCH   1  15
HETATM   15  C   UNK N   1      35.783  15.024  11.371  0.00  0.00     0.266 C 
HETATM   16  O   UNK N   1      36.867  15.306  10.881  0.00  0.00    -0.269 OA
HETATM   17  N   UNK N   1      34.741  15.884  11.262  0.00  0.00    -0.267 N 
HETATM   18  H   UNK N   1      33.915  15.723  11.772  0.00  0.00     0.190 HD
BRANCH  17  19
HETATM   19  N   UNK N   1      34.835  16.985  10.440  0.00  0.00    -0.298 N 
HETATM   20  H   UNK N   1      35.364  17.768  10.714  0.00  0.00     0.187 HD
BRANCH  19  21
HETATM   21  C   UNK N   1      34.163  16.973   9.193  0.00  0.00     0.048 A 
HETATM   22  C   UNK N   1      33.178  16.017   8.928  0.00  0.00     0.031 A 
HETATM   23  C   UNK N   1      32.491  16.047   7.706  0.00  0.00     0.009 A 
HETATM   24  C   UNK N   1      32.794  17.026   6.753  0.00  0.00    -0.062 A 
HETATM   25  C   UNK N   1      33.785  17.972   7.012  0.00  0.00     0.009 A 
HETATM   26  C   UNK N   1      32.063  17.066   5.461  0.00  0.00     0.048 C 
HETATM   27  C   UNK N   1      34.463  17.947   8.227  0.00  0.00     0.031 A 
ENDBRANCH  19  21
ENDBRANCH  17  19
ENDBRANCH   1  15
TORSDOF 8
ENDMDL
MODEL 4
REMARK VINA RESULT:      -6.9      1.556      8.916
REMARK  8 active torsions:
REMARK  status: ('A' for Active; 'I' for Inactive)
REMARK    1  A    between atoms: C_6  and  C_7 
REMARK    2  A    between atoms: C_7  and  C_8 
REMARK    3  A    between atoms: C_8  and  N_9 
REMARK    4  A    between atoms: C_8  and  C_10 
REMARK    5  A    between atoms: C_10  and  O_11 
REMARK    6  A    between atoms: C_10  and  C_12 
REMARK       I    between atoms: C_12  and  N_14 
REMARK    7  A    between atoms: N_14  and  N_15 
REMARK    8  A    between atoms: N_15  and  C_16 
ROOT
HETATM    1  C   UNK N   1      35.549  14.529  12.250  0.00  0.00     0.233 C 
ENDROOT
BRANCH   1   2
HETATM    2  C   UNK N   1      35.239  13.480  13.321  0.00  0.00     0.112 C 
BRANCH   2   3
HETATM    3  C   UNK N   1      36.548  13.061  13.994  0.00  0.00     0.032 C 
BRANCH   3   4
HETATM    4  C   UNK N   1      36.634  13.432  15.469  0.00  0.00    -0.013 C 
HETATM    5  C   UNK N   1      37.079  14.888  15.575  0.00  0.00     0.005 C 
HETATM    6  C   UNK N   1      37.180  15.310  17.038  0.00  0.00     0.000 C 
HETATM    7  C   UNK N   1      35.843  15.101  17.747  0.00  0.00     0.000 C 
HETATM    8  C   UNK N   1      35.411  13.643  17.638  0.00  0.00     0.000 C 
HETATM    9  C   UNK N   1      35.286  13.254  16.171  0.00  0.00     0.005 C 
ENDBRANCH   3   4
ENDBRANCH   2   3
BRANCH   2  10
HETATM   10  N   UNK N   1      34.586  12.319  12.732  0.00  0.00    -0.423 N 
HETATM   11  H   UNK N   1      34.228  11.600  12.103  0.00  0.00     0.150 HD
HETATM   12  H   UNK N   1      34.192  11.941  13.595  0.00  0.00     0.150 HD
ENDBRANCH   2  10
ENDBRANCH   1   2
BRANCH   1  13
HETATM   13  O   UNK N   1      36.866  14.387  11.802  0.00  0.00    -0.384 OA
HETATM   14  H   UNK N   1      37.223  13.964  11.005  0.00  0.00     0.210 HD
ENDBRANCH   1  13
BRANCH   1  15
HETATM   15  C   UNK N   1      34.620  14.450  11.072  0.00  0.00     0.266 C 
HETATM   16  O   UNK N   1      34.802  13.589  10.224  0.00  0.00    -0.269 OA
HETATM   17  N   UNK N   1      33.553  15.283  10.980  0.00  0.00    -0.267 N 
HETATM   18  H   UNK N   1      33.483  16.060  11.580  0.00  0.00     0.190 HD
BRANCH  17  19
HETATM   19  N   UNK N   1      32.568  15.044  10.048  0.00  0.00    -0.298 N 
HETATM   20  H   UNK N   1      31.816  14.445  10.260  0.00  0.00     0.187 HD
BRANCH  19  21
HETATM   21  C   UNK N   1      32.650  15.673   8.781  0.00  0.00     0.048 A 
HETATM   22  C   UNK N   1      32.915  17.043   8.686  0.00  0.00     0.031 A 
HETATM   23  C   UNK N   1      33.036  17.641   7.425  0.00  0.00     0.009 A 
HETATM   24  C   UNK N   1      32.886  16.872   6.264  0.00  0.00    -0.062 A 
HETATM   25  C   UNK N   1      32.610  15.508   6.359  0.00  0.00     0.009 A 
HETATM   26  C   UNK N   1      33.023  17.501   4.926  0.00  0.00     0.048 C 
HETATM   27  C   UNK N   1      32.496  14.912   7.612  0.00  0.00     0.031 A 
ENDBRANCH  19  21
ENDBRANCH  17  19
ENDBRANCH   1  15
TORSDOF 8
ENDMDL
MODEL 5
REMARK VINA RESULT:      -6.8      3.382      7.220
REMARK  8 active torsions:
REMARK  status: ('A' for Active; 'I' for Inactive)
REMARK    1  A    between atoms: C_6  and  C_7 
REMARK    2  A    between atoms: C_7  and  C_8 
REMARK    3  A    between atoms: C_8  and  N_9 
REMARK    4  A    between atoms: C_8  and  C_10 
REMARK    5  A    between atoms: C_10  and  O_11 
REMARK    6  A    between atoms: C_10  and  C_12 
REMARK       I    between atoms: C_12  and  N_14 
REMARK    7  A    between atoms: N_14  and  N_15 
REMARK    8  A    between atoms: N_15  and  C_16 
ROOT
HETATM    1  C   UNK N   1      35.803  15.204  10.822  0.00  0.00     0.233 C 
ENDROOT
BRANCH   1   2
HETATM    2  C   UNK N   1      36.705  14.618   9.734  0.00  0.00     0.112 C 
BRANCH   2   3
HETATM    3  C   UNK N   1      36.239  13.194   9.420  0.00  0.00     0.032 C 
BRANCH   3   4
HETATM    4  C   UNK N   1      35.514  13.059   8.087  0.00  0.00    -0.013 C 
HETATM    5  C   UNK N   1      34.028  12.845   8.366  0.00  0.00     0.005 C 
HETATM    6  C   UNK N   1      33.255  12.703   7.058  0.00  0.00     0.000 C 
HETATM    7  C   UNK N   1      33.467  13.933   6.177  0.00  0.00     0.000 C 
HETATM    8  C   UNK N   1      34.954  14.133   5.902  0.00  0.00     0.000 C 
HETATM    9  C   UNK N   1      35.699  14.304   7.219  0.00  0.00     0.005 C 
ENDBRANCH   3   4
ENDBRANCH   2   3
BRANCH   2  10
HETATM   10  N   UNK N   1      38.096  14.603  10.169  0.00  0.00    -0.423 N 
HETATM   11  H   UNK N   1      38.994  14.379  10.596  0.00  0.00     0.150 HD
HETATM   12  H   UNK N   1      38.393  15.448   9.681  0.00  0.00     0.150 HD
ENDBRANCH   2  10
ENDBRANCH   1   2
BRANCH   1  13
HETATM   13  O   UNK N   1      36.550  15.488  11.969  0.00  0.00    -0.384 OA
HETATM   14  H   UNK N   1      37.505  15.446  12.130  0.00  0.00     0.210 HD
ENDBRANCH   1  13
BRANCH   1  15
HETATM   15  C   UNK N   1      35.092  16.451  10.378  0.00  0.00     0.266 C 
HETATM   16  O   UNK N   1      35.688  17.518  10.400  0.00  0.00    -0.269 OA
HETATM   17  N   UNK N   1      33.825  16.389   9.900  0.00  0.00    -0.267 N 
HETATM   18  H   UNK N   1      33.298  15.565  10.010  0.00  0.00     0.190 HD
BRANCH  17  19
HETATM   19  N   UNK N   1      33.272  17.476   9.261  0.00  0.00    -0.298 N 
HETATM   20  H   UNK N   1      33.104  18.312   9.753  0.00  0.00     0.187 HD
BRANCH  19  21
HETATM   21  C   UNK N   1      32.949  17.377   7.885  0.00  0.00     0.048 A 
HETATM   22  C   UNK N   1      31.647  17.064   7.484  0.00  0.00     0.031 A 
HETATM   23  C   UNK N   1      31.334  17.012   6.119  0.00  0.00     0.009 A 
HETATM   24  C   UNK N   1      32.322  17.266   5.160  0.00  0.00    -0.062 A 
HETATM   25  C   UNK N   1      33.624  17.566   5.560  0.00  0.00     0.009 A 
HETATM   26  C   UNK N   1      31.992  17.221   3.713  0.00  0.00     0.048 C 
HETATM   27  C   UNK N   1      33.935  17.624   6.916  0.00  0.00     0.031 A 
ENDBRANCH  19  21
ENDBRANCH  17  19
ENDBRANCH   1  15
TORSDOF 8
ENDMDL
MODEL 6
REMARK VINA RESULT:      -6.8     16.905     19.897
REMARK  8 active torsions:
REMARK  status: ('A' for Active; 'I' for Inactive)
REMARK    1  A    between atoms: C_6  and  C_7 
REMARK    2  A    between atoms: C_7  and  C_8 
REMARK    3  A    between atoms: C_8  and  N_9 
REMARK    4  A    between atoms: C_8  and  C_10 
REMARK    5  A    between atoms: C_10  and  O_11 
REMARK    6  A    between atoms: C_10  and  C_12 
REMARK       I    between atoms: C_12  and  N_14 
REMARK    7  A    between atoms: N_14  and  N_15 
REMARK    8  A    between atoms: N_15  and  C_16 
ROOT
HETATM    1  C   UNK N   1      25.723  24.201  -5.180  0.00  0.00     0.233 C 
ENDROOT
BRANCH   1   2
HETATM    2  C   UNK N   1      25.830  25.404  -6.119  0.00  0.00     0.112 C 
BRANCH   2   3
HETATM    3  C   UNK N   1      24.882  26.500  -5.627  0.00  0.00     0.032 C 
BRANCH   3   4
HETATM    4  C   UNK N   1      25.567  27.827  -5.332  0.00  0.00    -0.013 C 
HETATM    5  C   UNK N   1      25.712  27.969  -3.818  0.00  0.00     0.005 C 
HETATM    6  C   UNK N   1      26.396  29.288  -3.470  0.00  0.00     0.000 C 
HETATM    7  C   UNK N   1      27.760  29.379  -4.153  0.00  0.00     0.000 C 
HETATM    8  C   UNK N   1      27.602  29.240  -5.663  0.00  0.00     0.000 C 
HETATM    9  C   UNK N   1      26.947  27.904  -5.989  0.00  0.00     0.005 C 
ENDBRANCH   3   4
ENDBRANCH   2   3
BRANCH   2  10
HETATM   10  N   UNK N   1      25.490  25.025  -7.484  0.00  0.00    -0.423 N 
HETATM   11  H   UNK N   1      25.135  24.564  -8.322  0.00  0.00     0.150 HD
HETATM   12  H   UNK N   1      25.951  25.805  -7.953  0.00  0.00     0.150 HD
ENDBRANCH   2  10
ENDBRANCH   1   2
BRANCH   1  13
HETATM   13  O   UNK N   1      25.793  23.010  -5.909  0.00  0.00    -0.384 OA
HETATM   14  H   UNK N   1      26.415  22.722  -6.595  0.00  0.00     0.210 HD
ENDBRANCH   1  13
BRANCH   1  15
HETATM   15  C   UNK N   1      26.790  24.191  -4.122  0.00  0.00     0.266 C 
HETATM   16  O   UNK N   1      26.470  24.045  -2.952  0.00  0.00    -0.269 OA
HETATM   17  N   UNK N   1      28.100  24.281  -4.464  0.00  0.00    -0.267 N 
HETATM   18  H   UNK N   1      28.352  24.537  -5.381  0.00  0.00     0.190 HD
BRANCH  17  19
HETATM   19  N   UNK N   1      29.078  24.015  -3.532  0.00  0.00    -0.298 N 
HETATM   20  H   UNK N   1      29.164  24.574  -2.726  0.00  0.00     0.187 HD
BRANCH  19  21
HETATM   21  C   UNK N   1      29.959  22.927  -3.748  0.00  0.00     0.048 A 
HETATM   22  C   UNK N   1      29.829  22.125  -4.885  0.00  0.00     0.031 A 
HETATM   23  C   UNK N   1      30.735  21.079  -5.105  0.00  0.00     0.009 A 
HETATM   24  C   UNK N   1      31.764  20.835  -4.188  0.00  0.00    -0.062 A 
HETATM   25  C   UNK N   1      31.887  21.628  -3.047  0.00  0.00     0.009 A 
HETATM   26  C   UNK N   1      32.733  19.734  -4.422  0.00  0.00     0.048 C 
HETATM   27  C   UNK N   1      30.991  22.670  -2.830  0.00  0.00     0.031 A 
ENDBRANCH  19  21
ENDBRANCH  17  19
ENDBRANCH   1  15
TORSDOF 8
ENDMDL
MODEL 7
REMARK VINA RESULT:      -6.7     16.476     19.362
REMARK  8 active torsions:
REMARK  status: ('A' for Active; 'I' for Inactive)
REMARK    1  A    between atoms: C_6  and  C_7 
REMARK    2  A    between atoms: C_7  and  C_8 
REMARK    3  A    between atoms: C_8  and  N_9 
REMARK    4  A    between atoms: C_8  and  C_10 
REMARK    5  A    between atoms: C_10  and  O_11 
REMARK    6  A    between atoms: C_10  and  C_12 
REMARK       I    between atoms: C_12  and  N_14 
REMARK    7  A    between atoms: N_14  and  N_15 
REMARK    8  A    between atoms: N_15  and  C_16 
ROOT
HETATM    1  C   UNK N   1      31.240  21.579  -3.052  0.00  0.00     0.233 C 
ENDROOT
BRANCH   1   2
HETATM    2  C   UNK N   1      31.689  22.011  -4.449  0.00  0.00     0.112 C 
BRANCH   2   3
HETATM    3  C   UNK N   1      31.434  20.861  -5.427  0.00  0.00     0.032 C 
BRANCH   3   4
HETATM    4  C   UNK N   1      30.028  20.846  -6.013  0.00  0.00    -0.013 C 
HETATM    5  C   UNK N   1      29.638  22.279  -6.369  0.00  0.00     0.005 C 
HETATM    6  C   UNK N   1      28.233  22.317  -6.962  0.00  0.00     0.000 C 
HETATM    7  C   UNK N   1      28.149  21.413  -8.192  0.00  0.00     0.000 C 
HETATM    8  C   UNK N   1      28.536  19.986  -7.823  0.00  0.00     0.000 C 
HETATM    9  C   UNK N   1      29.952  19.968  -7.263  0.00  0.00     0.005 C 
ENDBRANCH   3   4
ENDBRANCH   2   3
BRANCH   2  10
HETATM   10  N   UNK N   1      33.103  22.364  -4.451  0.00  0.00    -0.423 N 
HETATM   11  H   UNK N   1      34.118  22.376  -4.350  0.00  0.00     0.150 HD
HETATM   12  H   UNK N   1      33.004  23.291  -4.866  0.00  0.00     0.150 HD
ENDBRANCH   2  10
ENDBRANCH   1   2
BRANCH   1  13
HETATM   13  O   UNK N   1      32.344  21.477  -2.199  0.00  0.00    -0.384 OA
HETATM   14  H   UNK N   1      32.751  22.129  -1.609  0.00  0.00     0.210 HD
ENDBRANCH   1  13
BRANCH   1  15
HETATM   15  C   UNK N   1      30.238  22.520  -2.446  0.00  0.00     0.266 C 
HETATM   16  O   UNK N   1      30.536  23.140  -1.435  0.00  0.00    -0.269 OA
HETATM   17  N   UNK N   1      29.040  22.730  -3.045  0.00  0.00    -0.267 N 
HETATM   18  H   UNK N   1      28.743  22.136  -3.772  0.00  0.00     0.190 HD
BRANCH  17  19
HETATM   19  N   UNK N   1      28.235  23.771  -2.639  0.00  0.00    -0.298 N 
HETATM   20  H   UNK N   1      28.142  23.986  -1.683  0.00  0.00     0.187 HD
BRANCH  19  21
HETATM   21  C   UNK N   1      27.544  24.530  -3.615  0.00  0.00     0.048 A 
HETATM   22  C   UNK N   1      28.088  25.724  -4.099  0.00  0.00     0.031 A 
HETATM   23  C   UNK N   1      27.412  26.441  -5.096  0.00  0.00     0.009 A 
HETATM   24  C   UNK N   1      26.195  25.967  -5.601  0.00  0.00    -0.062 A 
HETATM   25  C   UNK N   1      25.647  24.783  -5.110  0.00  0.00     0.009 A 
HETATM   26  C   UNK N   1      25.482  26.719  -6.664  0.00  0.00     0.048 C 
HETATM   27  C   UNK N   1      26.321  24.067  -4.124  0.00  0.00     0.031 A 
ENDBRANCH  19  21
ENDBRANCH  17  19
ENDBRANCH   1  15
TORSDOF 8
ENDMDL
MODEL 8
REMARK VINA RESULT:      -6.7      1.157      1.977
REMARK  8 active torsions:
REMARK  status: ('A' for Active; 'I' for Inactive)
REMARK    1  A    between atoms: C_6  and  C_7 
REMARK    2  A    between atoms: C_7  and  C_8 
REMARK    3  A    between atoms: C_8  and  N_9 
REMARK    4  A    between atoms: C_8  and  C_10 
REMARK    5  A    between atoms: C_10  and  O_11 
REMARK    6  A    between atoms: C_10  and  C_12 
REMARK       I    between atoms: C_12  and  N_14 
REMARK    7  A    between atoms: N_14  and  N_15 
REMARK    8  A    between atoms: N_15  and  C_16 
ROOT
HETATM    1  C   UNK N   1      34.440  15.877  10.222  0.00  0.00     0.233 C 
ENDROOT
BRANCH   1   2
HETATM    2  C   UNK N   1      34.687  15.709   8.721  0.00  0.00     0.112 C 
BRANCH   2   3
HETATM    3  C   UNK N   1      33.371  15.317   8.046  0.00  0.00     0.032 C 
BRANCH   3   4
HETATM    4  C   UNK N   1      32.794  16.396   7.138  0.00  0.00    -0.013 C 
HETATM    5  C   UNK N   1      33.722  16.563   5.937  0.00  0.00     0.005 C 
HETATM    6  C   UNK N   1      33.185  17.636   4.994  0.00  0.00     0.000 C 
HETATM    7  C   UNK N   1      31.769  17.287   4.538  0.00  0.00     0.000 C 
HETATM    8  C   UNK N   1      30.852  17.127   5.746  0.00  0.00     0.000 C 
HETATM    9  C   UNK N   1      31.389  16.030   6.656  0.00  0.00     0.005 C 
ENDBRANCH   3   4
ENDBRANCH   2   3
BRANCH   2  10
HETATM   10  N   UNK N   1      35.697  14.688   8.475  0.00  0.00    -0.423 N 
HETATM   11  H   UNK N   1      36.565  14.164   8.366  0.00  0.00     0.150 HD
HETATM   12  H   UNK N   1      35.058  13.932   8.227  0.00  0.00     0.150 HD
ENDBRANCH   2  10
ENDBRANCH   1   2
BRANCH   1  13
HETATM   13  O   UNK N   1      33.379  15.064  10.632  0.00  0.00    -0.384 OA
HETATM   14  H   UNK N   1      32.851  15.072  11.445  0.00  0.00     0.210 HD
ENDBRANCH   1  13
BRANCH   1  15
HETATM   15  C   UNK N   1      35.652  15.555  11.051  0.00  0.00     0.266 C 
HETATM   16  O   UNK N   1      36.654  16.246  10.937  0.00  0.00    -0.269 OA
HETATM   17  N   UNK N   1      35.617  14.549  11.960  0.00  0.00    -0.267 N 
HETATM   18  H   UNK N   1      34.870  13.908  11.956  0.00  0.00     0.190 HD
BRANCH  17  19
HETATM   19  N   UNK N   1      36.625  14.421  12.889  0.00  0.00    -0.298 N 
HETATM   20  H   UNK N   1      37.565  14.549  12.626  0.00  0.00     0.187 HD
BRANCH  19  21
HETATM   21  C   UNK N   1      36.292  14.105  14.229  0.00  0.00     0.048 A 
HETATM   22  C   UNK N   1      36.973  14.711  15.290  0.00  0.00     0.031 A 
HETATM   23  C   UNK N   1      36.602  14.420  16.610  0.00  0.00     0.009 A 
HETATM   24  C   UNK N   1      35.559  13.522  16.866  0.00  0.00    -0.062 A 
HETATM   25  C   UNK N   1      34.888  12.909  15.808  0.00  0.00     0.009 A 
HETATM   26  C   UNK N   1      35.157  13.219  18.263  0.00  0.00     0.048 C 
HETATM   27  C   UNK N   1      35.252  13.202  14.497  0.00  0.00     0.031 A 
ENDBRANCH  19  21
ENDBRANCH  17  19
ENDBRANCH   1  15
TORSDOF 8
ENDMDL
MODEL 9
REMARK VINA RESULT:      -6.5      1.533      2.234
REMARK  8 active torsions:
REMARK  status: ('A' for Active; 'I' for Inactive)
REMARK    1  A    between atoms: C_6  and  C_7 
REMARK    2  A    between atoms: C_7  and  C_8 
REMARK    3  A    between atoms: C_8  and  N_9 
REMARK    4  A    between atoms: C_8  and  C_10 
REMARK    5  A    between atoms: C_10  and  O_11 
REMARK    6  A    between atoms: C_10  and  C_12 
REMARK       I    between atoms: C_12  and  N_14 
REMARK    7  A    between atoms: N_14  and  N_15 
REMARK    8  A    between atoms: N_15  and  C_16 
ROOT
HETATM    1  C   UNK N   1      35.074  16.517   9.354  0.00  0.00     0.233 C 
ENDROOT
BRANCH   1   2
HETATM    2  C   UNK N   1      33.692  15.901   9.127  0.00  0.00     0.112 C 
BRANCH   2   3
HETATM    3  C   UNK N   1      32.759  16.975   8.561  0.00  0.00     0.032 C 
BRANCH   3   4
HETATM    4  C   UNK N   1      32.371  16.754   7.105  0.00  0.00    -0.013 C 
HETATM    5  C   UNK N   1      33.320  17.565   6.225  0.00  0.00     0.005 C 
HETATM    6  C   UNK N   1      32.971  17.377   4.751  0.00  0.00     0.000 C 
HETATM    7  C   UNK N   1      33.020  15.897   4.376  0.00  0.00     0.000 C 
HETATM    8  C   UNK N   1      32.066  15.099   5.259  0.00  0.00     0.000 C 
HETATM    9  C   UNK N   1      32.452  15.276   6.721  0.00  0.00     0.005 C 
ENDBRANCH   3   4
ENDBRANCH   2   3
BRANCH   2  10
HETATM   10  N   UNK N   1      33.149  15.376  10.374  0.00  0.00    -0.423 N 
HETATM   11  H   UNK N   1      32.714  14.806  11.099  0.00  0.00     0.150 HD
HETATM   12  H   UNK N   1      33.375  16.180  10.961  0.00  0.00     0.150 HD
ENDBRANCH   2  10
ENDBRANCH   1   2
BRANCH   1  13
HETATM   13  O   UNK N   1      35.032  17.896   9.125  0.00  0.00    -0.384 OA
HETATM   14  H   UNK N   1      34.288  18.482   8.917  0.00  0.00     0.210 HD
ENDBRANCH   1  13
BRANCH   1  15
HETATM   15  C   UNK N   1      35.603  16.266  10.738  0.00  0.00     0.266 C 
HETATM   16  O   UNK N   1      35.243  16.989  11.655  0.00  0.00    -0.269 OA
HETATM   17  N   UNK N   1      36.421  15.212  10.981  0.00  0.00    -0.267 N 
HETATM   18  H   UNK N   1      36.821  14.716  10.231  0.00  0.00     0.190 HD
BRANCH  17  19
HETATM   19  N   UNK N   1      36.695  14.833  12.277  0.00  0.00    -0.298 N 
HETATM   20  H   UNK N   1      37.414  15.274  12.784  0.00  0.00     0.187 HD
BRANCH  19  21
HETATM   21  C   UNK N   1      35.926  13.802  12.871  0.00  0.00     0.048 A 
HETATM   22  C   UNK N   1      35.354  12.800  12.081  0.00  0.00     0.031 A 
HETATM   23  C   UNK N   1      34.633  11.763  12.689  0.00  0.00     0.009 A 
HETATM   24  C   UNK N   1      34.482  11.734  14.081  0.00  0.00    -0.062 A 
HETATM   25  C   UNK N   1      35.043  12.739  14.867  0.00  0.00     0.009 A 
HETATM   26  C   UNK N   1      33.727  10.631  14.729  0.00  0.00     0.048 C 
HETATM   27  C   UNK N   1      35.763  13.766  14.265  0.00  0.00     0.031 A 
ENDBRANCH  19  21
ENDBRANCH  17  19
ENDBRANCH   1  15
TORSDOF 8
ENDMDL
