MODEL 1
REMARK VINA RESULT:      -7.3      0.000      0.000
REMARK  2 active torsions:
REMARK  status: ('A' for Active; 'I' for Inactive)
REMARK       I    between atoms: C_3  and  N_4 
REMARK    1  A    between atoms: C_7  and  N_8 
REMARK    2  A    between atoms: C_12  and  C_15 
ROOT
HETATM    1  N   UNK N   1      36.463  14.900  11.913  0.00  0.00    -0.175 N 
ATOM      2  HN  UNK N   1      37.001  15.761  11.813  1.00  0.00     0.186 HD
HETATM    3  C   UNK N   1      35.934  14.303  10.810  0.00  0.00     0.679 A 
HETATM    4  N   UNK N   1      36.116  14.887   9.541  0.00  0.00    -0.234 N 
HETATM    5  N   UNK N   1      35.232  13.142  10.928  0.00  0.00    -0.175 N 
ATOM      6  HN  UNK N   1      34.858  12.695  10.091  1.00  0.00     0.186 HD
HETATM    7  C   UNK N   1      35.024  12.570  12.144  0.00  0.00     0.145 A 
HETATM    8  C   UNK N   1      35.532  13.186  13.287  0.00  0.00     0.118 A 
HETATM    9  C   UNK N   1      36.282  14.357  13.144  0.00  0.00     0.147 A 
HETATM   10  N   UNK N   1      35.302  12.668  14.587  0.00  0.00    -0.374 N 
HETATM   11  C   UNK N   1      35.513  13.533  15.736  0.00  0.00     0.133 C 
HETATM   12  C   UNK N   1      36.855  14.254  15.567  0.00  0.00     0.151 C 
HETATM   13  N   UNK N   1      36.870  14.953  14.292  0.00  0.00    -0.372 N 
HETATM   14  H   UNK N   1      36.546  15.769   9.462  0.00  0.00     0.174 HD
HETATM   15  H   UNK N   1      35.813  14.414   8.733  0.00  0.00     0.174 HD
HETATM   16  H   UNK N   1      35.005  11.737  14.710  0.00  0.00     0.160 HD
HETATM   17  H   UNK N   1      37.287  15.842  14.225  0.00  0.00     0.161 HD
ENDROOT
BRANCH  11  18
HETATM   18  C   UNK N   1      35.408  12.788  17.041  0.00  0.00    -0.034 A 
HETATM   19  C   UNK N   1      35.564  11.393  17.056  0.00  0.00     0.009 A 
HETATM   20  C   UNK N   1      35.512  10.688  18.262  0.00  0.00     0.001 A 
HETATM   21  C   UNK N   1      35.321  11.372  19.464  0.00  0.00     0.000 A 
HETATM   22  C   UNK N   1      35.171  12.761  19.462  0.00  0.00     0.001 A 
HETATM   23  C   UNK N   1      35.212  13.467  18.255  0.00  0.00     0.009 A 
ENDBRANCH  11  18
BRANCH   7  24
HETATM   24  N   UNK N   1      34.285  11.373  12.241  0.00  0.00    -0.383 N 
HETATM   25  H   UNK N   1      33.625  11.257  12.963  0.00  0.00     0.157 HD
HETATM   26  H   UNK N   1      34.429  10.653  11.586  0.00  0.00     0.157 HD
ENDBRANCH   7  24
TORSDOF 2
ENDMDL
MODEL 2
REMARK VINA RESULT:      -6.6      1.168      2.515
REMARK  2 active torsions:
REMARK  status: ('A' for Active; 'I' for Inactive)
REMARK       I    between atoms: C_3  and  N_4 
REMARK    1  A    between atoms: C_7  and  N_8 
REMARK    2  A    between atoms: C_12  and  C_15 
ROOT
HETATM    1  N   UNK N   1      34.946  13.112  11.874  0.00  0.00    -0.175 N 
ATOM      2  HN  UNK N   1      34.413  12.628  11.151  1.00  0.00     0.186 HD
HETATM    3  C   UNK N   1      35.674  14.215  11.551  0.00  0.00     0.679 A 
HETATM    4  N   UNK N   1      35.700  14.674  10.220  0.00  0.00    -0.234 N 
HETATM    5  N   UNK N   1      36.372  14.882  12.512  0.00  0.00    -0.175 N 
ATOM      6  HN  UNK N   1      36.897  15.720  12.261  1.00  0.00     0.186 HD
HETATM    7  C   UNK N   1      36.380  14.447  13.800  0.00  0.00     0.145 A 
HETATM    8  C   UNK N   1      35.666  13.299  14.141  0.00  0.00     0.118 A 
HETATM    9  C   UNK N   1      34.923  12.650  13.150  0.00  0.00     0.147 A 
HETATM   10  N   UNK N   1      35.679  12.766  15.455  0.00  0.00    -0.374 N 
HETATM   11  C   UNK N   1      35.251  11.392  15.661  0.00  0.00     0.133 C 
HETATM   12  C   UNK N   1      33.941  11.167  14.896  0.00  0.00     0.151 C 
HETATM   13  N   UNK N   1      34.131  11.523  13.499  0.00  0.00    -0.372 N 
HETATM   14  H   UNK N   1      35.269  14.147   9.509  0.00  0.00     0.174 HD
HETATM   15  H   UNK N   1      36.151  15.521   9.999  0.00  0.00     0.174 HD
HETATM   16  H   UNK N   1      35.974  13.318  16.216  0.00  0.00     0.160 HD
HETATM   17  H   UNK N   1      33.710  10.981  12.793  0.00  0.00     0.161 HD
ENDROOT
BRANCH  11  18
HETATM   18  C   UNK N   1      35.146  11.037  17.121  0.00  0.00    -0.034 A 
HETATM   19  C   UNK N   1      34.912   9.705  17.493  0.00  0.00     0.009 A 
HETATM   20  C   UNK N   1      34.853   9.347  18.843  0.00  0.00     0.001 A 
HETATM   21  C   UNK N   1      35.042  10.315  19.832  0.00  0.00     0.000 A 
HETATM   22  C   UNK N   1      35.282  11.644  19.473  0.00  0.00     0.001 A 
HETATM   23  C   UNK N   1      35.331  12.005  18.122  0.00  0.00     0.009 A 
ENDBRANCH  11  18
BRANCH   7  24
HETATM   24  N   UNK N   1      37.120  15.148  14.775  0.00  0.00    -0.383 N 
HETATM   25  H   UNK N   1      37.807  15.799  14.501  0.00  0.00     0.157 HD
HETATM   26  H   UNK N   1      36.950  14.986  15.731  0.00  0.00     0.157 HD
ENDBRANCH   7  24
TORSDOF 2
ENDMDL
MODEL 3
REMARK VINA RESULT:      -6.3      3.867      8.625
REMARK  2 active torsions:
REMARK  status: ('A' for Active; 'I' for Inactive)
REMARK       I    between atoms: C_3  and  N_4 
REMARK    1  A    between atoms: C_7  and  N_8 
REMARK    2  A    between atoms: C_12  and  C_15 
ROOT
HETATM    1  N   UNK N   1      35.180  14.197  12.369  0.00  0.00    -0.175 N 
ATOM      2  HN  UNK N   1      34.462  14.210  13.093  1.00  0.00     0.186 HD
HETATM    3  C   UNK N   1      36.442  13.791  12.678  0.00  0.00     0.679 A 
HETATM    4  N   UNK N   1      36.752  13.407  13.997  0.00  0.00    -0.234 N 
HETATM    5  N   UNK N   1      37.404  13.749  11.715  0.00  0.00    -0.175 N 
ATOM      6  HN  UNK N   1      38.340  13.422  11.955  1.00  0.00     0.186 HD
HETATM    7  C   UNK N   1      37.135  14.134  10.439  0.00  0.00     0.145 A 
HETATM    8  C   UNK N   1      35.856  14.584  10.114  0.00  0.00     0.118 A 
HETATM    9  C   UNK N   1      34.871  14.584  11.105  0.00  0.00     0.147 A 
HETATM   10  N   UNK N   1      35.529  15.050   8.815  0.00  0.00    -0.374 N 
HETATM   11  C   UNK N   1      34.330  15.851   8.637  0.00  0.00     0.133 C 
HETATM   12  C   UNK N   1      33.172  15.172   9.378  0.00  0.00     0.151 C 
HETATM   13  N   UNK N   1      33.545  14.969  10.769  0.00  0.00    -0.372 N 
HETATM   14  H   UNK N   1      36.085  13.519  14.712  0.00  0.00     0.174 HD
HETATM   15  H   UNK N   1      37.637  13.028  14.204  0.00  0.00     0.174 HD
HETATM   16  H   UNK N   1      36.106  14.835   8.046  0.00  0.00     0.160 HD
HETATM   17  H   UNK N   1      32.876  15.098  11.480  0.00  0.00     0.161 HD
ENDROOT
BRANCH  11  18
HETATM   18  C   UNK N   1      34.023  16.109   7.184  0.00  0.00    -0.034 A 
HETATM   19  C   UNK N   1      34.109  15.055   6.262  0.00  0.00     0.009 A 
HETATM   20  C   UNK N   1      33.787  15.264   4.917  0.00  0.00     0.001 A 
HETATM   21  C   UNK N   1      33.364  16.523   4.487  0.00  0.00     0.000 A 
HETATM   22  C   UNK N   1      33.269  17.578   5.398  0.00  0.00     0.001 A 
HETATM   23  C   UNK N   1      33.601  17.374   6.742  0.00  0.00     0.009 A 
ENDBRANCH  11  18
BRANCH   7  24
HETATM   24  N   UNK N   1      38.152  14.092   9.462  0.00  0.00    -0.383 N 
HETATM   25  H   UNK N   1      38.292  13.276   8.929  0.00  0.00     0.157 HD
HETATM   26  H   UNK N   1      38.722  14.880   9.314  0.00  0.00     0.157 HD
ENDBRANCH   7  24
TORSDOF 2
ENDMDL
MODEL 4
REMARK VINA RESULT:      -6.1      4.814      9.464
REMARK  2 active torsions:
REMARK  status: ('A' for Active; 'I' for Inactive)
REMARK       I    between atoms: C_3  and  N_4 
REMARK    1  A    between atoms: C_7  and  N_8 
REMARK    2  A    between atoms: C_12  and  C_15 
ROOT
HETATM    1  N   UNK N   1      34.207  13.623  11.133  0.00  0.00    -0.175 N 
ATOM      2  HN  UNK N   1      33.901  12.668  11.318  1.00  0.00     0.186 HD
HETATM    3  C   UNK N   1      35.042  14.245  12.009  0.00  0.00     0.679 A 
HETATM    4  N   UNK N   1      35.466  13.573  13.172  0.00  0.00    -0.234 N 
HETATM    5  N   UNK N   1      35.475  15.512  11.763  0.00  0.00    -0.175 N 
ATOM      6  HN  UNK N   1      36.117  15.959  12.417  1.00  0.00     0.186 HD
HETATM    7  C   UNK N   1      35.064  16.190  10.658  0.00  0.00     0.145 A 
HETATM    8  C   UNK N   1      34.181  15.579   9.768  0.00  0.00     0.118 A 
HETATM    9  C   UNK N   1      33.778  14.264  10.016  0.00  0.00     0.147 A 
HETATM   10  N   UNK N   1      33.674  16.253   8.628  0.00  0.00    -0.374 N 
HETATM   11  C   UNK N   1      32.491  15.727   7.968  0.00  0.00     0.133 C 
HETATM   12  C   UNK N   1      32.663  14.214   7.788  0.00  0.00     0.151 C 
HETATM   13  N   UNK N   1      32.940  13.603   9.078  0.00  0.00    -0.372 N 
HETATM   14  H   UNK N   1      35.088  12.692  13.398  0.00  0.00     0.174 HD
HETATM   15  H   UNK N   1      36.139  13.984  13.761  0.00  0.00     0.174 HD
HETATM   16  H   UNK N   1      34.117  17.066   8.289  0.00  0.00     0.160 HD
HETATM   17  H   UNK N   1      32.545  12.730   9.303  0.00  0.00     0.161 HD
ENDROOT
BRANCH  11  18
HETATM   18  C   UNK N   1      32.190  16.440   6.676  0.00  0.00    -0.034 A 
HETATM   19  C   UNK N   1      33.248  16.925   5.891  0.00  0.00     0.009 A 
HETATM   20  C   UNK N   1      32.992  17.552   4.668  0.00  0.00     0.001 A 
HETATM   21  C   UNK N   1      31.679  17.686   4.213  0.00  0.00     0.000 A 
HETATM   22  C   UNK N   1      30.618  17.202   4.983  0.00  0.00     0.001 A 
HETATM   23  C   UNK N   1      30.872  16.584   6.212  0.00  0.00     0.009 A 
ENDBRANCH  11  18
BRANCH   7  24
HETATM   24  N   UNK N   1      35.517  17.506  10.431  0.00  0.00    -0.383 N 
HETATM   25  H   UNK N   1      34.892  18.195  10.108  0.00  0.00     0.157 HD
HETATM   26  H   UNK N   1      36.460  17.736  10.595  0.00  0.00     0.157 HD
ENDBRANCH   7  24
TORSDOF 2
ENDMDL
MODEL 5
REMARK VINA RESULT:      -6.1      4.851      9.618
REMARK  2 active torsions:
REMARK  status: ('A' for Active; 'I' for Inactive)
REMARK       I    between atoms: C_3  and  N_4 
REMARK    1  A    between atoms: C_7  and  N_8 
REMARK    2  A    between atoms: C_12  and  C_15 
ROOT
HETATM    1  N   UNK N   1      36.596  13.357  10.140  0.00  0.00    -0.175 N 
ATOM      2  HN  UNK N   1      36.981  12.415  10.070  1.00  0.00     0.186 HD
HETATM    3  C   UNK N   1      36.680  14.035  11.317  0.00  0.00     0.679 A 
HETATM    4  N   UNK N   1      37.283  13.425  12.435  0.00  0.00    -0.234 N 
HETATM    5  N   UNK N   1      36.189  15.301  11.417  0.00  0.00    -0.175 N 
ATOM      6  HN  UNK N   1      36.278  15.805  12.299  1.00  0.00     0.186 HD
HETATM    7  C   UNK N   1      35.584  15.903  10.359  0.00  0.00     0.145 A 
HETATM    8  C   UNK N   1      35.460  15.210   9.155  0.00  0.00     0.118 A 
HETATM    9  C   UNK N   1      36.004  13.926   9.058  0.00  0.00     0.147 A 
HETATM   10  N   UNK N   1      34.792  15.763   8.033  0.00  0.00    -0.374 N 
HETATM   11  C   UNK N   1      34.360  14.877   6.965  0.00  0.00     0.133 C 
HETATM   12  C   UNK N   1      35.515  13.932   6.615  0.00  0.00     0.151 C 
HETATM   13  N   UNK N   1      35.952  13.239   7.816  0.00  0.00    -0.372 N 
HETATM   14  H   UNK N   1      37.560  12.482  12.393  0.00  0.00     0.174 HD
HETATM   15  H   UNK N   1      37.427  13.943  13.260  0.00  0.00     0.174 HD
HETATM   16  H   UNK N   1      34.623  16.732   7.979  0.00  0.00     0.160 HD
HETATM   17  H   UNK N   1      36.212  12.290   7.768  0.00  0.00     0.161 HD
ENDROOT
BRANCH  11  18
HETATM   18  C   UNK N   1      33.837  15.631   5.771  0.00  0.00    -0.034 A 
HETATM   19  C   UNK N   1      33.420  16.963   5.922  0.00  0.00     0.009 A 
HETATM   20  C   UNK N   1      32.972  17.694   4.817  0.00  0.00     0.001 A 
HETATM   21  C   UNK N   1      32.951  17.105   3.551  0.00  0.00     0.000 A 
HETATM   22  C   UNK N   1      33.370  15.782   3.388  0.00  0.00     0.001 A 
HETATM   23  C   UNK N   1      33.809  15.046   4.493  0.00  0.00     0.009 A 
ENDBRANCH  11  18
BRANCH   7  24
HETATM   24  N   UNK N   1      35.073  17.211  10.491  0.00  0.00    -0.383 N 
HETATM   25  H   UNK N   1      35.576  17.889  10.997  0.00  0.00     0.157 HD
HETATM   26  H   UNK N   1      34.212  17.445  10.075  0.00  0.00     0.157 HD
ENDBRANCH   7  24
TORSDOF 2
ENDMDL
MODEL 6
REMARK VINA RESULT:      -6.1     16.586     18.238
REMARK  2 active torsions:
REMARK  status: ('A' for Active; 'I' for Inactive)
REMARK       I    between atoms: C_3  and  N_4 
REMARK    1  A    between atoms: C_7  and  N_8 
REMARK    2  A    between atoms: C_12  and  C_15 
ROOT
HETATM    1  N   UNK N   1      20.968  19.583   3.015  0.00  0.00    -0.175 N 
ATOM      2  HN  UNK N   1      21.300  20.522   3.238  1.00  0.00     0.186 HD
HETATM    3  C   UNK N   1      20.514  19.308   1.762  0.00  0.00     0.679 A 
HETATM    4  N   UNK N   1      20.489  20.323   0.786  0.00  0.00    -0.234 N 
HETATM    5  N   UNK N   1      20.089  18.053   1.448  0.00  0.00    -0.175 N 
ATOM      6  HN  UNK N   1      19.770  17.854   0.499  1.00  0.00     0.186 HD
HETATM    7  C   UNK N   1      20.082  17.062   2.378  0.00  0.00     0.145 A 
HETATM    8  C   UNK N   1      20.513  17.337   3.675  0.00  0.00     0.118 A 
HETATM    9  C   UNK N   1      20.983  18.619   3.971  0.00  0.00     0.147 A 
HETATM   10  N   UNK N   1      20.480  16.360   4.703  0.00  0.00    -0.374 N 
HETATM   11  C   UNK N   1      20.567  16.792   6.087  0.00  0.00     0.133 C 
HETATM   12  C   UNK N   1      21.709  17.808   6.212  0.00  0.00     0.151 C 
HETATM   13  N   UNK N   1      21.496  18.892   5.268  0.00  0.00    -0.372 N 
HETATM   14  H   UNK N   1      20.713  21.249   1.033  0.00  0.00     0.174 HD
HETATM   15  H   UNK N   1      20.248  20.106  -0.143  0.00  0.00     0.174 HD
HETATM   16  H   UNK N   1      20.398  15.403   4.482  0.00  0.00     0.160 HD
HETATM   17  H   UNK N   1      21.707  19.818   5.528  0.00  0.00     0.161 HD
ENDROOT
BRANCH  11  18
HETATM   18  C   UNK N   1      20.704  15.636   7.042  0.00  0.00    -0.034 A 
HETATM   19  C   UNK N   1      20.886  14.339   6.536  0.00  0.00     0.009 A 
HETATM   20  C   UNK N   1      21.057  13.258   7.406  0.00  0.00     0.001 A 
HETATM   21  C   UNK N   1      21.065  13.466   8.786  0.00  0.00     0.000 A 
HETATM   22  C   UNK N   1      20.892  14.753   9.301  0.00  0.00     0.001 A 
HETATM   23  C   UNK N   1      20.709  15.834   8.433  0.00  0.00     0.009 A 
ENDBRANCH  11  18
BRANCH   7  24
HETATM   24  N   UNK N   1      19.626  15.773   2.030  0.00  0.00    -0.383 N 
HETATM   25  H   UNK N   1      18.754  15.660   1.587  0.00  0.00     0.157 HD
HETATM   26  H   UNK N   1      20.181  14.985   2.231  0.00  0.00     0.157 HD
ENDBRANCH   7  24
TORSDOF 2
ENDMDL
MODEL 7
REMARK VINA RESULT:      -5.9     15.763     17.787
REMARK  2 active torsions:
REMARK  status: ('A' for Active; 'I' for Inactive)
REMARK       I    between atoms: C_3  and  N_4 
REMARK    1  A    between atoms: C_7  and  N_8 
REMARK    2  A    between atoms: C_12  and  C_15 
ROOT
HETATM    1  N   UNK N   1      21.871  20.451   2.352  0.00  0.00    -0.175 N 
ATOM      2  HN  UNK N   1      22.520  21.222   2.195  1.00  0.00     0.186 HD
HETATM    3  C   UNK N   1      20.665  20.446   1.723  0.00  0.00     0.679 A 
HETATM    4  N   UNK N   1      20.312  21.512   0.873  0.00  0.00    -0.234 N 
HETATM    5  N   UNK N   1      19.799  19.412   1.908  0.00  0.00    -0.175 N 
ATOM      6  HN  UNK N   1      18.906  19.410   1.414  1.00  0.00     0.186 HD
HETATM    7  C   UNK N   1      20.106  18.381   2.740  0.00  0.00     0.145 A 
HETATM    8  C   UNK N   1      21.325  18.388   3.418  0.00  0.00     0.118 A 
HETATM    9  C   UNK N   1      22.218  19.437   3.186  0.00  0.00     0.147 A 
HETATM   10  N   UNK N   1      21.679  17.370   4.339  0.00  0.00    -0.374 N 
HETATM   11  C   UNK N   1      22.755  17.620   5.283  0.00  0.00     0.133 C 
HETATM   12  C   UNK N   1      23.939  18.232   4.526  0.00  0.00     0.151 C 
HETATM   13  N   UNK N   1      23.494  19.418   3.812  0.00  0.00    -0.372 N 
HETATM   14  H   UNK N   1      20.897  22.302   0.804  0.00  0.00     0.174 HD
HETATM   15  H   UNK N   1      19.482  21.469   0.347  0.00  0.00     0.174 HD
HETATM   16  H   UNK N   1      21.203  16.507   4.340  0.00  0.00     0.160 HD
HETATM   17  H   UNK N   1      24.077  20.209   3.762  0.00  0.00     0.161 HD
ENDROOT
BRANCH  11  18
HETATM   18  C   UNK N   1      23.133  16.387   6.063  0.00  0.00    -0.034 A 
HETATM   19  C   UNK N   1      22.154  15.715   6.811  0.00  0.00     0.009 A 
HETATM   20  C   UNK N   1      22.474  14.546   7.507  0.00  0.00     0.001 A 
HETATM   21  C   UNK N   1      23.770  14.030   7.448  0.00  0.00     0.000 A 
HETATM   22  C   UNK N   1      24.751  14.687   6.701  0.00  0.00     0.001 A 
HETATM   23  C   UNK N   1      24.436  15.863   6.013  0.00  0.00     0.009 A 
ENDBRANCH  11  18
BRANCH   7  24
HETATM   24  N   UNK N   1      19.188  17.327   2.924  0.00  0.00    -0.383 N 
HETATM   25  H   UNK N   1      19.009  16.978   3.827  0.00  0.00     0.157 HD
HETATM   26  H   UNK N   1      18.724  16.939   2.147  0.00  0.00     0.157 HD
ENDBRANCH   7  24
TORSDOF 2
ENDMDL
MODEL 8
REMARK VINA RESULT:      -5.9      5.390      9.467
REMARK  2 active torsions:
REMARK  status: ('A' for Active; 'I' for Inactive)
REMARK       I    between atoms: C_3  and  N_4 
REMARK    1  A    between atoms: C_7  and  N_8 
REMARK    2  A    between atoms: C_12  and  C_15 
ROOT
HETATM    1  N   UNK N   1      35.601  15.962  10.269  0.00  0.00    -0.175 N 
ATOM      2  HN  UNK N   1      36.279  16.677  10.532  1.00  0.00     0.186 HD
HETATM    3  C   UNK N   1      35.745  14.692  10.739  0.00  0.00     0.679 A 
HETATM    4  N   UNK N   1      36.837  14.371  11.569  0.00  0.00    -0.234 N 
HETATM    5  N   UNK N   1      34.835  13.733  10.413  0.00  0.00    -0.175 N 
ATOM      6  HN  UNK N   1      34.943  12.791  10.788  1.00  0.00     0.186 HD
HETATM    7  C   UNK N   1      33.785  14.013   9.596  0.00  0.00     0.145 A 
HETATM    8  C   UNK N   1      33.642  15.301   9.080  0.00  0.00     0.118 A 
HETATM    9  C   UNK N   1      34.563  16.282   9.456  0.00  0.00     0.147 A 
HETATM   10  N   UNK N   1      32.599  15.640   8.181  0.00  0.00    -0.374 N 
HETATM   11  C   UNK N   1      32.720  16.854   7.390  0.00  0.00     0.133 C 
HETATM   12  C   UNK N   1      33.162  17.997   8.312  0.00  0.00     0.151 C 
HETATM   13  N   UNK N   1      34.386  17.616   8.999  0.00  0.00    -0.372 N 
HETATM   14  H   UNK N   1      37.542  15.037  11.735  0.00  0.00     0.174 HD
HETATM   15  H   UNK N   1      36.895  13.479  11.983  0.00  0.00     0.174 HD
HETATM   16  H   UNK N   1      31.805  15.063   8.093  0.00  0.00     0.160 HD
HETATM   17  H   UNK N   1      35.094  18.284   9.147  0.00  0.00     0.161 HD
ENDROOT
BRANCH  11  18
HETATM   18  C   UNK N   1      31.459  17.170   6.629  0.00  0.00    -0.034 A 
HETATM   19  C   UNK N   1      31.495  17.233   5.227  0.00  0.00     0.009 A 
HETATM   20  C   UNK N   1      30.328  17.483   4.500  0.00  0.00     0.001 A 
HETATM   21  C   UNK N   1      29.113  17.657   5.166  0.00  0.00     0.000 A 
HETATM   22  C   UNK N   1      29.064  17.590   6.561  0.00  0.00     0.001 A 
HETATM   23  C   UNK N   1      30.233  17.350   7.291  0.00  0.00     0.009 A 
ENDBRANCH  11  18
BRANCH   7  24
HETATM   24  N   UNK N   1      32.862  13.000   9.265  0.00  0.00    -0.383 N 
HETATM   25  H   UNK N   1      32.069  12.848   9.830  0.00  0.00     0.157 HD
HETATM   26  H   UNK N   1      33.010  12.443   8.467  0.00  0.00     0.157 HD
ENDBRANCH   7  24
TORSDOF 2
ENDMDL
MODEL 9
REMARK VINA RESULT:      -5.8      9.130     10.692
REMARK  2 active torsions:
REMARK  status: ('A' for Active; 'I' for Inactive)
REMARK       I    between atoms: C_3  and  N_4 
REMARK    1  A    between atoms: C_7  and  N_8 
REMARK    2  A    between atoms: C_12  and  C_15 
ROOT
HETATM    1  N   UNK N   1      34.024  14.239   4.345  0.00  0.00    -0.175 N 
ATOM      2  HN  UNK N   1      34.580  13.482   4.745  1.00  0.00     0.186 HD
HETATM    3  C   UNK N   1      34.168  14.559   3.030  0.00  0.00     0.679 A 
HETATM    4  N   UNK N   1      35.094  13.857   2.234  0.00  0.00    -0.234 N 
HETATM    5  N   UNK N   1      33.417  15.552   2.480  0.00  0.00    -0.175 N 
ATOM      6  HN  UNK N   1      33.519  15.769   1.488  1.00  0.00     0.186 HD
HETATM    7  C   UNK N   1      32.531  16.259   3.232  0.00  0.00     0.145 A 
HETATM    8  C   UNK N   1      32.396  15.965   4.588  0.00  0.00     0.118 A 
HETATM    9  C   UNK N   1      33.147  14.917   5.128  0.00  0.00     0.147 A 
HETATM   10  N   UNK N   1      31.530  16.702   5.436  0.00  0.00    -0.374 N 
HETATM   11  C   UNK N   1      31.712  16.614   6.875  0.00  0.00     0.133 C 
HETATM   12  C   UNK N   1      31.875  15.139   7.259  0.00  0.00     0.151 C 
HETATM   13  N   UNK N   1      32.963  14.557   6.490  0.00  0.00    -0.372 N 
HETATM   14  H   UNK N   1      35.700  13.200   2.647  0.00  0.00     0.174 HD
HETATM   15  H   UNK N   1      35.137  14.024   1.265  0.00  0.00     0.174 HD
HETATM   16  H   UNK N   1      30.816  17.264   5.055  0.00  0.00     0.160 HD
HETATM   17  H   UNK N   1      33.574  13.912   6.915  0.00  0.00     0.161 HD
ENDROOT
BRANCH  11  18
HETATM   18  C   UNK N   1      30.608  17.300   7.636  0.00  0.00    -0.034 A 
HETATM   19  C   UNK N   1      29.278  17.141   7.217  0.00  0.00     0.009 A 
HETATM   20  C   UNK N   1      28.234  17.734   7.934  0.00  0.00     0.001 A 
HETATM   21  C   UNK N   1      28.510  18.477   9.084  0.00  0.00     0.000 A 
HETATM   22  C   UNK N   1      29.830  18.636   9.514  0.00  0.00     0.001 A 
HETATM   23  C   UNK N   1      30.876  18.053   8.792  0.00  0.00     0.009 A 
ENDBRANCH  11  18
BRANCH   7  24
HETATM   24  N   UNK N   1      31.772  17.290   2.641  0.00  0.00    -0.383 N 
HETATM   25  H   UNK N   1      30.974  17.074   2.106  0.00  0.00     0.157 HD
HETATM   26  H   UNK N   1      32.041  18.230   2.764  0.00  0.00     0.157 HD
ENDBRANCH   7  24
TORSDOF 2
ENDMDL
