MODEL 1
REMARK VINA RESULT:      -5.7      0.000      0.000
REMARK  5 active torsions:
REMARK  status: ('A' for Active; 'I' for Inactive)
REMARK    1  A    between atoms: C_1  and  C_2 
REMARK    2  A    between atoms: C_1  and  S_4 
REMARK    3  A    between atoms: S_4  and  C_5 
REMARK    4  A    between atoms: C_5  and  C_6 
REMARK       I    between atoms: C_10  and  N_19 
REMARK    5  A    between atoms: C_16  and  N_17 
ROOT
HETATM    1  C   UNK N   1      29.759  17.094   6.281  0.00  0.00    -0.018 A 
HETATM    2  C   UNK N   1      31.097  17.097   5.797  0.00  0.00     0.072 A 
HETATM    3  N   UNK N   1      31.388  16.763   4.513  0.00  0.00    -0.190 N 
ATOM      4  HN  UNK N   1      30.628  16.504   3.883  1.00  0.00     0.184 HD
HETATM    5  C   UNK N   1      32.661  16.763   4.042  0.00  0.00     0.679 A 
HETATM    6  N   UNK N   1      33.689  17.103   4.860  0.00  0.00    -0.156 N 
HETATM    7  C   UNK N   1      33.463  17.450   6.165  0.00  0.00     0.272 A 
HETATM    8  O   UNK N   1      34.404  17.752   6.879  0.00  0.00    -0.267 OA
HETATM    9  C   UNK N   1      32.153  17.455   6.665  0.00  0.00     0.062 A 
HETATM   10  C   UNK N   1      31.883  17.804   7.994  0.00  0.00     0.048 A 
HETATM   11  C   UNK N   1      30.572  17.800   8.466  0.00  0.00     0.027 A 
HETATM   12  C   UNK N   1      29.524  17.449   7.615  0.00  0.00     0.039 A 
HETATM   13  N   UNK N   1      32.913  16.409   2.703  0.00  0.00    -0.234 N 
HETATM   14  H   UNK N   1      34.610  17.100   4.509  0.00  0.00     0.187 HD
HETATM   15  H   UNK N   1      33.835  16.408   2.359  0.00  0.00     0.174 HD
HETATM   16  H   UNK N   1      32.166  16.162   2.109  0.00  0.00     0.174 HD
ENDROOT
BRANCH   1  17
HETATM   17  C   UNK N   1      28.531  16.736   5.475  0.00  0.00     0.114 C 
BRANCH  17  18
HETATM   18  S   UNK N   1      27.912  17.929   4.231  0.00  0.00    -0.164 SA
BRANCH  18  19
HETATM   19  C   UNK N   1      27.055  19.114   5.333  0.00  0.00     0.073 C 
BRANCH  19  20
HETATM   20  C   UNK N   1      27.690  20.486   5.433  0.00  0.00     0.006 C 
HETATM   21  C   UNK N   1      26.933  21.300   6.459  0.00  0.00     0.006 C 
ENDBRANCH  19  20
ENDBRANCH  18  19
ENDBRANCH  17  18
ENDBRANCH   1  17
BRANCH  11  22
HETATM   22  N   UNK N   1      30.303  18.151   9.801  0.00  0.00    -0.399 N 
HETATM   23  H   UNK N   1      29.864  19.009  10.007  0.00  0.00     0.156 HD
HETATM   24  H   UNK N   1      30.554  17.540  10.531  0.00  0.00     0.156 HD
ENDBRANCH  11  22
TORSDOF 5
ENDMDL
MODEL 2
REMARK VINA RESULT:      -5.7      1.410      3.678
REMARK  5 active torsions:
REMARK  status: ('A' for Active; 'I' for Inactive)
REMARK    1  A    between atoms: C_1  and  C_2 
REMARK    2  A    between atoms: C_1  and  S_4 
REMARK    3  A    between atoms: S_4  and  C_5 
REMARK    4  A    between atoms: C_5  and  C_6 
REMARK       I    between atoms: C_10  and  N_19 
REMARK    5  A    between atoms: C_16  and  N_17 
ROOT
HETATM    1  C   UNK N   1      30.605  16.403   4.998  0.00  0.00    -0.018 A 
HETATM    2  C   UNK N   1      31.298  16.967   6.106  0.00  0.00     0.072 A 
HETATM    3  N   UNK N   1      30.662  17.244   7.274  0.00  0.00    -0.190 N 
ATOM      4  HN  UNK N   1      29.665  17.042   7.356  1.00  0.00     0.184 HD
HETATM    5  C   UNK N   1      31.314  17.781   8.336  0.00  0.00     0.679 A 
HETATM    6  N   UNK N   1      32.640  18.058   8.252  0.00  0.00    -0.156 N 
HETATM    7  C   UNK N   1      33.339  17.803   7.103  0.00  0.00     0.272 A 
HETATM    8  O   UNK N   1      34.529  18.061   7.053  0.00  0.00    -0.267 OA
HETATM    9  C   UNK N   1      32.678  17.248   5.997  0.00  0.00     0.062 A 
HETATM   10  C   UNK N   1      33.360  16.973   4.806  0.00  0.00     0.048 A 
HETATM   11  C   UNK N   1      32.680  16.422   3.722  0.00  0.00     0.027 A 
HETATM   12  C   UNK N   1      31.317  16.141   3.821  0.00  0.00     0.039 A 
HETATM   13  N   UNK N   1      30.612  18.050   9.527  0.00  0.00    -0.234 N 
HETATM   14  H   UNK N   1      33.104  18.448   9.029  0.00  0.00     0.187 HD
HETATM   15  H   UNK N   1      31.083  18.440  10.298  0.00  0.00     0.174 HD
HETATM   16  H   UNK N   1      29.650  17.849   9.587  0.00  0.00     0.174 HD
ENDROOT
BRANCH   1  17
HETATM   17  C   UNK N   1      29.136  16.050   4.964  0.00  0.00     0.114 C 
BRANCH  17  18
HETATM   18  S   UNK N   1      28.020  17.012   3.877  0.00  0.00    -0.164 SA
BRANCH  18  19
HETATM   19  C   UNK N   1      27.569  18.373   5.017  0.00  0.00     0.073 C 
BRANCH  19  20
HETATM   20  C   UNK N   1      27.898  19.769   4.526  0.00  0.00     0.006 C 
HETATM   21  C   UNK N   1      26.758  20.262   3.662  0.00  0.00     0.006 C 
ENDBRANCH  19  20
ENDBRANCH  18  19
ENDBRANCH  17  18
ENDBRANCH   1  17
BRANCH  11  22
HETATM   22  N   UNK N   1      33.367  16.146   2.525  0.00  0.00    -0.399 N 
HETATM   23  H   UNK N   1      33.025  15.460   1.907  0.00  0.00     0.156 HD
HETATM   24  H   UNK N   1      34.190  16.640   2.305  0.00  0.00     0.156 HD
ENDBRANCH  11  22
TORSDOF 5
ENDMDL
MODEL 3
REMARK VINA RESULT:      -5.6      2.037      3.609
REMARK  5 active torsions:
REMARK  status: ('A' for Active; 'I' for Inactive)
REMARK    1  A    between atoms: C_1  and  C_2 
REMARK    2  A    between atoms: C_1  and  S_4 
REMARK    3  A    between atoms: S_4  and  C_5 
REMARK    4  A    between atoms: C_5  and  C_6 
REMARK       I    between atoms: C_10  and  N_19 
REMARK    5  A    between atoms: C_16  and  N_17 
ROOT
HETATM    1  C   UNK N   1      30.690  16.992   6.627  0.00  0.00    -0.018 A 
HETATM    2  C   UNK N   1      31.890  16.498   7.209  0.00  0.00     0.072 A 
HETATM    3  N   UNK N   1      31.940  16.100   8.507  0.00  0.00    -0.190 N 
ATOM      4  HN  UNK N   1      31.095  16.158   9.076  1.00  0.00     0.184 HD
HETATM    5  C   UNK N   1      33.081  15.627   9.069  0.00  0.00     0.679 A 
HETATM    6  N   UNK N   1      34.218  15.540   8.334  0.00  0.00    -0.156 N 
HETATM    7  C   UNK N   1      34.235  15.924   7.020  0.00  0.00     0.272 A 
HETATM    8  O   UNK N   1      35.269  15.835   6.381  0.00  0.00    -0.267 OA
HETATM    9  C   UNK N   1      33.064  16.415   6.425  0.00  0.00     0.062 A 
HETATM   10  C   UNK N   1      33.042  16.817   5.084  0.00  0.00     0.048 A 
HETATM   11  C   UNK N   1      31.865  17.301   4.517  0.00  0.00     0.027 A 
HETATM   12  C   UNK N   1      30.704  17.386   5.284  0.00  0.00     0.039 A 
HETATM   13  N   UNK N   1      33.083  15.227  10.420  0.00  0.00    -0.234 N 
HETATM   14  H   UNK N   1      35.041  15.195   8.752  0.00  0.00     0.187 HD
HETATM   15  H   UNK N   1      33.909  14.884  10.830  0.00  0.00     0.174 HD
HETATM   16  H   UNK N   1      32.257  15.291  10.954  0.00  0.00     0.174 HD
ENDROOT
BRANCH   1  17
HETATM   17  C   UNK N   1      29.363  17.138   7.337  0.00  0.00     0.114 C 
BRANCH  17  18
HETATM   18  S   UNK N   1      27.914  17.731   6.388  0.00  0.00    -0.164 SA
BRANCH  18  19
HETATM   19  C   UNK N   1      27.829  19.458   6.994  0.00  0.00     0.073 C 
BRANCH  19  20
HETATM   20  C   UNK N   1      27.650  20.515   5.923  0.00  0.00     0.006 C 
HETATM   21  C   UNK N   1      27.910  19.888   4.571  0.00  0.00     0.006 C 
ENDBRANCH  19  20
ENDBRANCH  18  19
ENDBRANCH  17  18
ENDBRANCH   1  17
BRANCH  11  22
HETATM   22  N   UNK N   1      31.847  17.705   3.169  0.00  0.00    -0.399 N 
HETATM   23  H   UNK N   1      31.101  17.437   2.584  0.00  0.00     0.156 HD
HETATM   24  H   UNK N   1      32.580  18.256   2.810  0.00  0.00     0.156 HD
ENDBRANCH  11  22
TORSDOF 5
ENDMDL
MODEL 4
REMARK VINA RESULT:      -5.5     11.152     12.624
REMARK  5 active torsions:
REMARK  status: ('A' for Active; 'I' for Inactive)
REMARK    1  A    between atoms: C_1  and  C_2 
REMARK    2  A    between atoms: C_1  and  S_4 
REMARK    3  A    between atoms: S_4  and  C_5 
REMARK    4  A    between atoms: C_5  and  C_6 
REMARK       I    between atoms: C_10  and  N_19 
REMARK    5  A    between atoms: C_16  and  N_17 
ROOT
HETATM    1  C   UNK N   1      28.730  22.716  -5.872  0.00  0.00    -0.018 A 
HETATM    2  C   UNK N   1      29.625  22.250  -4.868  0.00  0.00     0.072 A 
HETATM    3  N   UNK N   1      30.435  21.180  -5.078  0.00  0.00    -0.190 N 
ATOM      4  HN  UNK N   1      30.399  20.701  -5.979  1.00  0.00     0.184 HD
HETATM    5  C   UNK N   1      31.291  20.729  -4.127  0.00  0.00     0.679 A 
HETATM    6  N   UNK N   1      31.357  21.349  -2.922  0.00  0.00    -0.156 N 
HETATM    7  C   UNK N   1      30.568  22.433  -2.645  0.00  0.00     0.272 A 
HETATM    8  O   UNK N   1      30.647  22.973  -1.555  0.00  0.00    -0.267 OA
HETATM    9  C   UNK N   1      29.679  22.911  -3.619  0.00  0.00     0.062 A 
HETATM   10  C   UNK N   1      28.856  24.016  -3.374  0.00  0.00     0.048 A 
HETATM   11  C   UNK N   1      27.981  24.471  -4.358  0.00  0.00     0.027 A 
HETATM   12  C   UNK N   1      27.922  23.824  -5.593  0.00  0.00     0.039 A 
HETATM   13  N   UNK N   1      32.110  19.615  -4.392  0.00  0.00    -0.234 N 
HETATM   14  H   UNK N   1      31.982  21.014  -2.237  0.00  0.00     0.187 HD
HETATM   15  H   UNK N   1      32.732  19.286  -3.704  0.00  0.00     0.174 HD
HETATM   16  H   UNK N   1      32.062  19.165  -5.267  0.00  0.00     0.174 HD
ENDROOT
BRANCH   1  17
HETATM   17  C   UNK N   1      28.562  22.115  -7.248  0.00  0.00     0.114 C 
BRANCH  17  18
HETATM   18  S   UNK N   1      27.290  22.811  -8.367  0.00  0.00    -0.164 SA
BRANCH  18  19
HETATM   19  C   UNK N   1      26.590  21.261  -9.046  0.00  0.00     0.073 C 
BRANCH  19  20
HETATM   20  C   UNK N   1      25.594  20.550  -8.152  0.00  0.00     0.006 C 
HETATM   21  C   UNK N   1      24.816  21.585  -7.371  0.00  0.00     0.006 C 
ENDBRANCH  19  20
ENDBRANCH  18  19
ENDBRANCH  17  18
ENDBRANCH   1  17
BRANCH  11  22
HETATM   22  N   UNK N   1      27.155  25.582  -4.108  0.00  0.00    -0.399 N 
HETATM   23  H   UNK N   1      27.421  26.476  -4.428  0.00  0.00     0.156 HD
HETATM   24  H   UNK N   1      26.312  25.468  -3.614  0.00  0.00     0.156 HD
ENDBRANCH  11  22
TORSDOF 5
ENDMDL
MODEL 5
REMARK VINA RESULT:      -5.5      8.095     10.144
REMARK  5 active torsions:
REMARK  status: ('A' for Active; 'I' for Inactive)
REMARK    1  A    between atoms: C_1  and  C_2 
REMARK    2  A    between atoms: C_1  and  S_4 
REMARK    3  A    between atoms: S_4  and  C_5 
REMARK    4  A    between atoms: C_5  and  C_6 
REMARK       I    between atoms: C_10  and  N_19 
REMARK    5  A    between atoms: C_16  and  N_17 
ROOT
HETATM    1  C   UNK N   1      22.175  16.793   4.629  0.00  0.00    -0.018 A 
HETATM    2  C   UNK N   1      21.615  17.884   3.906  0.00  0.00     0.072 A 
HETATM    3  N   UNK N   1      20.341  17.845   3.436  0.00  0.00    -0.190 N 
ATOM      4  HN  UNK N   1      19.775  17.013   3.606  1.00  0.00     0.184 HD
HETATM    5  C   UNK N   1      19.799  18.880   2.745  0.00  0.00     0.679 A 
HETATM    6  N   UNK N   1      20.532  19.997   2.505  0.00  0.00    -0.156 N 
HETATM    7  C   UNK N   1      21.822  20.099   2.952  0.00  0.00     0.272 A 
HETATM    8  O   UNK N   1      22.459  21.113   2.724  0.00  0.00    -0.267 OA
HETATM    9  C   UNK N   1      22.396  19.038   3.667  0.00  0.00     0.062 A 
HETATM   10  C   UNK N   1      23.711  19.106   4.140  0.00  0.00     0.048 A 
HETATM   11  C   UNK N   1      24.257  18.037   4.848  0.00  0.00     0.027 A 
HETATM   12  C   UNK N   1      23.494  16.895   5.088  0.00  0.00     0.039 A 
HETATM   13  N   UNK N   1      18.474  18.793   2.278  0.00  0.00    -0.234 N 
HETATM   14  H   UNK N   1      20.129  20.743   2.003  0.00  0.00     0.187 HD
HETATM   15  H   UNK N   1      18.079  19.542   1.777  0.00  0.00     0.174 HD
HETATM   16  H   UNK N   1      17.942  17.982   2.452  0.00  0.00     0.174 HD
ENDROOT
BRANCH   1  17
HETATM   17  C   UNK N   1      21.466  15.500   4.960  0.00  0.00     0.114 C 
BRANCH  17  18
HETATM   18  S   UNK N   1      21.097  15.119   6.713  0.00  0.00    -0.164 SA
BRANCH  18  19
HETATM   19  C   UNK N   1      20.055  16.565   7.135  0.00  0.00     0.073 C 
BRANCH  19  20
HETATM   20  C   UNK N   1      19.987  16.909   8.610  0.00  0.00     0.006 C 
HETATM   21  C   UNK N   1      18.537  17.093   9.000  0.00  0.00     0.006 C 
ENDBRANCH  19  20
ENDBRANCH  18  19
ENDBRANCH  17  18
ENDBRANCH   1  17
BRANCH  11  22
HETATM   22  N   UNK N   1      25.580  18.108   5.322  0.00  0.00    -0.399 N 
HETATM   23  H   UNK N   1      25.942  18.965   5.648  0.00  0.00     0.156 HD
HETATM   24  H   UNK N   1      26.146  17.302   5.327  0.00  0.00     0.156 HD
ENDBRANCH  11  22
TORSDOF 5
ENDMDL
MODEL 6
REMARK VINA RESULT:      -5.5      7.444      9.608
REMARK  5 active torsions:
REMARK  status: ('A' for Active; 'I' for Inactive)
REMARK    1  A    between atoms: C_1  and  C_2 
REMARK    2  A    between atoms: C_1  and  S_4 
REMARK    3  A    between atoms: S_4  and  C_5 
REMARK    4  A    between atoms: C_5  and  C_6 
REMARK       I    between atoms: C_10  and  N_19 
REMARK    5  A    between atoms: C_16  and  N_17 
ROOT
HETATM    1  C   UNK N   1      21.698  17.480   4.992  0.00  0.00    -0.018 A 
HETATM    2  C   UNK N   1      22.761  18.353   4.627  0.00  0.00     0.072 A 
HETATM    3  N   UNK N   1      23.957  18.325   5.272  0.00  0.00    -0.190 N 
ATOM      4  HN  UNK N   1      24.093  17.661   6.035  1.00  0.00     0.184 HD
HETATM    5  C   UNK N   1      24.976  19.153   4.930  0.00  0.00     0.679 A 
HETATM    6  N   UNK N   1      24.820  20.045   3.919  0.00  0.00    -0.156 N 
HETATM    7  C   UNK N   1      23.640  20.124   3.229  0.00  0.00     0.272 A 
HETATM    8  O   UNK N   1      23.525  20.933   2.325  0.00  0.00    -0.267 OA
HETATM    9  C   UNK N   1      22.577  19.274   3.571  0.00  0.00     0.062 A 
HETATM   10  C   UNK N   1      21.356  19.326   2.888  0.00  0.00     0.048 A 
HETATM   11  C   UNK N   1      20.317  18.470   3.247  0.00  0.00     0.027 A 
HETATM   12  C   UNK N   1      20.490  17.558   4.289  0.00  0.00     0.039 A 
HETATM   13  N   UNK N   1      26.197  19.087   5.628  0.00  0.00    -0.234 N 
HETATM   14  H   UNK N   1      25.565  20.642   3.679  0.00  0.00     0.187 HD
HETATM   15  H   UNK N   1      26.937  19.687   5.383  0.00  0.00     0.174 HD
HETATM   16  H   UNK N   1      26.310  18.440   6.363  0.00  0.00     0.174 HD
ENDROOT
BRANCH   1  17
HETATM   17  C   UNK N   1      21.746  16.448   6.095  0.00  0.00     0.114 C 
BRANCH  17  18
HETATM   18  S   UNK N   1      20.312  15.332   6.324  0.00  0.00    -0.164 SA
BRANCH  18  19
HETATM   19  C   UNK N   1      19.312  16.341   7.479  0.00  0.00     0.073 C 
BRANCH  19  20
HETATM   20  C   UNK N   1      20.033  16.804   8.730  0.00  0.00     0.006 C 
HETATM   21  C   UNK N   1      19.611  18.224   9.037  0.00  0.00     0.006 C 
ENDBRANCH  19  20
ENDBRANCH  18  19
ENDBRANCH  17  18
ENDBRANCH   1  17
BRANCH  11  22
HETATM   22  N   UNK N   1      19.090  18.524   2.560  0.00  0.00    -0.399 N 
HETATM   23  H   UNK N   1      18.891  19.285   1.967  0.00  0.00     0.156 HD
HETATM   24  H   UNK N   1      18.431  17.801   2.671  0.00  0.00     0.156 HD
ENDBRANCH  11  22
TORSDOF 5
ENDMDL
MODEL 7
REMARK VINA RESULT:      -5.4     12.226     13.987
REMARK  5 active torsions:
REMARK  status: ('A' for Active; 'I' for Inactive)
REMARK    1  A    between atoms: C_1  and  C_2 
REMARK    2  A    between atoms: C_1  and  S_4 
REMARK    3  A    between atoms: S_4  and  C_5 
REMARK    4  A    between atoms: C_5  and  C_6 
REMARK       I    between atoms: C_10  and  N_19 
REMARK    5  A    between atoms: C_16  and  N_17 
ROOT
HETATM    1  C   UNK N   1      35.174  10.750  17.640  0.00  0.00    -0.018 A 
HETATM    2  C   UNK N   1      35.074  10.944  16.234  0.00  0.00     0.072 A 
HETATM    3  N   UNK N   1      35.022   9.894  15.374  0.00  0.00    -0.190 N 
ATOM      4  HN  UNK N   1      35.055   8.945  15.747  1.00  0.00     0.184 HD
HETATM    5  C   UNK N   1      34.926  10.070  14.032  0.00  0.00     0.679 A 
HETATM    6  N   UNK N   1      34.881  11.322  13.510  0.00  0.00    -0.156 N 
HETATM    7  C   UNK N   1      34.930  12.423  14.323  0.00  0.00     0.272 A 
HETATM    8  O   UNK N   1      34.887  13.537  13.829  0.00  0.00    -0.267 OA
HETATM    9  C   UNK N   1      35.028  12.257  15.712  0.00  0.00     0.062 A 
HETATM   10  C   UNK N   1      35.081  13.358  16.574  0.00  0.00     0.048 A 
HETATM   11  C   UNK N   1      35.179  13.165  17.951  0.00  0.00     0.027 A 
HETATM   12  C   UNK N   1      35.225  11.873  18.474  0.00  0.00     0.039 A 
HETATM   13  N   UNK N   1      34.874   8.950  13.180  0.00  0.00    -0.234 N 
HETATM   14  H   UNK N   1      34.811  11.439  12.534  0.00  0.00     0.187 HD
HETATM   15  H   UNK N   1      34.805   9.075  12.206  0.00  0.00     0.174 HD
HETATM   16  H   UNK N   1      34.908   8.041  13.559  0.00  0.00     0.174 HD
ENDROOT
BRANCH   1  17
HETATM   17  C   UNK N   1      35.233   9.412  18.342  0.00  0.00     0.114 C 
BRANCH  17  18
HETATM   18  S   UNK N   1      34.456   9.245  19.992  0.00  0.00    -0.164 SA
BRANCH  18  19
HETATM   19  C   UNK N   1      32.938   8.331  19.531  0.00  0.00     0.073 C 
BRANCH  19  20
HETATM   20  C   UNK N   1      31.673   8.768  20.245  0.00  0.00     0.006 C 
HETATM   21  C   UNK N   1      30.603   7.724  20.022  0.00  0.00     0.006 C 
ENDBRANCH  19  20
ENDBRANCH  18  19
ENDBRANCH  17  18
ENDBRANCH   1  17
BRANCH  11  22
HETATM   22  N   UNK N   1      35.232  14.274  18.815  0.00  0.00    -0.399 N 
HETATM   23  H   UNK N   1      36.061  14.802  18.890  0.00  0.00     0.156 HD
HETATM   24  H   UNK N   1      34.440  14.523  19.346  0.00  0.00     0.156 HD
ENDBRANCH  11  22
TORSDOF 5
ENDMDL
MODEL 8
REMARK VINA RESULT:      -5.4     12.322     14.511
REMARK  5 active torsions:
REMARK  status: ('A' for Active; 'I' for Inactive)
REMARK    1  A    between atoms: C_1  and  C_2 
REMARK    2  A    between atoms: C_1  and  S_4 
REMARK    3  A    between atoms: S_4  and  C_5 
REMARK    4  A    between atoms: C_5  and  C_6 
REMARK       I    between atoms: C_10  and  N_19 
REMARK    5  A    between atoms: C_16  and  N_17 
ROOT
HETATM    1  C   UNK N   1      27.970  24.762  -4.407  0.00  0.00    -0.018 A 
HETATM    2  C   UNK N   1      27.162  25.931  -4.337  0.00  0.00     0.072 A 
HETATM    3  N   UNK N   1      27.484  26.970  -3.522  0.00  0.00    -0.190 N 
ATOM      4  HN  UNK N   1      28.325  26.907  -2.948  1.00  0.00     0.184 HD
HETATM    5  C   UNK N   1      26.719  28.088  -3.450  0.00  0.00     0.679 A 
HETATM    6  N   UNK N   1      25.596  28.196  -4.204  0.00  0.00    -0.156 N 
HETATM    7  C   UNK N   1      25.216  27.185  -5.046  0.00  0.00     0.272 A 
HETATM    8  O   UNK N   1      24.203  27.306  -5.713  0.00  0.00    -0.267 OA
HETATM    9  C   UNK N   1      25.997  26.023  -5.131  0.00  0.00     0.062 A 
HETATM   10  C   UNK N   1      25.641  24.968  -5.980  0.00  0.00     0.048 A 
HETATM   11  C   UNK N   1      26.433  23.825  -6.046  0.00  0.00     0.027 A 
HETATM   12  C   UNK N   1      27.585  23.727  -5.266  0.00  0.00     0.039 A 
HETATM   13  N   UNK N   1      27.093  29.139  -2.590  0.00  0.00    -0.234 N 
HETATM   14  H   UNK N   1      25.047  29.012  -4.144  0.00  0.00     0.187 HD
HETATM   15  H   UNK N   1      26.540  29.951  -2.536  0.00  0.00     0.174 HD
HETATM   16  H   UNK N   1      27.909  29.061  -2.043  0.00  0.00     0.174 HD
ENDROOT
BRANCH   1  17
HETATM   17  C   UNK N   1      29.239  24.521  -3.621  0.00  0.00     0.114 C 
BRANCH  17  18
HETATM   18  S   UNK N   1      29.299  23.117  -2.447  0.00  0.00    -0.164 SA
BRANCH  18  19
HETATM   19  C   UNK N   1      30.839  22.303  -3.012  0.00  0.00     0.073 C 
BRANCH  19  20
HETATM   20  C   UNK N   1      30.653  20.967  -3.704  0.00  0.00     0.006 C 
HETATM   21  C   UNK N   1      30.287  21.215  -5.150  0.00  0.00     0.006 C 
ENDBRANCH  19  20
ENDBRANCH  18  19
ENDBRANCH  17  18
ENDBRANCH   1  17
BRANCH  11  22
HETATM   22  N   UNK N   1      26.073  22.766  -6.901  0.00  0.00    -0.399 N 
HETATM   23  H   UNK N   1      25.289  22.854  -7.491  0.00  0.00     0.156 HD
HETATM   24  H   UNK N   1      26.604  21.937  -6.909  0.00  0.00     0.156 HD
ENDBRANCH  11  22
TORSDOF 5
ENDMDL
MODEL 9
REMARK VINA RESULT:      -5.3     11.092     12.650
REMARK  5 active torsions:
REMARK  status: ('A' for Active; 'I' for Inactive)
REMARK    1  A    between atoms: C_1  and  C_2 
REMARK    2  A    between atoms: C_1  and  S_4 
REMARK    3  A    between atoms: S_4  and  C_5 
REMARK    4  A    between atoms: C_5  and  C_6 
REMARK       I    between atoms: C_10  and  N_19 
REMARK    5  A    between atoms: C_16  and  N_17 
ROOT
HETATM    1  C   UNK N   1      30.266  21.500  -6.014  0.00  0.00    -0.018 A 
HETATM    2  C   UNK N   1      29.823  22.351  -4.963  0.00  0.00     0.072 A 
HETATM    3  N   UNK N   1      28.896  23.321  -5.178  0.00  0.00    -0.190 N 
ATOM      4  HN  UNK N   1      28.511  23.440  -6.115  1.00  0.00     0.184 HD
HETATM    5  C   UNK N   1      28.468  24.137  -4.182  0.00  0.00     0.679 A 
HETATM    6  N   UNK N   1      28.965  23.999  -2.927  0.00  0.00    -0.156 N 
HETATM    7  C   UNK N   1      29.901  23.041  -2.644  0.00  0.00     0.272 A 
HETATM    8  O   UNK N   1      30.332  22.937  -1.508  0.00  0.00    -0.267 OA
HETATM    9  C   UNK N   1      30.353  22.190  -3.663  0.00  0.00     0.062 A 
HETATM   10  C   UNK N   1      31.309  21.199  -3.412  0.00  0.00     0.048 A 
HETATM   11  C   UNK N   1      31.742  20.367  -4.443  0.00  0.00     0.027 A 
HETATM   12  C   UNK N   1      31.223  20.519  -5.728  0.00  0.00     0.039 A 
HETATM   13  N   UNK N   1      27.506  25.129  -4.453  0.00  0.00    -0.234 N 
HETATM   14  H   UNK N   1      28.647  24.597  -2.210  0.00  0.00     0.187 HD
HETATM   15  H   UNK N   1      27.193  25.722  -3.733  0.00  0.00     0.174 HD
HETATM   16  H   UNK N   1      27.145  25.229  -5.365  0.00  0.00     0.174 HD
ENDROOT
BRANCH   1  17
HETATM   17  C   UNK N   1      29.792  21.552  -7.448  0.00  0.00     0.114 C 
BRANCH  17  18
HETATM   18  S   UNK N   1      28.512  20.365  -8.000  0.00  0.00    -0.164 SA
BRANCH  18  19
HETATM   19  C   UNK N   1      27.048  21.466  -8.009  0.00  0.00     0.073 C 
BRANCH  19  20
HETATM   20  C   UNK N   1      25.716  20.777  -8.231  0.00  0.00     0.006 C 
HETATM   21  C   UNK N   1      24.677  21.427  -7.346  0.00  0.00     0.006 C 
ENDBRANCH  19  20
ENDBRANCH  18  19
ENDBRANCH  17  18
ENDBRANCH   1  17
BRANCH  11  22
HETATM   22  N   UNK N   1      32.703  19.371  -4.188  0.00  0.00    -0.399 N 
HETATM   23  H   UNK N   1      33.144  19.325  -3.307  0.00  0.00     0.156 HD
HETATM   24  H   UNK N   1      32.935  18.720  -4.889  0.00  0.00     0.156 HD
ENDBRANCH  11  22
TORSDOF 5
ENDMDL
