REMARK  5 active torsions:
REMARK  status: ('A' for Active; 'I' for Inactive)
REMARK    1  A    between atoms: C_1  and  C_2 
REMARK    2  A    between atoms: C_1  and  S_4 
REMARK    3  A    between atoms: S_4  and  C_5 
REMARK    4  A    between atoms: C_5  and  C_6 
REMARK       I    between atoms: C_10  and  N_19 
REMARK    5  A    between atoms: C_16  and  N_17 
ROOT
HETATM    1  C   UNK N   1       0.200  -0.893   0.000  0.00  0.00    -0.018 A 
HETATM    2  C   UNK N   1       1.326  -0.023   0.000  0.00  0.00     0.072 A 
HETATM    3  N   UNK N   1       1.180   1.328   0.000  0.00  0.00    -0.190 N 
ATOM      4  HN  UNK N   1       0.240   1.725   0.000  1.00  0.00     0.184 HD
HETATM    5  C   UNK N   1       2.248   2.165   0.000  0.00  0.00     0.679 A 
HETATM    6  N   UNK N   1       3.508   1.662  -0.000  0.00  0.00    -0.156 N 
HETATM    7  C   UNK N   1       3.724   0.310  -0.000  0.00  0.00     0.272 A 
HETATM    8  O   UNK N   1       4.866  -0.117  -0.000  0.00  0.00    -0.267 OA
HETATM    9  C   UNK N   1       2.630  -0.568  -0.000  0.00  0.00     0.062 A 
HETATM   10  C   UNK N   1       2.811  -1.956  -0.000  0.00  0.00     0.048 A 
HETATM   11  C   UNK N   1       1.707  -2.806   0.000  0.00  0.00     0.027 A 
HETATM   12  C   UNK N   1       0.417  -2.276   0.000  0.00  0.00     0.039 A 
HETATM   13  N   UNK N   1       2.046   3.559   0.000  0.00  0.00    -0.234 N 
HETATM   14  H   UNK N   1       4.277   2.278  -0.000  0.00  0.00     0.187 HD
HETATM   15  H   UNK N   1       2.819   4.168   0.000  0.00  0.00     0.174 HD
HETATM   16  H   UNK N   1       1.131   3.924   0.000  0.00  0.00     0.174 HD
ENDROOT
BRANCH   1  17
HETATM   17  C   UNK N   1      -1.248  -0.459   0.000  0.00  0.00     0.114 C 
BRANCH  17  18
HETATM   18  S   UNK N   1      -1.634   1.331  -0.001  0.00  0.00    -0.164 SA
BRANCH  18  19
HETATM   19  C   UNK N   1      -3.464   1.256   0.001  0.00  0.00     0.073 C 
BRANCH  19  20
HETATM   20  C   UNK N   1      -4.058  -0.139  -0.000  0.00  0.00     0.006 C 
HETATM   21  C   UNK N   1      -5.566  -0.026  -0.000  0.00  0.00     0.006 C 
ENDBRANCH  19  20
ENDBRANCH  18  19
ENDBRANCH  17  18
ENDBRANCH   1  17
BRANCH  11  22
HETATM   22  N   UNK N   1       1.892  -4.201   0.000  0.00  0.00    -0.399 N 
HETATM   23  H   UNK N   1       1.111  -4.802  -0.000  0.00  0.00     0.156 HD
HETATM   24  H   UNK N   1       2.802  -4.577   0.000  0.00  0.00     0.156 HD
ENDBRANCH  11  22
TORSDOF 5
