MODEL 1
REMARK VINA RESULT:      -7.0      0.000      0.000
REMARK  1 active torsions:
REMARK  status: ('A' for Active; 'I' for Inactive)
REMARK    1  A    between atoms: C_2  and  O_1 
ROOT
HETATM    1  C   UNK N   1      26.818  28.537  -3.177  0.00  0.00     0.118 C 
HETATM    2  C   UNK N   1      26.444  29.167  -4.519  0.00  0.00     0.032 C 
HETATM    3  C   UNK N   1      26.950  28.322  -5.692  0.00  0.00     0.012 C 
HETATM    4  C   UNK N   1      26.272  27.106  -3.090  0.00  0.00     0.037 C 
HETATM    5  C   UNK N   1      26.762  26.237  -4.255  0.00  0.00    -0.004 C 
HETATM    6  C   UNK N   1      26.117  24.831  -4.158  0.00  0.00     0.006 C 
HETATM    7  C   UNK N   1      26.424  26.877  -5.625  0.00  0.00    -0.036 C 
HETATM    8  C   UNK N   1      24.891  26.920  -5.786  0.00  0.00     0.016 C 
HETATM    9  C   UNK N   1      27.097  26.031  -6.762  0.00  0.00    -0.002 C 
HETATM   10  C   UNK N   1      26.431  26.292  -8.134  0.00  0.00     0.007 C 
HETATM   11  C   UNK N   1      27.221  24.504  -6.413  0.00  0.00    -0.004 C 
HETATM   12  C   UNK N   1      26.064  24.070  -5.506  0.00  0.00     0.006 C 
HETATM   13  C   UNK N   1      27.407  23.663  -7.705  0.00  0.00     0.005 C 
HETATM   14  C   UNK N   1      27.405  22.160  -7.403  0.00  0.00     0.033 C 
HETATM   15  C   UNK N   1      26.255  23.873  -8.729  0.00  0.00    -0.022 C 
HETATM   16  C   UNK N   1      25.465  25.165  -8.485  0.00  0.00     0.014 C 
HETATM   17  C   UNK N   1      26.782  23.855 -10.159  0.00  0.00     0.020 C 
HETATM   18  C   UNK N   1      25.415  22.665  -8.533  0.00  0.00    -0.021 C 
HETATM   19  C   UNK N   1      26.030  21.742  -7.808  0.00  0.00    -0.029 C 
ENDROOT
BRANCH   1  20
HETATM   20  O   UNK N   1      28.206  28.537  -3.018  0.00  0.00    -0.396 OA
HETATM   21  H   UNK N   1      29.070  28.356  -2.617  0.00  0.00     0.210 HD
ENDBRANCH   1  20
TORSDOF 1
ENDMDL
MODEL 2
REMARK VINA RESULT:      -7.0      1.338      3.066
REMARK  1 active torsions:
REMARK  status: ('A' for Active; 'I' for Inactive)
REMARK    1  A    between atoms: C_2  and  O_1 
ROOT
HETATM    1  C   UNK N   1      27.239  30.349  -3.542  0.00  0.00     0.118 C 
HETATM    2  C   UNK N   1      27.282  29.125  -2.626  0.00  0.00     0.032 C 
HETATM    3  C   UNK N   1      26.527  27.943  -3.240  0.00  0.00     0.012 C 
HETATM    4  C   UNK N   1      27.808  30.001  -4.922  0.00  0.00     0.037 C 
HETATM    5  C   UNK N   1      27.070  28.818  -5.561  0.00  0.00    -0.004 C 
HETATM    6  C   UNK N   1      27.737  28.462  -6.914  0.00  0.00     0.006 C 
HETATM    7  C   UNK N   1      27.072  27.577  -4.633  0.00  0.00    -0.036 C 
HETATM    8  C   UNK N   1      28.524  27.088  -4.462  0.00  0.00     0.016 C 
HETATM    9  C   UNK N   1      26.162  26.466  -5.265  0.00  0.00    -0.002 C 
HETATM   10  C   UNK N   1      26.487  25.069  -4.686  0.00  0.00     0.007 C 
HETATM   11  C   UNK N   1      26.142  26.497  -6.837  0.00  0.00    -0.004 C 
HETATM   12  C   UNK N   1      27.484  27.005  -7.376  0.00  0.00     0.006 C 
HETATM   13  C   UNK N   1      25.670  25.130  -7.403  0.00  0.00     0.005 C 
HETATM   14  C   UNK N   1      25.761  25.094  -8.933  0.00  0.00     0.033 C 
HETATM   15  C   UNK N   1      26.548  23.943  -6.915  0.00  0.00    -0.022 C 
HETATM   16  C   UNK N   1      27.358  24.275  -5.655  0.00  0.00     0.014 C 
HETATM   17  C   UNK N   1      25.703  22.700  -6.670  0.00  0.00     0.020 C 
HETATM   18  C   UNK N   1      27.426  23.680  -8.083  0.00  0.00    -0.021 C 
HETATM   19  C   UNK N   1      27.008  24.309  -9.172  0.00  0.00    -0.029 C 
ENDROOT
BRANCH   1  20
HETATM   20  O   UNK N   1      25.927  30.813  -3.660  0.00  0.00    -0.396 OA
HETATM   21  H   UNK N   1      25.140  31.353  -3.489  0.00  0.00     0.210 HD
ENDBRANCH   1  20
TORSDOF 1
ENDMDL
MODEL 3
REMARK VINA RESULT:      -6.9      2.264      5.730
REMARK  1 active torsions:
REMARK  status: ('A' for Active; 'I' for Inactive)
REMARK    1  A    between atoms: C_2  and  O_1 
ROOT
HETATM    1  C   UNK N   1      25.686  22.691  -8.127  0.00  0.00     0.118 C 
HETATM    2  C   UNK N   1      26.676  23.486  -8.977  0.00  0.00     0.032 C 
HETATM    3  C   UNK N   1      26.614  24.981  -8.652  0.00  0.00     0.012 C 
HETATM    4  C   UNK N   1      25.950  22.932  -6.636  0.00  0.00     0.037 C 
HETATM    5  C   UNK N   1      25.894  24.424  -6.282  0.00  0.00    -0.004 C 
HETATM    6  C   UNK N   1      26.246  24.613  -4.784  0.00  0.00     0.006 C 
HETATM    7  C   UNK N   1      26.867  25.254  -7.158  0.00  0.00    -0.036 C 
HETATM    8  C   UNK N   1      28.312  24.827  -6.834  0.00  0.00     0.016 C 
HETATM    9  C   UNK N   1      26.639  26.778  -6.867  0.00  0.00    -0.002 C 
HETATM   10  C   UNK N   1      27.856  27.627  -7.306  0.00  0.00     0.007 C 
HETATM   11  C   UNK N   1      26.179  27.070  -5.393  0.00  0.00    -0.004 C 
HETATM   12  C   UNK N   1      26.770  26.028  -4.436  0.00  0.00     0.006 C 
HETATM   13  C   UNK N   1      26.454  28.552  -5.019  0.00  0.00     0.005 C 
HETATM   14  C   UNK N   1      26.130  28.830  -3.546  0.00  0.00     0.033 C 
HETATM   15  C   UNK N   1      27.950  28.945  -5.187  0.00  0.00    -0.022 C 
HETATM   16  C   UNK N   1      28.722  27.988  -6.104  0.00  0.00     0.014 C 
HETATM   17  C   UNK N   1      28.087  30.372  -5.702  0.00  0.00     0.020 C 
HETATM   18  C   UNK N   1      28.459  28.908  -3.793  0.00  0.00    -0.021 C 
HETATM   19  C   UNK N   1      27.478  28.835  -2.906  0.00  0.00    -0.029 C 
ENDROOT
BRANCH   1  20
HETATM   20  O   UNK N   1      24.376  23.051  -8.453  0.00  0.00    -0.396 OA
HETATM   21  H   UNK N   1      23.598  23.617  -8.577  0.00  0.00     0.210 HD
ENDBRANCH   1  20
TORSDOF 1
ENDMDL
MODEL 4
REMARK VINA RESULT:      -6.8      2.124      6.147
REMARK  1 active torsions:
REMARK  status: ('A' for Active; 'I' for Inactive)
REMARK    1  A    between atoms: C_2  and  O_1 
ROOT
HETATM    1  C   UNK N   1      26.336  23.243  -7.120  0.00  0.00     0.118 C 
HETATM    2  C   UNK N   1      25.612  23.355  -5.778  0.00  0.00     0.032 C 
HETATM    3  C   UNK N   1      26.326  24.333  -4.840  0.00  0.00     0.012 C 
HETATM    4  C   UNK N   1      26.464  24.625  -7.773  0.00  0.00     0.037 C 
HETATM    5  C   UNK N   1      27.175  25.625  -6.854  0.00  0.00    -0.004 C 
HETATM    6  C   UNK N   1      27.205  27.019  -7.532  0.00  0.00     0.006 C 
HETATM    7  C   UNK N   1      26.477  25.728  -5.474  0.00  0.00    -0.036 C 
HETATM    8  C   UNK N   1      25.065  26.314  -5.675  0.00  0.00     0.016 C 
HETATM    9  C   UNK N   1      27.345  26.630  -4.529  0.00  0.00    -0.002 C 
HETATM   10  C   UNK N   1      26.513  27.175  -3.343  0.00  0.00     0.007 C 
HETATM   11  C   UNK N   1      28.141  27.750  -5.295  0.00  0.00    -0.004 C 
HETATM   12  C   UNK N   1      27.364  28.197  -6.538  0.00  0.00     0.006 C 
HETATM   13  C   UNK N   1      28.554  28.887  -4.322  0.00  0.00     0.005 C 
HETATM   14  C   UNK N   1      29.222  30.049  -5.066  0.00  0.00     0.033 C 
HETATM   15  C   UNK N   1      27.338  29.520  -3.587  0.00  0.00    -0.022 C 
HETATM   16  C   UNK N   1      26.096  28.620  -3.598  0.00  0.00     0.014 C 
HETATM   17  C   UNK N   1      27.695  29.885  -2.151  0.00  0.00     0.020 C 
HETATM   18  C   UNK N   1      27.117  30.780  -4.340  0.00  0.00    -0.021 C 
HETATM   19  C   UNK N   1      28.129  31.061  -5.148  0.00  0.00    -0.029 C 
ENDROOT
BRANCH   1  20
HETATM   20  O   UNK N   1      27.598  22.673  -6.937  0.00  0.00    -0.396 OA
HETATM   21  H   UNK N   1      28.473  22.519  -6.549  0.00  0.00     0.210 HD
ENDBRANCH   1  20
TORSDOF 1
ENDMDL
MODEL 5
REMARK VINA RESULT:      -6.7      3.195      4.259
REMARK  1 active torsions:
REMARK  status: ('A' for Active; 'I' for Inactive)
REMARK    1  A    between atoms: C_2  and  O_1 
ROOT
HETATM    1  C   UNK N   1      25.981  28.522  -4.253  0.00  0.00     0.118 C 
HETATM    2  C   UNK N   1      27.041  28.781  -5.323  0.00  0.00     0.032 C 
HETATM    3  C   UNK N   1      28.367  28.101  -4.969  0.00  0.00     0.012 C 
HETATM    4  C   UNK N   1      25.781  27.014  -4.056  0.00  0.00     0.037 C 
HETATM    5  C   UNK N   1      27.094  26.307  -3.701  0.00  0.00    -0.004 C 
HETATM    6  C   UNK N   1      26.847  24.780  -3.592  0.00  0.00     0.006 C 
HETATM    7  C   UNK N   1      28.195  26.586  -4.757  0.00  0.00    -0.036 C 
HETATM    8  C   UNK N   1      27.763  25.963  -6.099  0.00  0.00     0.016 C 
HETATM    9  C   UNK N   1      29.550  25.980  -4.251  0.00  0.00    -0.002 C 
HETATM   10  C   UNK N   1      30.551  25.780  -5.415  0.00  0.00     0.007 C 
HETATM   11  C   UNK N   1      29.367  24.696  -3.363  0.00  0.00    -0.004 C 
HETATM   12  C   UNK N   1      28.119  23.921  -3.801  0.00  0.00     0.006 C 
HETATM   13  C   UNK N   1      30.682  23.871  -3.319  0.00  0.00     0.005 C 
HETATM   14  C   UNK N   1      30.493  22.551  -2.563  0.00  0.00     0.033 C 
HETATM   15  C   UNK N   1      31.181  23.461  -4.734  0.00  0.00    -0.022 C 
HETATM   16  C   UNK N   1      30.579  24.320  -5.854  0.00  0.00     0.014 C 
HETATM   17  C   UNK N   1      32.702  23.506  -4.814  0.00  0.00     0.020 C 
HETATM   18  C   UNK N   1      30.757  22.042  -4.835  0.00  0.00    -0.021 C 
HETATM   19  C   UNK N   1      30.375  21.552  -3.665  0.00  0.00    -0.029 C 
ENDROOT
BRANCH   1  20
HETATM   20  O   UNK N   1      26.357  29.123  -3.050  0.00  0.00    -0.396 OA
HETATM   21  H   UNK N   1      26.895  29.628  -2.420  0.00  0.00     0.210 HD
ENDBRANCH   1  20
TORSDOF 1
ENDMDL
MODEL 6
REMARK VINA RESULT:      -6.7     16.906     18.529
REMARK  1 active torsions:
REMARK  status: ('A' for Active; 'I' for Inactive)
REMARK    1  A    between atoms: C_2  and  O_1 
ROOT
HETATM    1  C   UNK N   1      36.165  15.269  10.980  0.00  0.00     0.118 C 
HETATM    2  C   UNK N   1      35.210  16.462  11.040  0.00  0.00     0.032 C 
HETATM    3  C   UNK N   1      34.951  17.039   9.645  0.00  0.00     0.012 C 
HETATM    4  C   UNK N   1      35.611  14.191  10.041  0.00  0.00     0.037 C 
HETATM    5  C   UNK N   1      35.341  14.743   8.635  0.00  0.00    -0.004 C 
HETATM    6  C   UNK N   1      34.711  13.632   7.756  0.00  0.00     0.006 C 
HETATM    7  C   UNK N   1      34.402  15.975   8.678  0.00  0.00    -0.036 C 
HETATM    8  C   UNK N   1      33.021  15.528   9.196  0.00  0.00     0.016 C 
HETATM    9  C   UNK N   1      34.305  16.590   7.238  0.00  0.00    -0.002 C 
HETATM   10  C   UNK N   1      33.051  17.485   7.088  0.00  0.00     0.007 C 
HETATM   11  C   UNK N   1      34.447  15.523   6.093  0.00  0.00    -0.004 C 
HETATM   12  C   UNK N   1      33.894  14.171   6.555  0.00  0.00     0.006 C 
HETATM   13  C   UNK N   1      33.854  16.067   4.764  0.00  0.00     0.005 C 
HETATM   14  C   UNK N   1      33.867  15.000   3.664  0.00  0.00     0.033 C 
HETATM   15  C   UNK N   1      32.364  16.491   4.901  0.00  0.00    -0.022 C 
HETATM   16  C   UNK N   1      31.941  16.736   6.356  0.00  0.00     0.014 C 
HETATM   17  C   UNK N   1      32.068  17.731   4.065  0.00  0.00     0.020 C 
HETATM   18  C   UNK N   1      31.638  15.346   4.298  0.00  0.00    -0.021 C 
HETATM   19  C   UNK N   1      32.450  14.533   3.639  0.00  0.00    -0.029 C 
ENDROOT
BRANCH   1  20
HETATM   20  O   UNK N   1      37.427  15.687  10.549  0.00  0.00    -0.396 OA
HETATM   21  H   UNK N   1      38.104  16.255  10.151  0.00  0.00     0.210 HD
ENDBRANCH   1  20
TORSDOF 1
ENDMDL
MODEL 7
REMARK VINA RESULT:      -6.6      3.314      5.716
REMARK  1 active torsions:
REMARK  status: ('A' for Active; 'I' for Inactive)
REMARK    1  A    between atoms: C_2  and  O_1 
ROOT
HETATM    1  C   UNK N   1      31.713  22.203  -3.562  0.00  0.00     0.118 C 
HETATM    2  C   UNK N   1      30.545  21.570  -4.318  0.00  0.00     0.032 C 
HETATM    3  C   UNK N   1      29.267  22.400  -4.163  0.00  0.00     0.012 C 
HETATM    4  C   UNK N   1      31.940  23.643  -4.040  0.00  0.00     0.037 C 
HETATM    5  C   UNK N   1      30.674  24.496  -3.897  0.00  0.00    -0.004 C 
HETATM    6  C   UNK N   1      30.939  25.913  -4.467  0.00  0.00     0.006 C 
HETATM    7  C   UNK N   1      29.467  23.854  -4.628  0.00  0.00    -0.036 C 
HETATM    8  C   UNK N   1      29.759  23.833  -6.142  0.00  0.00     0.016 C 
HETATM    9  C   UNK N   1      28.175  24.681  -4.303  0.00  0.00    -0.002 C 
HETATM   10  C   UNK N   1      27.059  24.422  -5.343  0.00  0.00     0.007 C 
HETATM   11  C   UNK N   1      28.456  26.209  -4.062  0.00  0.00    -0.004 C 
HETATM   12  C   UNK N   1      29.656  26.666  -4.900  0.00  0.00     0.006 C 
HETATM   13  C   UNK N   1      27.157  27.038  -4.249  0.00  0.00     0.005 C 
HETATM   14  C   UNK N   1      27.430  28.543  -4.143  0.00  0.00     0.033 C 
HETATM   15  C   UNK N   1      26.515  26.840  -5.651  0.00  0.00    -0.022 C 
HETATM   16  C   UNK N   1      26.991  25.562  -6.354  0.00  0.00     0.014 C 
HETATM   17  C   UNK N   1      24.993  26.840  -5.563  0.00  0.00     0.020 C 
HETATM   18  C   UNK N   1      26.932  28.063  -6.382  0.00  0.00    -0.021 C 
HETATM   19  C   UNK N   1      27.438  28.980  -5.570  0.00  0.00    -0.029 C 
ENDROOT
BRANCH   1  20
HETATM   20  O   UNK N   1      31.462  22.182  -2.187  0.00  0.00    -0.396 OA
HETATM   21  H   UNK N   1      30.956  22.188  -1.360  0.00  0.00     0.210 HD
ENDBRANCH   1  20
TORSDOF 1
ENDMDL
MODEL 8
REMARK VINA RESULT:      -6.5     26.792     28.875
REMARK  1 active torsions:
REMARK  status: ('A' for Active; 'I' for Inactive)
REMARK    1  A    between atoms: C_2  and  O_1 
ROOT
HETATM    1  C   UNK N   1      36.188  12.846  12.630  0.00  0.00     0.118 C 
HETATM    2  C   UNK N   1      35.933  11.349  12.458  0.00  0.00     0.032 C 
HETATM    3  C   UNK N   1      36.359  10.565  13.703  0.00  0.00     0.012 C 
HETATM    4  C   UNK N   1      35.462  13.371  13.875  0.00  0.00     0.037 C 
HETATM    5  C   UNK N   1      35.871  12.602  15.138  0.00  0.00    -0.004 C 
HETATM    6  C   UNK N   1      35.050  13.121  16.347  0.00  0.00     0.006 C 
HETATM    7  C   UNK N   1      35.653  11.076  14.972  0.00  0.00    -0.036 C 
HETATM    8  C   UNK N   1      34.143  10.806  14.818  0.00  0.00     0.016 C 
HETATM    9  C   UNK N   1      36.244  10.338  16.223  0.00  0.00    -0.002 C 
HETATM   10  C   UNK N   1      35.653   8.916  16.375  0.00  0.00     0.007 C 
HETATM   11  C   UNK N   1      36.165  11.187  17.544  0.00  0.00    -0.004 C 
HETATM   12  C   UNK N   1      34.938  12.106  17.511  0.00  0.00     0.006 C 
HETATM   13  C   UNK N   1      36.277  10.268  18.790  0.00  0.00     0.005 C 
HETATM   14  C   UNK N   1      36.077  11.056  20.090  0.00  0.00     0.033 C 
HETATM   15  C   UNK N   1      35.189   9.157  18.817  0.00  0.00    -0.022 C 
HETATM   16  C   UNK N   1      34.562   8.899  17.441  0.00  0.00     0.014 C 
HETATM   17  C   UNK N   1      35.748   7.856  19.379  0.00  0.00     0.020 C 
HETATM   18  C   UNK N   1      34.198   9.689  19.786  0.00  0.00    -0.021 C 
HETATM   19  C   UNK N   1      34.672  10.722  20.467  0.00  0.00    -0.029 C 
ENDROOT
BRANCH   1  20
HETATM   20  O   UNK N   1      37.559  13.091  12.728  0.00  0.00    -0.396 OA
HETATM   21  H   UNK N   1      38.391  13.461  13.064  0.00  0.00     0.210 HD
ENDBRANCH   1  20
TORSDOF 1
ENDMDL
MODEL 9
REMARK VINA RESULT:      -6.4     19.234     21.104
REMARK  1 active torsions:
REMARK  status: ('A' for Active; 'I' for Inactive)
REMARK    1  A    between atoms: C_2  and  O_1 
ROOT
HETATM    1  C   UNK N   1      35.867  13.156  13.324  0.00  0.00     0.118 C 
HETATM    2  C   UNK N   1      35.963  12.147  12.180  0.00  0.00     0.032 C 
HETATM    3  C   UNK N   1      34.947  12.458  11.077  0.00  0.00     0.012 C 
HETATM    4  C   UNK N   1      36.061  14.582  12.794  0.00  0.00     0.037 C 
HETATM    5  C   UNK N   1      35.056  14.920  11.686  0.00  0.00    -0.004 C 
HETATM    6  C   UNK N   1      35.349  16.339  11.137  0.00  0.00     0.006 C 
HETATM    7  C   UNK N   1      35.113  13.888  10.531  0.00  0.00    -0.036 C 
HETATM    8  C   UNK N   1      36.493  13.981   9.852  0.00  0.00     0.016 C 
HETATM    9  C   UNK N   1      33.952  14.190   9.520  0.00  0.00    -0.002 C 
HETATM   10  C   UNK N   1      34.223  13.550   8.138  0.00  0.00     0.007 C 
HETATM   11  C   UNK N   1      33.581  15.715   9.435  0.00  0.00    -0.004 C 
HETATM   12  C   UNK N   1      34.819  16.579   9.701  0.00  0.00     0.006 C 
HETATM   13  C   UNK N   1      32.826  16.020   8.113  0.00  0.00     0.005 C 
HETATM   14  C   UNK N   1      32.563  17.521   7.948  0.00  0.00     0.033 C 
HETATM   15  C   UNK N   1      33.638  15.609   6.851  0.00  0.00    -0.022 C 
HETATM   16  C   UNK N   1      34.746  14.593   7.156  0.00  0.00     0.014 C 
HETATM   17  C   UNK N   1      32.721  15.058   5.765  0.00  0.00     0.020 C 
HETATM   18  C   UNK N   1      34.188  16.903   6.376  0.00  0.00    -0.021 C 
HETATM   19  C   UNK N   1      33.616  17.937   6.975  0.00  0.00    -0.029 C 
ENDROOT
BRANCH   1  20
HETATM   20  O   UNK N   1      34.630  13.039  13.963  0.00  0.00    -0.396 OA
HETATM   21  H   UNK N   1      33.962  13.119  14.662  0.00  0.00     0.210 HD
ENDBRANCH   1  20
TORSDOF 1
ENDMDL
