MODEL 1
REMARK VINA RESULT:      -7.4      0.000      0.000
REMARK  5 active torsions:
REMARK  status: ('A' for Active; 'I' for Inactive)
REMARK    1  A    between atoms: N_1  and  C_2 
REMARK    2  A    between atoms: C_6  and  C_9 
REMARK    3  A    between atoms: C_10  and  C_11 
REMARK       I    between atoms: C_11  and  N_13 
REMARK    4  A    between atoms: N_13  and  C_15 
REMARK    5  A    between atoms: C_15  and  C_16 
ROOT
HETATM    1  C   UNK N   1      34.950  16.622   9.779  0.00  0.00     0.243 C 
HETATM    2  O   UNK N   1      35.588  17.582  10.192  0.00  0.00    -0.268 OA
HETATM    3  N   UNK N   1      35.403  15.345   9.980  0.00  0.00    -0.347 N 
HETATM    4  C   UNK N   1      34.566  14.203   9.660  0.00  0.00     0.153 C 
ENDROOT
BRANCH   1   5
HETATM    5  C   UNK N   1      33.719  16.843   9.008  0.00  0.00     0.075 C 
HETATM    6  C   UNK N   1      33.909  17.296   7.768  0.00  0.00     0.018 C 
BRANCH   6   7
HETATM    7  C   UNK N   1      32.975  17.187   6.658  0.00  0.00    -0.021 A 
HETATM    8  C   UNK N   1      31.627  16.995   6.959  0.00  0.00     0.101 A 
HETATM    9  N   UNK N   1      30.687  17.094   5.985  0.00  0.00    -0.352 N 
HETATM   10  C   UNK N   1      31.027  17.401   4.705  0.00  0.00     0.098 A 
ATOM     11  HN  UNK N   1      29.707  16.934   6.218  1.00  0.00     0.166 HD
HETATM   12  C   UNK N   1      32.368  17.592   4.360  0.00  0.00     0.049 A 
HETATM   13  C   UNK N   1      33.349  17.491   5.346  0.00  0.00     0.016 A 
BRANCH  10  14
HETATM   14  N   UNK N   1      30.021  17.549   3.732  0.00  0.00    -0.385 N 
HETATM   15  H   UNK N   1      30.142  17.293   2.790  0.00  0.00     0.157 HD
HETATM   16  H   UNK N   1      29.154  17.927   4.008  0.00  0.00     0.157 HD
ENDBRANCH  10  14
ENDBRANCH   6   7
ENDBRANCH   1   5
BRANCH   3  17
HETATM   17  C   UNK N   1      36.698  15.096  10.559  0.00  0.00     0.182 C 
BRANCH  17  18
HETATM   18  C   UNK N   1      36.644  14.224  11.800  0.00  0.00     0.030 A 
HETATM   19  C   UNK N   1      36.043  14.656  12.981  0.00  0.00     0.040 A 
HETATM   20  C   UNK N   1      36.189  13.603  13.863  0.00  0.00    -0.007 A 
HETATM   21  C   UNK N   1      36.852  12.597  13.220  0.00  0.00     0.044 A 
HETATM   22  C   UNK N   1      35.780  13.483  15.188  0.00  0.00     0.014 A 
HETATM   23  N   UNK N   1      37.143  12.959  11.962  0.00  0.00    -0.352 N 
HETATM   24  C   UNK N   1      37.154  11.390  13.854  0.00  0.00     0.030 A 
HETATM   25  C   UNK N   1      37.870  12.124  11.018  0.00  0.00     0.156 C 
HETATM   26  C   UNK N   1      36.751  11.235  15.193  0.00  0.00     0.002 A 
HETATM   27  C   UNK N   1      36.068  12.279  15.858  0.00  0.00     0.001 A 
ENDBRANCH  17  18
ENDBRANCH   3  17
TORSDOF 5
ENDMDL
MODEL 2
REMARK VINA RESULT:      -7.4      2.226      9.179
REMARK  5 active torsions:
REMARK  status: ('A' for Active; 'I' for Inactive)
REMARK    1  A    between atoms: N_1  and  C_2 
REMARK    2  A    between atoms: C_6  and  C_9 
REMARK    3  A    between atoms: C_10  and  C_11 
REMARK       I    between atoms: C_11  and  N_13 
REMARK    4  A    between atoms: N_13  and  C_15 
REMARK    5  A    between atoms: C_15  and  C_16 
ROOT
HETATM    1  C   UNK N   1      35.426  15.719  10.643  0.00  0.00     0.243 C 
HETATM    2  O   UNK N   1      36.527  16.253  10.664  0.00  0.00    -0.268 OA
HETATM    3  N   UNK N   1      34.484  16.097   9.723  0.00  0.00    -0.347 N 
HETATM    4  C   UNK N   1      33.252  15.345   9.574  0.00  0.00     0.153 C 
ENDROOT
BRANCH   1   5
HETATM    5  C   UNK N   1      35.089  14.707  11.654  0.00  0.00     0.075 C 
HETATM    6  C   UNK N   1      36.081  14.397  12.489  0.00  0.00     0.018 C 
BRANCH   6   7
HETATM    7  C   UNK N   1      35.942  13.804  13.810  0.00  0.00    -0.021 A 
HETATM    8  C   UNK N   1      36.675  14.365  14.855  0.00  0.00     0.101 A 
HETATM    9  N   UNK N   1      36.432  13.994  16.138  0.00  0.00    -0.352 N 
HETATM   10  C   UNK N   1      35.463  13.089  16.440  0.00  0.00     0.098 A 
ATOM     11  HN  UNK N   1      36.988  14.401  16.890  1.00  0.00     0.166 HD
HETATM   12  C   UNK N   1      34.713  12.496  15.420  0.00  0.00     0.049 A 
HETATM   13  C   UNK N   1      34.949  12.862  14.095  0.00  0.00     0.016 A 
BRANCH  10  14
HETATM   14  N   UNK N   1      35.201  12.768  17.785  0.00  0.00    -0.385 N 
HETATM   15  H   UNK N   1      35.428  11.899  18.185  0.00  0.00     0.157 HD
HETATM   16  H   UNK N   1      34.770  13.448  18.353  0.00  0.00     0.157 HD
ENDBRANCH  10  14
ENDBRANCH   6   7
ENDBRANCH   1   5
BRANCH   3  17
HETATM   17  C   UNK N   1      34.707  17.217   8.846  0.00  0.00     0.182 C 
BRANCH  17  18
HETATM   18  C   UNK N   1      34.295  16.946   7.410  0.00  0.00     0.030 A 
HETATM   19  C   UNK N   1      33.397  17.770   6.732  0.00  0.00     0.040 A 
HETATM   20  C   UNK N   1      33.278  17.212   5.475  0.00  0.00    -0.007 A 
HETATM   21  C   UNK N   1      34.075  16.103   5.423  0.00  0.00     0.044 A 
HETATM   22  C   UNK N   1      32.513  17.616   4.385  0.00  0.00     0.014 A 
HETATM   23  N   UNK N   1      34.699  15.922   6.597  0.00  0.00    -0.352 N 
HETATM   24  C   UNK N   1      34.170  15.316   4.274  0.00  0.00     0.030 A 
HETATM   25  C   UNK N   1      35.600  14.815   6.882  0.00  0.00     0.156 C 
HETATM   26  C   UNK N   1      33.411  15.699   3.154  0.00  0.00     0.002 A 
HETATM   27  C   UNK N   1      32.584  16.844   3.210  0.00  0.00     0.001 A 
ENDBRANCH  17  18
ENDBRANCH   3  17
TORSDOF 5
ENDMDL
MODEL 3
REMARK VINA RESULT:      -7.2     11.624     13.649
REMARK  5 active torsions:
REMARK  status: ('A' for Active; 'I' for Inactive)
REMARK    1  A    between atoms: N_1  and  C_2 
REMARK    2  A    between atoms: C_6  and  C_9 
REMARK    3  A    between atoms: C_10  and  C_11 
REMARK       I    between atoms: C_11  and  N_13 
REMARK    4  A    between atoms: N_13  and  C_15 
REMARK    5  A    between atoms: C_15  and  C_16 
ROOT
HETATM    1  C   UNK N   1      20.963  15.348   5.439  0.00  0.00     0.243 C 
HETATM    2  O   UNK N   1      21.027  14.460   4.599  0.00  0.00    -0.268 OA
HETATM    3  N   UNK N   1      20.816  15.043   6.767  0.00  0.00    -0.347 N 
HETATM    4  C   UNK N   1      20.926  16.077   7.780  0.00  0.00     0.153 C 
ENDROOT
BRANCH   1   5
HETATM    5  C   UNK N   1      20.981  16.754   5.014  0.00  0.00     0.075 C 
HETATM    6  C   UNK N   1      21.640  16.988   3.878  0.00  0.00     0.018 C 
BRANCH   6   7
HETATM    7  C   UNK N   1      21.463  18.135   3.000  0.00  0.00    -0.021 A 
HETATM    8  C   UNK N   1      20.582  18.002   1.928  0.00  0.00     0.101 A 
HETATM    9  N   UNK N   1      20.218  19.091   1.203  0.00  0.00    -0.352 N 
HETATM   10  C   UNK N   1      20.682  20.331   1.510  0.00  0.00     0.098 A 
ATOM     11  HN  UNK N   1      19.585  18.975   0.411  1.00  0.00     0.166 HD
HETATM   12  C   UNK N   1      21.576  20.505   2.572  0.00  0.00     0.049 A 
HETATM   13  C   UNK N   1      21.964  19.398   3.327  0.00  0.00     0.016 A 
BRANCH  10  14
HETATM   14  N   UNK N   1      20.242  21.445   0.771  0.00  0.00    -0.385 N 
HETATM   15  H   UNK N   1      20.541  21.634  -0.147  0.00  0.00     0.157 HD
HETATM   16  H   UNK N   1      19.603  22.065   1.193  0.00  0.00     0.157 HD
ENDBRANCH  10  14
ENDBRANCH   6   7
ENDBRANCH   1   5
BRANCH   3  17
HETATM   17  C   UNK N   1      20.599  13.688   7.201  0.00  0.00     0.182 C 
BRANCH  17  18
HETATM   18  C   UNK N   1      21.514  13.266   8.336  0.00  0.00     0.030 A 
HETATM   19  C   UNK N   1      21.023  12.953   9.603  0.00  0.00     0.040 A 
HETATM   20  C   UNK N   1      22.138  12.620  10.347  0.00  0.00    -0.007 A 
HETATM   21  C   UNK N   1      23.237  12.737   9.543  0.00  0.00     0.044 A 
HETATM   22  C   UNK N   1      22.241  12.228  11.678  0.00  0.00     0.014 A 
HETATM   23  N   UNK N   1      22.876  13.136   8.315  0.00  0.00    -0.352 N 
HETATM   24  C   UNK N   1      24.524  12.466  10.011  0.00  0.00     0.030 A 
HETATM   25  C   UNK N   1      23.812  13.382   7.228  0.00  0.00     0.156 C 
HETATM   26  C   UNK N   1      24.662  12.064  11.352  0.00  0.00     0.002 A 
HETATM   27  C   UNK N   1      23.524  11.947  12.183  0.00  0.00     0.001 A 
ENDBRANCH  17  18
ENDBRANCH   3  17
TORSDOF 5
ENDMDL
MODEL 4
REMARK VINA RESULT:      -7.2      1.694      9.394
REMARK  5 active torsions:
REMARK  status: ('A' for Active; 'I' for Inactive)
REMARK    1  A    between atoms: N_1  and  C_2 
REMARK    2  A    between atoms: C_6  and  C_9 
REMARK    3  A    between atoms: C_10  and  C_11 
REMARK       I    between atoms: C_11  and  N_13 
REMARK    4  A    between atoms: N_13  and  C_15 
REMARK    5  A    between atoms: C_15  and  C_16 
ROOT
HETATM    1  C   UNK N   1      35.093  16.447  10.040  0.00  0.00     0.243 C 
HETATM    2  O   UNK N   1      35.648  17.520  10.235  0.00  0.00    -0.268 OA
HETATM    3  N   UNK N   1      33.983  16.371   9.240  0.00  0.00    -0.347 N 
HETATM    4  C   UNK N   1      33.434  15.083   8.857  0.00  0.00     0.153 C 
ENDROOT
BRANCH   1   5
HETATM    5  C   UNK N   1      35.582  15.240  10.720  0.00  0.00     0.075 C 
HETATM    6  C   UNK N   1      35.835  15.393  12.020  0.00  0.00     0.018 C 
BRANCH   6   7
HETATM    7  C   UNK N   1      35.891  14.335  13.018  0.00  0.00    -0.021 A 
HETATM    8  C   UNK N   1      36.554  14.604  14.214  0.00  0.00     0.101 A 
HETATM    9  N   UNK N   1      36.462  13.740  15.257  0.00  0.00    -0.352 N 
HETATM   10  C   UNK N   1      35.711  12.610  15.173  0.00  0.00     0.098 A 
ATOM     11  HN  UNK N   1      36.966  13.943  16.120  1.00  0.00     0.166 HD
HETATM   12  C   UNK N   1      35.038  12.299  13.987  0.00  0.00     0.049 A 
HETATM   13  C   UNK N   1      35.123  13.173  12.903  0.00  0.00     0.016 A 
BRANCH  10  14
HETATM   14  N   UNK N   1      35.594  11.764  16.292  0.00  0.00    -0.385 N 
HETATM   15  H   UNK N   1      36.259  11.076  16.519  0.00  0.00     0.157 HD
HETATM   16  H   UNK N   1      34.807  11.867  16.876  0.00  0.00     0.157 HD
ENDBRANCH  10  14
ENDBRANCH   6   7
ENDBRANCH   1   5
BRANCH   3  17
HETATM   17  C   UNK N   1      33.361  17.558   8.715  0.00  0.00     0.182 C 
BRANCH  17  18
HETATM   18  C   UNK N   1      32.818  17.380   7.308  0.00  0.00     0.030 A 
HETATM   19  C   UNK N   1      33.643  17.432   6.186  0.00  0.00     0.040 A 
HETATM   20  C   UNK N   1      32.801  17.227   5.111  0.00  0.00    -0.007 A 
HETATM   21  C   UNK N   1      31.532  17.064   5.590  0.00  0.00     0.044 A 
HETATM   22  C   UNK N   1      33.083  17.181   3.749  0.00  0.00     0.014 A 
HETATM   23  N   UNK N   1      31.522  17.160   6.928  0.00  0.00    -0.352 N 
HETATM   24  C   UNK N   1      30.447  16.838   4.741  0.00  0.00     0.030 A 
HETATM   25  C   UNK N   1      30.322  17.060   7.746  0.00  0.00     0.156 C 
HETATM   26  C   UNK N   1      30.699  16.782   3.358  0.00  0.00     0.002 A 
HETATM   27  C   UNK N   1      32.012  16.955   2.864  0.00  0.00     0.001 A 
ENDBRANCH  17  18
ENDBRANCH   3  17
TORSDOF 5
ENDMDL
MODEL 5
REMARK VINA RESULT:      -7.1      2.014      8.856
REMARK  5 active torsions:
REMARK  status: ('A' for Active; 'I' for Inactive)
REMARK    1  A    between atoms: N_1  and  C_2 
REMARK    2  A    between atoms: C_6  and  C_9 
REMARK    3  A    between atoms: C_10  and  C_11 
REMARK       I    between atoms: C_11  and  N_13 
REMARK    4  A    between atoms: N_13  and  C_15 
REMARK    5  A    between atoms: C_15  and  C_16 
ROOT
HETATM    1  C   UNK N   1      35.252  16.100   9.798  0.00  0.00     0.243 C 
HETATM    2  O   UNK N   1      35.430  17.225  10.245  0.00  0.00    -0.268 OA
HETATM    3  N   UNK N   1      34.774  15.923   8.526  0.00  0.00    -0.347 N 
HETATM    4  C   UNK N   1      34.736  14.602   7.927  0.00  0.00     0.153 C 
ENDROOT
BRANCH   1   5
HETATM    5  C   UNK N   1      35.493  14.930  10.653  0.00  0.00     0.075 C 
HETATM    6  C   UNK N   1      36.015  15.208  11.848  0.00  0.00     0.018 C 
BRANCH   6   7
HETATM    7  C   UNK N   1      35.949  14.366  13.033  0.00  0.00    -0.021 A 
HETATM    8  C   UNK N   1      35.451  13.073  12.886  0.00  0.00     0.101 A 
HETATM    9  N   UNK N   1      35.559  12.178  13.901  0.00  0.00    -0.352 N 
HETATM   10  C   UNK N   1      36.167  12.508  15.071  0.00  0.00     0.098 A 
ATOM     11  HN  UNK N   1      35.174  11.240  13.783  1.00  0.00     0.166 HD
HETATM   12  C   UNK N   1      36.671  13.798  15.263  0.00  0.00     0.049 A 
HETATM   13  C   UNK N   1      36.568  14.732  14.233  0.00  0.00     0.016 A 
BRANCH  10  14
HETATM   14  N   UNK N   1      36.309  11.539  16.082  0.00  0.00    -0.385 N 
HETATM   15  H   UNK N   1      36.602  10.616  15.906  0.00  0.00     0.157 HD
HETATM   16  H   UNK N   1      36.105  11.797  17.010  0.00  0.00     0.157 HD
ENDBRANCH  10  14
ENDBRANCH   6   7
ENDBRANCH   1   5
BRANCH   3  17
HETATM   17  C   UNK N   1      34.343  17.043   7.729  0.00  0.00     0.182 C 
BRANCH  17  18
HETATM   18  C   UNK N   1      32.844  17.274   7.779  0.00  0.00     0.030 A 
HETATM   19  C   UNK N   1      32.246  18.030   8.786  0.00  0.00     0.040 A 
HETATM   20  C   UNK N   1      30.897  18.015   8.493  0.00  0.00    -0.007 A 
HETATM   21  C   UNK N   1      30.715  17.276   7.358  0.00  0.00     0.044 A 
HETATM   22  C   UNK N   1      29.829  18.604   9.163  0.00  0.00     0.014 A 
HETATM   23  N   UNK N   1      31.891  16.811   6.912  0.00  0.00    -0.352 N 
HETATM   24  C   UNK N   1      29.450  17.073   6.805  0.00  0.00     0.030 A 
HETATM   25  C   UNK N   1      32.043  15.965   5.737  0.00  0.00     0.156 C 
HETATM   26  C   UNK N   1      28.349  17.658   7.456  0.00  0.00     0.002 A 
HETATM   27  C   UNK N   1      28.538  18.420   8.632  0.00  0.00     0.001 A 
ENDBRANCH  17  18
ENDBRANCH   3  17
TORSDOF 5
ENDMDL
MODEL 6
REMARK VINA RESULT:      -6.8     15.670     18.796
REMARK  5 active torsions:
REMARK  status: ('A' for Active; 'I' for Inactive)
REMARK    1  A    between atoms: N_1  and  C_2 
REMARK    2  A    between atoms: C_6  and  C_9 
REMARK    3  A    between atoms: C_10  and  C_11 
REMARK       I    between atoms: C_11  and  N_13 
REMARK    4  A    between atoms: N_13  and  C_15 
REMARK    5  A    between atoms: C_15  and  C_16 
ROOT
HETATM    1  C   UNK N   1      27.123  22.430  -7.214  0.00  0.00     0.243 C 
HETATM    2  O   UNK N   1      26.457  21.408  -7.317  0.00  0.00    -0.268 OA
HETATM    3  N   UNK N   1      28.491  22.379  -7.271  0.00  0.00    -0.347 N 
HETATM    4  C   UNK N   1      29.274  23.600  -7.336  0.00  0.00     0.153 C 
ENDROOT
BRANCH   1   5
HETATM    5  C   UNK N   1      26.453  23.713  -6.964  0.00  0.00     0.075 C 
HETATM    6  C   UNK N   1      26.069  23.909  -5.702  0.00  0.00     0.018 C 
BRANCH   6   7
HETATM    7  C   UNK N   1      25.805  25.193  -5.070  0.00  0.00    -0.021 A 
HETATM    8  C   UNK N   1      26.411  25.449  -3.841  0.00  0.00     0.101 A 
HETATM    9  N   UNK N   1      26.373  26.696  -3.306  0.00  0.00    -0.352 N 
HETATM   10  C   UNK N   1      25.768  27.725  -3.956  0.00  0.00     0.098 A 
ATOM     11  HN  UNK N   1      26.806  26.863  -2.398  1.00  0.00     0.166 HD
HETATM   12  C   UNK N   1      25.141  27.507  -5.187  0.00  0.00     0.049 A 
HETATM   13  C   UNK N   1      25.166  26.232  -5.752  0.00  0.00     0.016 A 
BRANCH  10  14
HETATM   14  N   UNK N   1      25.795  29.016  -3.398  0.00  0.00    -0.385 N 
HETATM   15  H   UNK N   1      26.323  29.755  -3.775  0.00  0.00     0.157 HD
HETATM   16  H   UNK N   1      25.258  29.189  -2.590  0.00  0.00     0.157 HD
ENDBRANCH  10  14
ENDBRANCH   6   7
ENDBRANCH   1   5
BRANCH   3  17
HETATM   17  C   UNK N   1      29.189  21.121  -7.320  0.00  0.00     0.182 C 
BRANCH  17  18
HETATM   18  C   UNK N   1      30.294  21.006  -6.285  0.00  0.00     0.030 A 
HETATM   19  C   UNK N   1      30.155  21.519  -4.996  0.00  0.00     0.040 A 
HETATM   20  C   UNK N   1      31.345  21.223  -4.362  0.00  0.00    -0.007 A 
HETATM   21  C   UNK N   1      32.148  20.564  -5.249  0.00  0.00     0.044 A 
HETATM   22  C   UNK N   1      31.760  21.501  -3.063  0.00  0.00     0.014 A 
HETATM   23  N   UNK N   1      31.526  20.428  -6.430  0.00  0.00    -0.352 N 
HETATM   24  C   UNK N   1      33.429  20.130  -4.903  0.00  0.00     0.030 A 
HETATM   25  C   UNK N   1      32.119  19.795  -7.599  0.00  0.00     0.156 C 
HETATM   26  C   UNK N   1      33.878  20.392  -3.596  0.00  0.00     0.002 A 
HETATM   27  C   UNK N   1      33.047  21.077  -2.680  0.00  0.00     0.001 A 
ENDBRANCH  17  18
ENDBRANCH   3  17
TORSDOF 5
ENDMDL
MODEL 7
REMARK VINA RESULT:      -6.8     16.709     19.975
REMARK  5 active torsions:
REMARK  status: ('A' for Active; 'I' for Inactive)
REMARK    1  A    between atoms: N_1  and  C_2 
REMARK    2  A    between atoms: C_6  and  C_9 
REMARK    3  A    between atoms: C_10  and  C_11 
REMARK       I    between atoms: C_11  and  N_13 
REMARK    4  A    between atoms: N_13  and  C_15 
REMARK    5  A    between atoms: C_15  and  C_16 
ROOT
HETATM    1  C   UNK N   1      26.056  24.340  -7.017  0.00  0.00     0.243 C 
HETATM    2  O   UNK N   1      25.229  23.597  -6.506  0.00  0.00    -0.268 OA
HETATM    3  N   UNK N   1      27.147  23.828  -7.668  0.00  0.00    -0.347 N 
HETATM    4  C   UNK N   1      28.027  24.693  -8.432  0.00  0.00     0.153 C 
ENDROOT
BRANCH   1   5
HETATM    5  C   UNK N   1      25.910  25.795  -6.878  0.00  0.00     0.075 C 
HETATM    6  C   UNK N   1      25.756  26.226  -5.625  0.00  0.00     0.018 C 
BRANCH   6   7
HETATM    7  C   UNK N   1      26.029  27.569  -5.135  0.00  0.00    -0.021 A 
HETATM    8  C   UNK N   1      25.544  27.911  -3.874  0.00  0.00     0.101 A 
HETATM    9  N   UNK N   1      25.940  29.066  -3.279  0.00  0.00    -0.352 N 
HETATM   10  C   UNK N   1      26.827  29.902  -3.881  0.00  0.00     0.098 A 
ATOM     11  HN  UNK N   1      25.563  29.310  -2.363  1.00  0.00     0.166 HD
HETATM   12  C   UNK N   1      27.329  29.599  -5.150  0.00  0.00     0.049 A 
HETATM   13  C   UNK N   1      26.932  28.419  -5.779  0.00  0.00     0.016 A 
BRANCH  10  14
HETATM   14  N   UNK N   1      27.257  31.062  -3.211  0.00  0.00    -0.385 N 
HETATM   15  H   UNK N   1      26.817  31.936  -3.312  0.00  0.00     0.157 HD
HETATM   16  H   UNK N   1      28.037  30.997  -2.613  0.00  0.00     0.157 HD
ENDBRANCH  10  14
ENDBRANCH   6   7
ENDBRANCH   1   5
BRANCH   3  17
HETATM   17  C   UNK N   1      27.426  22.415  -7.657  0.00  0.00     0.182 C 
BRANCH  17  18
HETATM   18  C   UNK N   1      28.561  22.034  -6.724  0.00  0.00     0.030 A 
HETATM   19  C   UNK N   1      28.867  22.782  -5.588  0.00  0.00     0.040 A 
HETATM   20  C   UNK N   1      29.937  22.131  -5.007  0.00  0.00    -0.007 A 
HETATM   21  C   UNK N   1      30.243  21.045  -5.776  0.00  0.00     0.044 A 
HETATM   22  C   UNK N   1      30.652  22.438  -3.853  0.00  0.00     0.014 A 
HETATM   23  N   UNK N   1      29.419  20.973  -6.832  0.00  0.00    -0.352 N 
HETATM   24  C   UNK N   1      31.289  20.179  -5.448  0.00  0.00     0.030 A 
HETATM   25  C   UNK N   1      29.496  19.947  -7.862  0.00  0.00     0.156 C 
HETATM   26  C   UNK N   1      32.030  20.460  -4.285  0.00  0.00     0.002 A 
HETATM   27  C   UNK N   1      31.713  21.587  -3.492  0.00  0.00     0.001 A 
ENDBRANCH  17  18
ENDBRANCH   3  17
TORSDOF 5
ENDMDL
MODEL 8
REMARK VINA RESULT:      -6.8      1.477      2.185
REMARK  5 active torsions:
REMARK  status: ('A' for Active; 'I' for Inactive)
REMARK    1  A    between atoms: N_1  and  C_2 
REMARK    2  A    between atoms: C_6  and  C_9 
REMARK    3  A    between atoms: C_10  and  C_11 
REMARK       I    between atoms: C_11  and  N_13 
REMARK    4  A    between atoms: N_13  and  C_15 
REMARK    5  A    between atoms: C_15  and  C_16 
ROOT
HETATM    1  C   UNK N   1      35.181  15.070  10.974  0.00  0.00     0.243 C 
HETATM    2  O   UNK N   1      35.734  16.019  11.516  0.00  0.00    -0.268 OA
HETATM    3  N   UNK N   1      35.610  13.789  11.204  0.00  0.00    -0.347 N 
HETATM    4  C   UNK N   1      34.847  12.655  10.714  0.00  0.00     0.153 C 
ENDROOT
BRANCH   1   5
HETATM    5  C   UNK N   1      34.091  15.312  10.020  0.00  0.00     0.075 C 
HETATM    6  C   UNK N   1      34.045  16.548   9.522  0.00  0.00     0.018 C 
BRANCH   6   7
HETATM    7  C   UNK N   1      33.403  16.953   8.280  0.00  0.00    -0.021 A 
HETATM    8  C   UNK N   1      34.223  17.314   7.212  0.00  0.00     0.101 A 
HETATM    9  N   UNK N   1      33.694  17.499   5.975  0.00  0.00    -0.352 N 
HETATM   10  C   UNK N   1      32.367  17.319   5.741  0.00  0.00     0.098 A 
ATOM     11  HN  UNK N   1      34.305  17.779   5.208  1.00  0.00     0.166 HD
HETATM   12  C   UNK N   1      31.510  16.967   6.787  0.00  0.00     0.049 A 
HETATM   13  C   UNK N   1      32.033  16.775   8.066  0.00  0.00     0.016 A 
BRANCH  10  14
HETATM   14  N   UNK N   1      31.863  17.466   4.436  0.00  0.00    -0.385 N 
HETATM   15  H   UNK N   1      31.876  18.320   3.946  0.00  0.00     0.157 HD
HETATM   16  H   UNK N   1      31.478  16.676   3.990  0.00  0.00     0.157 HD
ENDBRANCH  10  14
ENDBRANCH   6   7
ENDBRANCH   1   5
BRANCH   3  17
HETATM   17  C   UNK N   1      36.795  13.528  11.977  0.00  0.00     0.182 C 
BRANCH  17  18
HETATM   18  C   UNK N   1      36.501  12.997  13.369  0.00  0.00     0.030 A 
HETATM   19  C   UNK N   1      35.798  13.747  14.312  0.00  0.00     0.040 A 
HETATM   20  C   UNK N   1      35.729  12.942  15.431  0.00  0.00    -0.007 A 
HETATM   21  C   UNK N   1      36.369  11.767  15.151  0.00  0.00     0.044 A 
HETATM   22  C   UNK N   1      35.146  13.182  16.671  0.00  0.00     0.014 A 
HETATM   23  N   UNK N   1      36.851  11.785  13.899  0.00  0.00    -0.352 N 
HETATM   24  C   UNK N   1      36.470  10.740  16.091  0.00  0.00     0.030 A 
HETATM   25  C   UNK N   1      37.609  10.697  13.299  0.00  0.00     0.156 C 
HETATM   26  C   UNK N   1      35.887  10.950  17.354  0.00  0.00     0.002 A 
HETATM   27  C   UNK N   1      35.229  12.167  17.643  0.00  0.00     0.001 A 
ENDBRANCH  17  18
ENDBRANCH   3  17
TORSDOF 5
ENDMDL
MODEL 9
REMARK VINA RESULT:      -6.7     16.334     21.259
REMARK  5 active torsions:
REMARK  status: ('A' for Active; 'I' for Inactive)
REMARK    1  A    between atoms: N_1  and  C_2 
REMARK    2  A    between atoms: C_6  and  C_9 
REMARK    3  A    between atoms: C_10  and  C_11 
REMARK       I    between atoms: C_11  and  N_13 
REMARK    4  A    between atoms: N_13  and  C_15 
REMARK    5  A    between atoms: C_15  and  C_16 
ROOT
HETATM    1  C   UNK N   1      27.572  23.110  -7.787  0.00  0.00     0.243 C 
HETATM    2  O   UNK N   1      28.221  23.685  -8.651  0.00  0.00    -0.268 OA
HETATM    3  N   UNK N   1      26.324  23.556  -7.440  0.00  0.00    -0.347 N 
HETATM    4  C   UNK N   1      25.480  22.775  -6.554  0.00  0.00     0.153 C 
ENDROOT
BRANCH   1   5
HETATM    5  C   UNK N   1      28.162  21.972  -7.070  0.00  0.00     0.075 C 
HETATM    6  C   UNK N   1      29.493  21.908  -7.118  0.00  0.00     0.018 C 
BRANCH   6   7
HETATM    7  C   UNK N   1      30.357  21.203  -6.183  0.00  0.00    -0.021 A 
HETATM    8  C   UNK N   1      31.487  20.567  -6.695  0.00  0.00     0.101 A 
HETATM    9  N   UNK N   1      32.434  20.075  -5.856  0.00  0.00    -0.352 N 
HETATM   10  C   UNK N   1      32.320  20.206  -4.508  0.00  0.00     0.098 A 
ATOM     11  HN  UNK N   1      33.247  19.597  -6.245  1.00  0.00     0.166 HD
HETATM   12  C   UNK N   1      31.197  20.829  -3.954  0.00  0.00     0.049 A 
HETATM   13  C   UNK N   1      30.212  21.339  -4.799  0.00  0.00     0.016 A 
BRANCH  10  14
HETATM   14  N   UNK N   1      33.347  19.732  -3.670  0.00  0.00    -0.385 N 
HETATM   15  H   UNK N   1      33.799  20.295  -3.002  0.00  0.00     0.157 HD
HETATM   16  H   UNK N   1      33.626  18.792  -3.758  0.00  0.00     0.157 HD
ENDBRANCH  10  14
ENDBRANCH   6   7
ENDBRANCH   1   5
BRANCH   3  17
HETATM   17  C   UNK N   1      25.793  24.781  -7.980  0.00  0.00     0.182 C 
BRANCH  17  18
HETATM   18  C   UNK N   1      26.076  25.993  -7.111  0.00  0.00     0.030 A 
HETATM   19  C   UNK N   1      25.353  26.253  -5.948  0.00  0.00     0.040 A 
HETATM   20  C   UNK N   1      25.894  27.418  -5.442  0.00  0.00    -0.007 A 
HETATM   21  C   UNK N   1      26.895  27.822  -6.280  0.00  0.00     0.044 A 
HETATM   22  C   UNK N   1      25.558  28.139  -4.300  0.00  0.00     0.014 A 
HETATM   23  N   UNK N   1      27.017  26.968  -7.307  0.00  0.00    -0.352 N 
HETATM   24  C   UNK N   1      27.639  28.979  -6.037  0.00  0.00     0.030 A 
HETATM   25  C   UNK N   1      27.973  27.126  -8.393  0.00  0.00     0.156 C 
HETATM   26  C   UNK N   1      27.326  29.728  -4.888  0.00  0.00     0.002 A 
HETATM   27  C   UNK N   1      26.288  29.311  -4.025  0.00  0.00     0.001 A 
ENDBRANCH  17  18
ENDBRANCH   3  17
TORSDOF 5
ENDMDL
