MODEL 1
REMARK VINA RESULT:      -5.2      0.000      0.000
REMARK  6 active torsions:
REMARK  status: ('A' for Active; 'I' for Inactive)
REMARK    1  A    between atoms: C_2  and  O_1 
REMARK    2  A    between atoms: C_3  and  O_4 
REMARK    3  A    between atoms: C_5  and  O_6 
REMARK    4  A    between atoms: C_7  and  O_8 
REMARK    5  A    between atoms: C_9  and  C_11 
REMARK    6  A    between atoms: C_11  and  O_12 
ROOT
HETATM    1  C   UNK N   1      20.868  19.233   3.702  0.00  0.00     0.288 A 
HETATM    2  C   UNK N   1      20.901  20.196   2.520  0.00  0.00     0.204 A 
HETATM    3  C   UNK N   1      20.685  19.658   1.144  0.00  0.00     0.183 A 
HETATM    4  C   UNK N   1      20.451  18.192   1.033  0.00  0.00     0.180 A 
HETATM    5  C   UNK N   1      20.441  17.330   2.292  0.00  0.00     0.179 A 
HETATM    6  O   UNK N   1      20.646  17.837   3.610  0.00  0.00    -0.349 OA
ENDROOT
BRANCH   5   7
HETATM    7  C   UNK N   1      20.200  15.838   2.162  0.00  0.00     0.198 C 
BRANCH   7   8
HETATM    8  O   UNK N   1      19.081  15.597   1.367  0.00  0.00    -0.398 OA
HETATM    9  H   UNK N   1      18.831  14.687   1.144  0.00  0.00     0.209 HD
ENDBRANCH   7   8
ENDBRANCH   5   7
BRANCH   4  10
HETATM   10  O   UNK N   1      20.242  17.622  -0.225  0.00  0.00    -0.390 OA
HETATM   11  H   UNK N   1      20.284  16.658  -0.333  0.00  0.00     0.210 HD
ENDBRANCH   4  10
BRANCH   3  12
HETATM   12  O   UNK N   1      20.702  20.481   0.020  0.00  0.00    -0.390 OA
HETATM   13  H   UNK N   1      20.583  20.099  -0.863  0.00  0.00     0.210 HD
ENDBRANCH   3  12
BRANCH   1  14
HETATM   14  O   UNK N   1      21.069  19.729   4.993  0.00  0.00    -0.369 OA
HETATM   15  H   UNK N   1      21.858  19.469   5.495  0.00  0.00     0.212 HD
ENDBRANCH   1  14
BRANCH   2  16
HETATM   16  O   UNK N   1      21.127  21.558   2.705  0.00  0.00    -0.388 OA
HETATM   17  H   UNK N   1      20.484  22.205   2.377  0.00  0.00     0.210 HD
ENDBRANCH   2  16
TORSDOF 6
ENDMDL
MODEL 2
REMARK VINA RESULT:      -5.1      1.151      3.230
REMARK  6 active torsions:
REMARK  status: ('A' for Active; 'I' for Inactive)
REMARK    1  A    between atoms: C_2  and  O_1 
REMARK    2  A    between atoms: C_3  and  O_4 
REMARK    3  A    between atoms: C_5  and  O_6 
REMARK    4  A    between atoms: C_7  and  O_8 
REMARK    5  A    between atoms: C_9  and  C_11 
REMARK    6  A    between atoms: C_11  and  O_12 
ROOT
HETATM    1  C   UNK N   1      20.345  18.211   0.978  0.00  0.00     0.288 A 
HETATM    2  C   UNK N   1      20.713  19.683   1.126  0.00  0.00     0.204 A 
HETATM    3  C   UNK N   1      20.905  20.245   2.496  0.00  0.00     0.183 A 
HETATM    4  C   UNK N   1      20.716  19.304   3.633  0.00  0.00     0.180 A 
HETATM    5  C   UNK N   1      20.347  17.849   3.358  0.00  0.00     0.179 A 
HETATM    6  O   UNK N   1      20.162  17.304   2.051  0.00  0.00    -0.349 OA
ENDROOT
BRANCH   5   7
HETATM    7  C   UNK N   1      20.158  16.902   4.528  0.00  0.00     0.198 C 
BRANCH   7   8
HETATM    8  O   UNK N   1      18.847  16.429   4.560  0.00  0.00    -0.398 OA
HETATM    9  H   UNK N   1      18.528  15.934   5.330  0.00  0.00     0.209 HD
ENDBRANCH   7   8
ENDBRANCH   5   7
BRANCH   4  10
HETATM   10  O   UNK N   1      20.880  19.763   4.942  0.00  0.00    -0.390 OA
HETATM   11  H   UNK N   1      21.691  19.553   5.432  0.00  0.00     0.210 HD
ENDBRANCH   4  10
BRANCH   3  12
HETATM   12  O   UNK N   1      21.242  21.581   2.703  0.00  0.00    -0.390 OA
HETATM   13  H   UNK N   1      21.366  21.916   3.605  0.00  0.00     0.210 HD
ENDBRANCH   3  12
BRANCH   1  14
HETATM   14  O   UNK N   1      20.164  17.676  -0.301  0.00  0.00    -0.369 OA
HETATM   15  H   UNK N   1      20.935  17.435  -0.838  0.00  0.00     0.212 HD
ENDBRANCH   1  14
BRANCH   2  16
HETATM   16  O   UNK N   1      20.873  20.502   0.011  0.00  0.00    -0.388 OA
HETATM   17  H   UNK N   1      21.665  20.420  -0.542  0.00  0.00     0.210 HD
ENDBRANCH   2  16
TORSDOF 6
ENDMDL
MODEL 3
REMARK VINA RESULT:      -5.1     14.989     16.402
REMARK  6 active torsions:
REMARK  status: ('A' for Active; 'I' for Inactive)
REMARK    1  A    between atoms: C_2  and  O_1 
REMARK    2  A    between atoms: C_3  and  O_4 
REMARK    3  A    between atoms: C_5  and  O_6 
REMARK    4  A    between atoms: C_7  and  O_8 
REMARK    5  A    between atoms: C_9  and  C_11 
REMARK    6  A    between atoms: C_11  and  O_12 
ROOT
HETATM    1  C   UNK N   1      35.397  16.020  10.969  0.00  0.00     0.288 A 
HETATM    2  C   UNK N   1      34.314  14.949  10.888  0.00  0.00     0.204 A 
HETATM    3  C   UNK N   1      33.270  15.057   9.826  0.00  0.00     0.183 A 
HETATM    4  C   UNK N   1      33.371  16.227   8.911  0.00  0.00     0.180 A 
HETATM    5  C   UNK N   1      34.503  17.234   9.093  0.00  0.00     0.179 A 
HETATM    6  O   UNK N   1      35.505  17.137  10.106  0.00  0.00    -0.349 OA
ENDROOT
BRANCH   5   7
HETATM    7  C   UNK N   1      34.592  18.421   8.153  0.00  0.00     0.198 C 
BRANCH   7   8
HETATM    8  O   UNK N   1      35.470  19.377   8.663  0.00  0.00    -0.398 OA
HETATM    9  H   UNK N   1      36.321  19.102   9.037  0.00  0.00     0.209 HD
ENDBRANCH   7   8
ENDBRANCH   5   7
BRANCH   4  10
HETATM   10  O   UNK N   1      32.427  16.390   7.895  0.00  0.00    -0.390 OA
HETATM   11  H   UNK N   1      32.295  17.262   7.492  0.00  0.00     0.210 HD
ENDBRANCH   4  10
BRANCH   3  12
HETATM   12  O   UNK N   1      32.253  14.114   9.695  0.00  0.00    -0.390 OA
HETATM   13  H   UNK N   1      32.292  13.454   8.986  0.00  0.00     0.210 HD
ENDBRANCH   3  12
BRANCH   1  14
HETATM   14  O   UNK N   1      36.378  15.926  11.960  0.00  0.00    -0.369 OA
HETATM   15  H   UNK N   1      36.946  16.689  12.153  0.00  0.00     0.212 HD
ENDBRANCH   1  14
BRANCH   2  16
HETATM   16  O   UNK N   1      34.287  13.882  11.782  0.00  0.00    -0.388 OA
HETATM   17  H   UNK N   1      34.720  13.961  12.646  0.00  0.00     0.210 HD
ENDBRANCH   2  16
TORSDOF 6
ENDMDL
MODEL 4
REMARK VINA RESULT:      -5.1     14.374     15.543
REMARK  6 active torsions:
REMARK  status: ('A' for Active; 'I' for Inactive)
REMARK    1  A    between atoms: C_2  and  O_1 
REMARK    2  A    between atoms: C_3  and  O_4 
REMARK    3  A    between atoms: C_5  and  O_6 
REMARK    4  A    between atoms: C_7  and  O_8 
REMARK    5  A    between atoms: C_9  and  C_11 
REMARK    6  A    between atoms: C_11  and  O_12 
ROOT
HETATM    1  C   UNK N   1      33.744  15.748   6.860  0.00  0.00     0.288 A 
HETATM    2  C   UNK N   1      34.126  17.222   6.935  0.00  0.00     0.204 A 
HETATM    3  C   UNK N   1      34.585  17.783   8.241  0.00  0.00     0.183 A 
HETATM    4  C   UNK N   1      34.633  16.838   9.391  0.00  0.00     0.180 A 
HETATM    5  C   UNK N   1      34.224  15.381   9.190  0.00  0.00     0.179 A 
HETATM    6  O   UNK N   1      33.785  14.838   7.945  0.00  0.00    -0.349 OA
ENDROOT
BRANCH   5   7
HETATM    7  C   UNK N   1      34.279  14.430  10.371  0.00  0.00     0.198 C 
BRANCH   7   8
HETATM    8  O   UNK N   1      33.418  14.863  11.379  0.00  0.00    -0.398 OA
HETATM    9  H   UNK N   1      33.585  14.612  12.300  0.00  0.00     0.209 HD
ENDBRANCH   7   8
ENDBRANCH   5   7
BRANCH   4  10
HETATM   10  O   UNK N   1      35.052  17.296  10.642  0.00  0.00    -0.390 OA
HETATM   11  H   UNK N   1      35.404  18.195  10.735  0.00  0.00     0.210 HD
ENDBRANCH   4  10
BRANCH   3  12
HETATM   12  O   UNK N   1      34.949  19.120   8.382  0.00  0.00    -0.390 OA
HETATM   13  H   UNK N   1      35.128  19.485   9.262  0.00  0.00     0.210 HD
ENDBRANCH   3  12
BRANCH   1  14
HETATM   14  O   UNK N   1      33.314  15.215   5.641  0.00  0.00    -0.369 OA
HETATM   15  H   UNK N   1      33.030  15.807   4.927  0.00  0.00     0.212 HD
ENDBRANCH   1  14
BRANCH   2  16
HETATM   16  O   UNK N   1      34.055  18.044   5.814  0.00  0.00    -0.388 OA
HETATM   17  H   UNK N   1      34.690  17.933   5.089  0.00  0.00     0.210 HD
ENDBRANCH   2  16
TORSDOF 6
ENDMDL
MODEL 5
REMARK VINA RESULT:      -5.0      1.149      3.096
REMARK  6 active torsions:
REMARK  status: ('A' for Active; 'I' for Inactive)
REMARK    1  A    between atoms: C_2  and  O_1 
REMARK    2  A    between atoms: C_3  and  O_4 
REMARK    3  A    between atoms: C_5  and  O_6 
REMARK    4  A    between atoms: C_7  and  O_8 
REMARK    5  A    between atoms: C_9  and  C_11 
REMARK    6  A    between atoms: C_11  and  O_12 
ROOT
HETATM    1  C   UNK N   1      21.280  20.377   2.742  0.00  0.00     0.288 A 
HETATM    2  C   UNK N   1      20.757  19.681   1.490  0.00  0.00     0.204 A 
HETATM    3  C   UNK N   1      20.312  18.259   1.588  0.00  0.00     0.183 A 
HETATM    4  C   UNK N   1      20.419  17.619   2.928  0.00  0.00     0.180 A 
HETATM    5  C   UNK N   1      20.961  18.422   4.108  0.00  0.00     0.179 A 
HETATM    6  O   UNK N   1      21.387  19.781   4.023  0.00  0.00    -0.349 OA
ENDROOT
BRANCH   5   7
HETATM    7  C   UNK N   1      21.063  17.756   5.467  0.00  0.00     0.198 C 
BRANCH   7   8
HETATM    8  O   UNK N   1      21.437  18.687   6.434  0.00  0.00    -0.398 OA
HETATM    9  H   UNK N   1      20.769  19.259   6.842  0.00  0.00     0.209 HD
ENDBRANCH   7   8
ENDBRANCH   5   7
BRANCH   4  10
HETATM   10  O   UNK N   1      20.021  16.290   3.090  0.00  0.00    -0.390 OA
HETATM   11  H   UNK N   1      19.885  15.931   3.981  0.00  0.00     0.210 HD
ENDBRANCH   4  10
BRANCH   3  12
HETATM   12  O   UNK N   1      19.824  17.563   0.485  0.00  0.00    -0.390 OA
HETATM   13  H   UNK N   1      20.435  17.241  -0.196  0.00  0.00     0.210 HD
ENDBRANCH   3  12
BRANCH   1  14
HETATM   14  O   UNK N   1      21.698  21.709   2.659  0.00  0.00    -0.369 OA
HETATM   15  H   UNK N   1      21.336  22.369   3.272  0.00  0.00     0.212 HD
ENDBRANCH   1  14
BRANCH   2  16
HETATM   16  O   UNK N   1      20.688  20.348   0.270  0.00  0.00    -0.388 OA
HETATM   17  H   UNK N   1      21.378  20.983   0.024  0.00  0.00     0.210 HD
ENDBRANCH   2  16
TORSDOF 6
ENDMDL
MODEL 6
REMARK VINA RESULT:      -4.7     13.822     14.830
REMARK  6 active torsions:
REMARK  status: ('A' for Active; 'I' for Inactive)
REMARK    1  A    between atoms: C_2  and  O_1 
REMARK    2  A    between atoms: C_3  and  O_4 
REMARK    3  A    between atoms: C_5  and  O_6 
REMARK    4  A    between atoms: C_7  and  O_8 
REMARK    5  A    between atoms: C_9  and  C_11 
REMARK    6  A    between atoms: C_11  and  O_12 
ROOT
HETATM    1  C   UNK N   1      33.630  15.647   9.513  0.00  0.00     0.288 A 
HETATM    2  C   UNK N   1      34.426  16.942   9.626  0.00  0.00     0.204 A 
HETATM    3  C   UNK N   1      34.595  17.795   8.411  0.00  0.00     0.183 A 
HETATM    4  C   UNK N   1      33.958  17.301   7.159  0.00  0.00     0.180 A 
HETATM    5  C   UNK N   1      33.185  15.985   7.172  0.00  0.00     0.179 A 
HETATM    6  O   UNK N   1      33.019  15.165   8.329  0.00  0.00    -0.349 OA
ENDROOT
BRANCH   5   7
HETATM    7  C   UNK N   1      32.542  15.495   5.888  0.00  0.00     0.198 C 
BRANCH   7   8
HETATM    8  O   UNK N   1      31.696  16.474   5.368  0.00  0.00    -0.398 OA
HETATM    9  H   UNK N   1      31.720  16.683   4.421  0.00  0.00     0.209 HD
ENDBRANCH   7   8
ENDBRANCH   5   7
BRANCH   4  10
HETATM   10  O   UNK N   1      34.076  18.048   5.985  0.00  0.00    -0.390 OA
HETATM   11  H   UNK N   1      34.881  17.982   5.447  0.00  0.00     0.210 HD
ENDBRANCH   4  10
BRANCH   3  12
HETATM   12  O   UNK N   1      35.310  18.990   8.443  0.00  0.00    -0.390 OA
HETATM   13  H   UNK N   1      35.482  19.474   7.621  0.00  0.00     0.210 HD
ENDBRANCH   3  12
BRANCH   1  14
HETATM   14  O   UNK N   1      33.468  14.844  10.645  0.00  0.00    -0.369 OA
HETATM   15  H   UNK N   1      32.833  14.110  10.632  0.00  0.00     0.212 HD
ENDBRANCH   1  14
BRANCH   2  16
HETATM   16  O   UNK N   1      34.993  17.338  10.835  0.00  0.00    -0.388 OA
HETATM   17  H   UNK N   1      34.883  18.249  11.147  0.00  0.00     0.210 HD
ENDBRANCH   2  16
TORSDOF 6
ENDMDL
MODEL 7
REMARK VINA RESULT:      -4.7      9.150     10.915
REMARK  6 active torsions:
REMARK  status: ('A' for Active; 'I' for Inactive)
REMARK    1  A    between atoms: C_2  and  O_1 
REMARK    2  A    between atoms: C_3  and  O_4 
REMARK    3  A    between atoms: C_5  and  O_6 
REMARK    4  A    between atoms: C_7  and  O_8 
REMARK    5  A    between atoms: C_9  and  C_11 
REMARK    6  A    between atoms: C_11  and  O_12 
ROOT
HETATM    1  C   UNK N   1      23.940  12.309  11.053  0.00  0.00     0.288 A 
HETATM    2  C   UNK N   1      22.680  11.929  11.822  0.00  0.00     0.204 A 
HETATM    3  C   UNK N   1      21.348  12.285  11.247  0.00  0.00     0.183 A 
HETATM    4  C   UNK N   1      21.358  12.999   9.941  0.00  0.00     0.180 A 
HETATM    5  C   UNK N   1      22.688  13.324   9.266  0.00  0.00     0.179 A 
HETATM    6  O   UNK N   1      23.964  12.987   9.810  0.00  0.00    -0.349 OA
ENDROOT
BRANCH   5   7
HETATM    7  C   UNK N   1      22.680  14.052   7.935  0.00  0.00     0.198 C 
BRANCH   7   8
HETATM    8  O   UNK N   1      21.781  15.116   7.971  0.00  0.00    -0.398 OA
HETATM    9  H   UNK N   1      20.889  14.985   8.327  0.00  0.00     0.209 HD
ENDBRANCH   7   8
ENDBRANCH   5   7
BRANCH   4  10
HETATM   10  O   UNK N   1      20.147  13.362   9.346  0.00  0.00    -0.390 OA
HETATM   11  H   UNK N   1      19.920  14.300   9.244  0.00  0.00     0.210 HD
ENDBRANCH   4  10
BRANCH   3  12
HETATM   12  O   UNK N   1      20.157  11.969  11.897  0.00  0.00    -0.390 OA
HETATM   13  H   UNK N   1      20.127  11.228  12.522  0.00  0.00     0.210 HD
ENDBRANCH   3  12
BRANCH   1  14
HETATM   14  O   UNK N   1      25.190  11.979  11.584  0.00  0.00    -0.369 OA
HETATM   15  H   UNK N   1      25.913  12.626  11.559  0.00  0.00     0.212 HD
ENDBRANCH   1  14
BRANCH   2  16
HETATM   16  O   UNK N   1      22.753  11.261  13.042  0.00  0.00    -0.388 OA
HETATM   17  H   UNK N   1      22.991  10.321  13.067  0.00  0.00     0.210 HD
ENDBRANCH   2  16
TORSDOF 6
ENDMDL
MODEL 8
REMARK VINA RESULT:      -4.7      9.203     10.910
REMARK  6 active torsions:
REMARK  status: ('A' for Active; 'I' for Inactive)
REMARK    1  A    between atoms: C_2  and  O_1 
REMARK    2  A    between atoms: C_3  and  O_4 
REMARK    3  A    between atoms: C_5  and  O_6 
REMARK    4  A    between atoms: C_7  and  O_8 
REMARK    5  A    between atoms: C_9  and  C_11 
REMARK    6  A    between atoms: C_11  and  O_12 
ROOT
HETATM    1  C   UNK N   1      21.148  12.129  11.305  0.00  0.00     0.288 A 
HETATM    2  C   UNK N   1      22.549  11.951  11.880  0.00  0.00     0.204 A 
HETATM    3  C   UNK N   1      23.723  12.393  11.069  0.00  0.00     0.183 A 
HETATM    4  C   UNK N   1      23.426  12.985   9.736  0.00  0.00     0.180 A 
HETATM    5  C   UNK N   1      21.978  13.111   9.270  0.00  0.00     0.179 A 
HETATM    6  O   UNK N   1      20.851  12.691  10.039  0.00  0.00    -0.349 OA
ENDROOT
BRANCH   5   7
HETATM    7  C   UNK N   1      21.691  13.717   7.909  0.00  0.00     0.198 C 
BRANCH   7   8
HETATM    8  O   UNK N   1      20.316  13.764   7.682  0.00  0.00    -0.398 OA
HETATM    9  H   UNK N   1      19.956  14.368   7.015  0.00  0.00     0.209 HD
ENDBRANCH   7   8
ENDBRANCH   5   7
BRANCH   4  10
HETATM   10  O   UNK N   1      24.477  13.420   8.926  0.00  0.00    -0.390 OA
HETATM   11  H   UNK N   1      24.407  14.265   8.454  0.00  0.00     0.210 HD
ENDBRANCH   4  10
BRANCH   3  12
HETATM   12  O   UNK N   1      25.030  12.260  11.533  0.00  0.00    -0.390 OA
HETATM   13  H   UNK N   1      25.627  11.616  11.122  0.00  0.00     0.210 HD
ENDBRANCH   3  12
BRANCH   1  14
HETATM   14  O   UNK N   1      20.044  11.718  12.057  0.00  0.00    -0.369 OA
HETATM   15  H   UNK N   1      20.014  10.820  12.423  0.00  0.00     0.212 HD
ENDBRANCH   1  14
BRANCH   2  16
HETATM   16  O   UNK N   1      22.747  11.387  13.138  0.00  0.00    -0.388 OA
HETATM   17  H   UNK N   1      22.044  10.860  13.549  0.00  0.00     0.210 HD
ENDBRANCH   2  16
TORSDOF 6
ENDMDL
MODEL 9
REMARK VINA RESULT:      -4.7     14.957     16.440
REMARK  6 active torsions:
REMARK  status: ('A' for Active; 'I' for Inactive)
REMARK    1  A    between atoms: C_2  and  O_1 
REMARK    2  A    between atoms: C_3  and  O_4 
REMARK    3  A    between atoms: C_5  and  O_6 
REMARK    4  A    between atoms: C_7  and  O_8 
REMARK    5  A    between atoms: C_9  and  C_11 
REMARK    6  A    between atoms: C_11  and  O_12 
ROOT
HETATM    1  C   UNK N   1      33.167  14.553   9.483  0.00  0.00     0.288 A 
HETATM    2  C   UNK N   1      34.274  14.454  10.526  0.00  0.00     0.204 A 
HETATM    3  C   UNK N   1      35.177  15.625  10.735  0.00  0.00     0.183 A 
HETATM    4  C   UNK N   1      34.917  16.823   9.891  0.00  0.00     0.180 A 
HETATM    5  C   UNK N   1      33.775  16.803   8.879  0.00  0.00     0.179 A 
HETATM    6  O   UNK N   1      32.909  15.687   8.673  0.00  0.00    -0.349 OA
ENDROOT
BRANCH   5   7
HETATM    7  C   UNK N   1      33.523  18.032   8.026  0.00  0.00     0.198 C 
BRANCH   7   8
HETATM    8  O   UNK N   1      34.664  18.350   7.289  0.00  0.00    -0.398 OA
HETATM    9  H   UNK N   1      34.588  18.566   6.348  0.00  0.00     0.209 HD
ENDBRANCH   7   8
ENDBRANCH   5   7
BRANCH   4  10
HETATM   10  O   UNK N   1      35.724  17.955  10.035  0.00  0.00    -0.390 OA
HETATM   11  H   UNK N   1      36.690  17.863  10.048  0.00  0.00     0.210 HD
ENDBRANCH   4  10
BRANCH   3  12
HETATM   12  O   UNK N   1      36.209  15.602  11.671  0.00  0.00    -0.390 OA
HETATM   13  H   UNK N   1      36.144  15.030  12.450  0.00  0.00     0.210 HD
ENDBRANCH   3  12
BRANCH   1  14
HETATM   14  O   UNK N   1      32.318  13.462   9.281  0.00  0.00    -0.369 OA
HETATM   15  H   UNK N   1      31.685  13.206   9.971  0.00  0.00     0.212 HD
ENDBRANCH   1  14
BRANCH   2  16
HETATM   16  O   UNK N   1      34.455  13.296  11.279  0.00  0.00    -0.388 OA
HETATM   17  H   UNK N   1      34.071  13.230  12.167  0.00  0.00     0.210 HD
ENDBRANCH   2  16
TORSDOF 6
ENDMDL
