MODEL 1
REMARK VINA RESULT:      -8.1      0.000      0.000
REMARK  7 active torsions:
REMARK  status: ('A' for Active; 'I' for Inactive)
REMARK    1  A    between atoms: O_1  and  C_2 
REMARK    2  A    between atoms: C_5  and  C_8 
REMARK       I    between atoms: C_8  and  N_10 
REMARK    3  A    between atoms: C_11  and  N_10 
REMARK    4  A    between atoms: C_12  and  O_18 
REMARK    5  A    between atoms: O_18  and  C_19 
REMARK    6  A    between atoms: C_19  and  C_21 
REMARK    7  A    between atoms: C_24  and  O_27 
ROOT
HETATM    1  C   UNK N   1      20.334  15.999   5.752  0.00  0.00     0.131 C 
HETATM    2  C   UNK N   1      20.593  14.457   5.922  0.00  0.00     0.156 C 
HETATM    3  C   UNK N   1      21.664  13.957   4.937  0.00  0.00     0.036 C 
HETATM    4  C   UNK N   1      21.285  13.879   3.467  0.00  0.00     0.022 C 
HETATM    5  C   UNK N   1      20.862  15.229   2.945  0.00  0.00     0.114 C 
HETATM    6  N   UNK N   1      19.505  15.456   3.394  0.00  0.00    -0.419 N 
HETATM    7  C   UNK N   1      19.502  16.398   4.506  0.00  0.00     0.141 C 
HETATM    8  H   UNK N   1      18.674  15.022   2.991  0.00  0.00     0.153 HD
ENDROOT
BRANCH   1   9
HETATM    9  N   UNK N   1      19.753  16.531   6.982  0.00  0.00    -0.348 N 
HETATM   10  C   UNK N   1      20.070  17.645   7.698  0.00  0.00     0.252 C 
HETATM   11  O   UNK N   1      21.010  18.361   7.380  0.00  0.00    -0.268 OA
HETATM   12  H   UNK N   1      19.015  15.996   7.353  0.00  0.00     0.163 HD
BRANCH  10  13
HETATM   13  C   UNK N   1      19.214  18.027   8.842  0.00  0.00     0.032 A 
HETATM   14  C   UNK N   1      19.623  19.050   9.713  0.00  0.00     0.020 A 
HETATM   15  C   UNK N   1      18.854  19.378  10.832  0.00  0.00     0.037 A 
HETATM   16  C   UNK N   1      17.671  18.685  11.092  0.00  0.00     0.065 A 
HETATM   17  C   UNK N   1      17.250  17.670  10.227  0.00  0.00     0.037 A 
HETATM   18  C   UNK N   1      18.019  17.340   9.106  0.00  0.00     0.020 A 
BRANCH  16  19
HETATM   19  O   UNK N   1      16.939  18.993  12.174  0.00  0.00    -0.361 OA
HETATM   20  H   UNK N   1      16.023  19.176  12.089  0.00  0.00     0.217 HD
ENDBRANCH  16  19
ENDBRANCH  10  13
ENDBRANCH   1   9
BRANCH   2  21
HETATM   21  O   UNK N   1      21.115  14.167   7.178  0.00  0.00    -0.310 OA
BRANCH  21  22
HETATM   22  C   UNK N   1      21.361  12.920   7.672  0.00  0.00     0.293 C 
HETATM   23  O   UNK N   1      20.783  11.943   7.213  0.00  0.00    -0.259 OA
BRANCH  22  24
HETATM   24  C   UNK N   1      22.330  12.746   8.771  0.00  0.00     0.039 A 
HETATM   25  C   UNK N   1      23.685  13.057   8.581  0.00  0.00     0.020 A 
HETATM   26  C   UNK N   1      24.602  12.883   9.621  0.00  0.00     0.037 A 
HETATM   27  C   UNK N   1      24.169  12.408  10.861  0.00  0.00     0.065 A 
HETATM   28  C   UNK N   1      22.820  12.100  11.060  0.00  0.00     0.037 A 
HETATM   29  C   UNK N   1      21.904  12.262  10.016  0.00  0.00     0.020 A 
BRANCH  27  30
HETATM   30  O   UNK N   1      25.048  12.248  11.863  0.00  0.00    -0.361 OA
HETATM   31  H   UNK N   1      25.318  12.956  12.415  0.00  0.00     0.217 HD
ENDBRANCH  27  30
ENDBRANCH  22  24
ENDBRANCH  21  22
ENDBRANCH   2  21
TORSDOF 7
ENDMDL
MODEL 2
REMARK VINA RESULT:      -7.8     10.521     13.523
REMARK  7 active torsions:
REMARK  status: ('A' for Active; 'I' for Inactive)
REMARK    1  A    between atoms: O_1  and  C_2 
REMARK    2  A    between atoms: C_5  and  C_8 
REMARK       I    between atoms: C_8  and  N_10 
REMARK    3  A    between atoms: C_11  and  N_10 
REMARK    4  A    between atoms: C_12  and  O_18 
REMARK    5  A    between atoms: O_18  and  C_19 
REMARK    6  A    between atoms: C_19  and  C_21 
REMARK    7  A    between atoms: C_24  and  O_27 
ROOT
HETATM    1  C   UNK N   1      34.233  15.143   9.698  0.00  0.00     0.131 C 
HETATM    2  C   UNK N   1      35.214  15.120   8.470  0.00  0.00     0.156 C 
HETATM    3  C   UNK N   1      36.279  14.020   8.624  0.00  0.00     0.036 C 
HETATM    4  C   UNK N   1      37.361  14.232   9.671  0.00  0.00     0.022 C 
HETATM    5  C   UNK N   1      36.761  14.401  11.043  0.00  0.00     0.114 C 
HETATM    6  N   UNK N   1      36.263  15.758  11.129  0.00  0.00    -0.419 N 
HETATM    7  C   UNK N   1      34.812  15.761  10.998  0.00  0.00     0.141 C 
HETATM    8  H   UNK N   1      36.842  16.587  11.261  0.00  0.00     0.153 HD
ENDROOT
BRANCH   1   9
HETATM    9  N   UNK N   1      32.981  15.786   9.306  0.00  0.00    -0.348 N 
HETATM   10  C   UNK N   1      32.752  17.015   8.765  0.00  0.00     0.252 C 
HETATM   11  O   UNK N   1      33.663  17.813   8.587  0.00  0.00    -0.268 OA
HETATM   12  H   UNK N   1      32.174  15.243   9.457  0.00  0.00     0.163 HD
BRANCH  10  13
HETATM   13  C   UNK N   1      31.382  17.359   8.328  0.00  0.00     0.032 A 
HETATM   14  C   UNK N   1      30.679  18.391   8.972  0.00  0.00     0.020 A 
HETATM   15  C   UNK N   1      29.363  18.686   8.609  0.00  0.00     0.037 A 
HETATM   16  C   UNK N   1      28.736  17.950   7.602  0.00  0.00     0.065 A 
HETATM   17  C   UNK N   1      29.429  16.925   6.949  0.00  0.00     0.037 A 
HETATM   18  C   UNK N   1      30.747  16.629   7.311  0.00  0.00     0.020 A 
BRANCH  16  19
HETATM   19  O   UNK N   1      27.467  18.225   7.263  0.00  0.00    -0.361 OA
HETATM   20  H   UNK N   1      27.159  19.111   7.262  0.00  0.00     0.217 HD
ENDBRANCH  16  19
ENDBRANCH  10  13
ENDBRANCH   1   9
BRANCH   2  21
HETATM   21  O   UNK N   1      34.547  14.793   7.295  0.00  0.00    -0.310 OA
BRANCH  21  22
HETATM   22  C   UNK N   1      34.799  15.317   6.061  0.00  0.00     0.293 C 
HETATM   23  O   UNK N   1      35.948  15.410   5.647  0.00  0.00    -0.259 OA
BRANCH  22  24
HETATM   24  C   UNK N   1      33.678  15.777   5.218  0.00  0.00     0.039 A 
HETATM   25  C   UNK N   1      33.484  17.146   4.979  0.00  0.00     0.020 A 
HETATM   26  C   UNK N   1      32.416  17.578   4.188  0.00  0.00     0.037 A 
HETATM   27  C   UNK N   1      31.543  16.646   3.622  0.00  0.00     0.065 A 
HETATM   28  C   UNK N   1      31.733  15.281   3.852  0.00  0.00     0.037 A 
HETATM   29  C   UNK N   1      32.794  14.847   4.654  0.00  0.00     0.020 A 
BRANCH  27  30
HETATM   30  O   UNK N   1      30.522  17.062   2.855  0.00  0.00    -0.361 OA
HETATM   31  H   UNK N   1      30.090  17.881   2.992  0.00  0.00     0.217 HD
ENDBRANCH  27  30
ENDBRANCH  22  24
ENDBRANCH  21  22
ENDBRANCH   2  21
TORSDOF 7
ENDMDL
MODEL 3
REMARK VINA RESULT:      -7.6      4.824      6.864
REMARK  7 active torsions:
REMARK  status: ('A' for Active; 'I' for Inactive)
REMARK    1  A    between atoms: O_1  and  C_2 
REMARK    2  A    between atoms: C_5  and  C_8 
REMARK       I    between atoms: C_8  and  N_10 
REMARK    3  A    between atoms: C_11  and  N_10 
REMARK    4  A    between atoms: C_12  and  O_18 
REMARK    5  A    between atoms: O_18  and  C_19 
REMARK    6  A    between atoms: C_19  and  C_21 
REMARK    7  A    between atoms: C_24  and  O_27 
ROOT
HETATM    1  C   UNK N   1      22.799  19.136   3.614  0.00  0.00     0.131 C 
HETATM    2  C   UNK N   1      21.504  18.868   4.464  0.00  0.00     0.156 C 
HETATM    3  C   UNK N   1      20.326  18.438   3.571  0.00  0.00     0.036 C 
HETATM    4  C   UNK N   1      19.699  19.497   2.680  0.00  0.00     0.022 C 
HETATM    5  C   UNK N   1      20.718  20.087   1.739  0.00  0.00     0.114 C 
HETATM    6  N   UNK N   1      21.502  21.038   2.498  0.00  0.00    -0.419 N 
HETATM    7  C   UNK N   1      22.804  20.465   2.814  0.00  0.00     0.141 C 
HETATM    8  H   UNK N   1      21.190  21.970   2.770  0.00  0.00     0.153 HD
ENDROOT
BRANCH   1   9
HETATM    9  N   UNK N   1      23.975  19.018   4.473  0.00  0.00    -0.348 N 
HETATM   10  C   UNK N   1      25.230  18.569   4.194  0.00  0.00     0.252 C 
HETATM   11  O   UNK N   1      25.516  18.118   3.093  0.00  0.00    -0.268 OA
HETATM   12  H   UNK N   1      23.836  19.310   5.403  0.00  0.00     0.163 HD
BRANCH  10  13
HETATM   13  C   UNK N   1      26.279  18.693   5.229  0.00  0.00     0.032 A 
HETATM   14  C   UNK N   1      26.930  17.545   5.709  0.00  0.00     0.020 A 
HETATM   15  C   UNK N   1      27.880  17.642   6.728  0.00  0.00     0.037 A 
HETATM   16  C   UNK N   1      28.186  18.887   7.279  0.00  0.00     0.065 A 
HETATM   17  C   UNK N   1      27.549  20.038   6.803  0.00  0.00     0.037 A 
HETATM   18  C   UNK N   1      26.598  19.942   5.782  0.00  0.00     0.020 A 
BRANCH  16  19
HETATM   19  O   UNK N   1      29.089  18.978   8.268  0.00  0.00    -0.361 OA
HETATM   20  H   UNK N   1      28.853  19.361   9.090  0.00  0.00     0.217 HD
ENDBRANCH  16  19
ENDBRANCH  10  13
ENDBRANCH   1   9
BRANCH   2  21
HETATM   21  O   UNK N   1      21.683  17.801   5.338  0.00  0.00    -0.310 OA
BRANCH  21  22
HETATM   22  C   UNK N   1      21.240  17.741   6.626  0.00  0.00     0.293 C 
HETATM   23  O   UNK N   1      20.931  18.761   7.227  0.00  0.00    -0.259 OA
BRANCH  22  24
HETATM   24  C   UNK N   1      21.136  16.433   7.303  0.00  0.00     0.039 A 
HETATM   25  C   UNK N   1      20.345  16.289   8.453  0.00  0.00     0.020 A 
HETATM   26  C   UNK N   1      20.255  15.052   9.097  0.00  0.00     0.037 A 
HETATM   27  C   UNK N   1      20.945  13.949   8.590  0.00  0.00     0.065 A 
HETATM   28  C   UNK N   1      21.732  14.084   7.442  0.00  0.00     0.037 A 
HETATM   29  C   UNK N   1      21.833  15.324   6.804  0.00  0.00     0.020 A 
BRANCH  27  30
HETATM   30  O   UNK N   1      20.852  12.758   9.204  0.00  0.00    -0.361 OA
HETATM   31  H   UNK N   1      21.091  12.634  10.101  0.00  0.00     0.217 HD
ENDBRANCH  27  30
ENDBRANCH  22  24
ENDBRANCH  21  22
ENDBRANCH   2  21
TORSDOF 7
ENDMDL
MODEL 4
REMARK VINA RESULT:      -7.5     16.406     18.401
REMARK  7 active torsions:
REMARK  status: ('A' for Active; 'I' for Inactive)
REMARK    1  A    between atoms: O_1  and  C_2 
REMARK    2  A    between atoms: C_5  and  C_8 
REMARK       I    between atoms: C_8  and  N_10 
REMARK    3  A    between atoms: C_11  and  N_10 
REMARK    4  A    between atoms: C_12  and  O_18 
REMARK    5  A    between atoms: O_18  and  C_19 
REMARK    6  A    between atoms: C_19  and  C_21 
REMARK    7  A    between atoms: C_24  and  O_27 
ROOT
HETATM    1  C   UNK N   1      31.120  21.622  -5.327  0.00  0.00     0.131 C 
HETATM    2  C   UNK N   1      31.092  21.018  -3.876  0.00  0.00     0.156 C 
HETATM    3  C   UNK N   1      32.374  21.364  -3.099  0.00  0.00     0.036 C 
HETATM    4  C   UNK N   1      33.659  20.670  -3.520  0.00  0.00     0.022 C 
HETATM    5  C   UNK N   1      33.979  20.953  -4.965  0.00  0.00     0.114 C 
HETATM    6  N   UNK N   1      33.129  20.100  -5.768  0.00  0.00    -0.419 N 
HETATM    7  C   UNK N   1      32.038  20.881  -6.335  0.00  0.00     0.141 C 
HETATM    8  H   UNK N   1      33.273  19.100  -5.915  0.00  0.00     0.153 HD
ENDROOT
BRANCH   1   9
HETATM    9  N   UNK N   1      29.754  21.743  -5.828  0.00  0.00    -0.348 N 
HETATM   10  C   UNK N   1      29.191  22.679  -6.642  0.00  0.00     0.252 C 
HETATM   11  O   UNK N   1      29.828  23.649  -7.032  0.00  0.00    -0.268 OA
HETATM   12  H   UNK N   1      29.141  21.033  -5.529  0.00  0.00     0.163 HD
BRANCH  10  13
HETATM   13  C   UNK N   1      27.804  22.478  -7.111  0.00  0.00     0.032 A 
HETATM   14  C   UNK N   1      26.810  23.416  -6.787  0.00  0.00     0.020 A 
HETATM   15  C   UNK N   1      25.484  23.207  -7.172  0.00  0.00     0.037 A 
HETATM   16  C   UNK N   1      25.139  22.057  -7.883  0.00  0.00     0.065 A 
HETATM   17  C   UNK N   1      26.121  21.119  -8.219  0.00  0.00     0.037 A 
HETATM   18  C   UNK N   1      27.449  21.328  -7.833  0.00  0.00     0.020 A 
BRANCH  16  19
HETATM   19  O   UNK N   1      23.862  21.850  -8.242  0.00  0.00    -0.361 OA
HETATM   20  H   UNK N   1      23.182  22.403  -7.909  0.00  0.00     0.217 HD
ENDBRANCH  16  19
ENDBRANCH  10  13
ENDBRANCH   1   9
BRANCH   2  21
HETATM   21  O   UNK N   1      30.067  21.573  -3.117  0.00  0.00    -0.310 OA
BRANCH  21  22
HETATM   22  C   UNK N   1      30.089  22.797  -2.517  0.00  0.00     0.293 C 
HETATM   23  O   UNK N   1      30.655  22.954  -1.442  0.00  0.00    -0.259 OA
BRANCH  22  24
HETATM   24  C   UNK N   1      29.425  23.943  -3.168  0.00  0.00     0.039 A 
HETATM   25  C   UNK N   1      30.185  24.966  -3.755  0.00  0.00     0.020 A 
HETATM   26  C   UNK N   1      29.553  26.054  -4.362  0.00  0.00     0.037 A 
HETATM   27  C   UNK N   1      28.159  26.122  -4.397  0.00  0.00     0.065 A 
HETATM   28  C   UNK N   1      27.395  25.105  -3.818  0.00  0.00     0.037 A 
HETATM   29  C   UNK N   1      28.026  24.021  -3.199  0.00  0.00     0.020 A 
BRANCH  27  30
HETATM   30  O   UNK N   1      27.551  27.164  -4.988  0.00  0.00    -0.361 OA
HETATM   31  H   UNK N   1      27.081  27.082  -5.794  0.00  0.00     0.217 HD
ENDBRANCH  27  30
ENDBRANCH  22  24
ENDBRANCH  21  22
ENDBRANCH   2  21
TORSDOF 7
ENDMDL
MODEL 5
REMARK VINA RESULT:      -7.5     16.997     18.073
REMARK  7 active torsions:
REMARK  status: ('A' for Active; 'I' for Inactive)
REMARK    1  A    between atoms: O_1  and  C_2 
REMARK    2  A    between atoms: C_5  and  C_8 
REMARK       I    between atoms: C_8  and  N_10 
REMARK    3  A    between atoms: C_11  and  N_10 
REMARK    4  A    between atoms: C_12  and  O_18 
REMARK    5  A    between atoms: O_18  and  C_19 
REMARK    6  A    between atoms: C_19  and  C_21 
REMARK    7  A    between atoms: C_24  and  O_27 
ROOT
HETATM    1  C   UNK N   1      26.583  24.107  -7.867  0.00  0.00     0.131 C 
HETATM    2  C   UNK N   1      27.150  23.040  -6.861  0.00  0.00     0.156 C 
HETATM    3  C   UNK N   1      27.611  21.767  -7.594  0.00  0.00     0.036 C 
HETATM    4  C   UNK N   1      26.535  20.863  -8.173  0.00  0.00     0.022 C 
HETATM    5  C   UNK N   1      25.679  21.607  -9.166  0.00  0.00     0.114 C 
HETATM    6  N   UNK N   1      24.744  22.411  -8.407  0.00  0.00    -0.419 N 
HETATM    7  C   UNK N   1      25.166  23.806  -8.422  0.00  0.00     0.141 C 
HETATM    8  H   UNK N   1      23.914  22.054  -7.933  0.00  0.00     0.153 HD
ENDROOT
BRANCH   1   9
HETATM    9  N   UNK N   1      26.654  25.432  -7.258  0.00  0.00    -0.348 N 
HETATM   10  C   UNK N   1      25.870  26.009  -6.304  0.00  0.00     0.252 C 
HETATM   11  O   UNK N   1      24.888  25.434  -5.853  0.00  0.00    -0.268 OA
HETATM   12  H   UNK N   1      27.386  26.000  -7.591  0.00  0.00     0.163 HD
BRANCH  10  13
HETATM   13  C   UNK N   1      26.259  27.328  -5.762  0.00  0.00     0.032 A 
HETATM   14  C   UNK N   1      27.269  28.075  -6.390  0.00  0.00     0.020 A 
HETATM   15  C   UNK N   1      27.688  29.294  -5.854  0.00  0.00     0.037 A 
HETATM   16  C   UNK N   1      27.102  29.778  -4.683  0.00  0.00     0.065 A 
HETATM   17  C   UNK N   1      26.089  29.047  -4.053  0.00  0.00     0.037 A 
HETATM   18  C   UNK N   1      25.669  27.825  -4.590  0.00  0.00     0.020 A 
BRANCH  16  19
HETATM   19  O   UNK N   1      27.514  30.944  -4.161  0.00  0.00    -0.361 OA
HETATM   20  H   UNK N   1      27.394  31.122  -3.248  0.00  0.00     0.217 HD
ENDBRANCH  16  19
ENDBRANCH  10  13
ENDBRANCH   1   9
BRANCH   2  21
HETATM   21  O   UNK N   1      28.295  23.505  -6.222  0.00  0.00    -0.310 OA
BRANCH  21  22
HETATM   22  C   UNK N   1      28.448  23.667  -4.877  0.00  0.00     0.293 C 
HETATM   23  O   UNK N   1      27.677  24.376  -4.243  0.00  0.00    -0.259 OA
BRANCH  22  24
HETATM   24  C   UNK N   1      29.556  22.985  -4.179  0.00  0.00     0.039 A 
HETATM   25  C   UNK N   1      30.086  21.789  -4.687  0.00  0.00     0.020 A 
HETATM   26  C   UNK N   1      31.128  21.141  -4.019  0.00  0.00     0.037 A 
HETATM   27  C   UNK N   1      31.655  21.689  -2.847  0.00  0.00     0.065 A 
HETATM   28  C   UNK N   1      31.134  22.881  -2.337  0.00  0.00     0.037 A 
HETATM   29  C   UNK N   1      30.083  23.524  -2.998  0.00  0.00     0.020 A 
BRANCH  27  30
HETATM   30  O   UNK N   1      32.662  21.070  -2.209  0.00  0.00    -0.361 OA
HETATM   31  H   UNK N   1      33.535  21.410  -2.197  0.00  0.00     0.217 HD
ENDBRANCH  27  30
ENDBRANCH  22  24
ENDBRANCH  21  22
ENDBRANCH   2  21
TORSDOF 7
ENDMDL
MODEL 6
REMARK VINA RESULT:      -7.5     16.750     19.578
REMARK  7 active torsions:
REMARK  status: ('A' for Active; 'I' for Inactive)
REMARK    1  A    between atoms: O_1  and  C_2 
REMARK    2  A    between atoms: C_5  and  C_8 
REMARK       I    between atoms: C_8  and  N_10 
REMARK    3  A    between atoms: C_11  and  N_10 
REMARK    4  A    between atoms: C_12  and  O_18 
REMARK    5  A    between atoms: O_18  and  C_19 
REMARK    6  A    between atoms: C_19  and  C_21 
REMARK    7  A    between atoms: C_24  and  O_27 
ROOT
HETATM    1  C   UNK N   1      29.252  27.901  -5.042  0.00  0.00     0.131 C 
HETATM    2  C   UNK N   1      28.476  28.696  -3.930  0.00  0.00     0.156 C 
HETATM    3  C   UNK N   1      27.527  29.739  -4.545  0.00  0.00     0.036 C 
HETATM    4  C   UNK N   1      28.154  30.965  -5.188  0.00  0.00     0.022 C 
HETATM    5  C   UNK N   1      29.091  30.573  -6.302  0.00  0.00     0.114 C 
HETATM    6  N   UNK N   1      30.325  30.133  -5.687  0.00  0.00    -0.419 N 
HETATM    7  C   UNK N   1      30.406  28.678  -5.728  0.00  0.00     0.141 C 
HETATM    8  H   UNK N   1      31.033  30.748  -5.286  0.00  0.00     0.153 HD
ENDROOT
BRANCH   1   9
HETATM    9  N   UNK N   1      29.709  26.626  -4.496  0.00  0.00    -0.348 N 
HETATM   10  C   UNK N   1      29.707  25.379  -5.045  0.00  0.00     0.252 C 
HETATM   11  O   UNK N   1      29.218  25.169  -6.148  0.00  0.00    -0.268 OA
HETATM   12  H   UNK N   1      30.078  26.676  -3.585  0.00  0.00     0.163 HD
BRANCH  10  13
HETATM   13  C   UNK N   1      30.369  24.276  -4.316  0.00  0.00     0.032 A 
HETATM   14  C   UNK N   1      29.840  23.826  -3.096  0.00  0.00     0.020 A 
HETATM   15  C   UNK N   1      30.489  22.826  -2.367  0.00  0.00     0.037 A 
HETATM   16  C   UNK N   1      31.674  22.270  -2.851  0.00  0.00     0.065 A 
HETATM   17  C   UNK N   1      32.205  22.705  -4.070  0.00  0.00     0.037 A 
HETATM   18  C   UNK N   1      31.556  23.706  -4.800  0.00  0.00     0.020 A 
BRANCH  16  19
HETATM   19  O   UNK N   1      32.304  21.318  -2.145  0.00  0.00    -0.361 OA
HETATM   20  H   UNK N   1      33.072  21.528  -1.650  0.00  0.00     0.217 HD
ENDBRANCH  16  19
ENDBRANCH  10  13
ENDBRANCH   1   9
BRANCH   2  21
HETATM   21  O   UNK N   1      27.642  27.858  -3.198  0.00  0.00    -0.310 OA
BRANCH  21  22
HETATM   22  C   UNK N   1      26.364  27.515  -3.529  0.00  0.00     0.293 C 
HETATM   23  O   UNK N   1      25.412  28.069  -2.993  0.00  0.00    -0.259 OA
BRANCH  22  24
HETATM   24  C   UNK N   1      26.126  26.467  -4.539  0.00  0.00     0.039 A 
HETATM   25  C   UNK N   1      26.217  25.110  -4.192  0.00  0.00     0.020 A 
HETATM   26  C   UNK N   1      26.000  24.120  -5.154  0.00  0.00     0.037 A 
HETATM   27  C   UNK N   1      25.679  24.478  -6.465  0.00  0.00     0.065 A 
HETATM   28  C   UNK N   1      25.582  25.828  -6.818  0.00  0.00     0.037 A 
HETATM   29  C   UNK N   1      25.812  26.820  -5.859  0.00  0.00     0.020 A 
BRANCH  27  30
HETATM   30  O   UNK N   1      25.463  23.527  -7.388  0.00  0.00    -0.361 OA
HETATM   31  H   UNK N   1      25.035  23.703  -8.203  0.00  0.00     0.217 HD
ENDBRANCH  27  30
ENDBRANCH  22  24
ENDBRANCH  21  22
ENDBRANCH   2  21
TORSDOF 7
ENDMDL
MODEL 7
REMARK VINA RESULT:      -7.3     11.690     14.775
REMARK  7 active torsions:
REMARK  status: ('A' for Active; 'I' for Inactive)
REMARK    1  A    between atoms: O_1  and  C_2 
REMARK    2  A    between atoms: C_5  and  C_8 
REMARK       I    between atoms: C_8  and  N_10 
REMARK    3  A    between atoms: C_11  and  N_10 
REMARK    4  A    between atoms: C_12  and  O_18 
REMARK    5  A    between atoms: O_18  and  C_19 
REMARK    6  A    between atoms: C_19  and  C_21 
REMARK    7  A    between atoms: C_24  and  O_27 
ROOT
HETATM    1  C   UNK N   1      34.991  14.324   8.862  0.00  0.00     0.131 C 
HETATM    2  C   UNK N   1      34.705  15.825   9.233  0.00  0.00     0.156 C 
HETATM    3  C   UNK N   1      35.596  16.295  10.396  0.00  0.00     0.036 C 
HETATM    4  C   UNK N   1      35.293  15.743  11.780  0.00  0.00     0.022 C 
HETATM    5  C   UNK N   1      35.380  14.239  11.793  0.00  0.00     0.114 C 
HETATM    6  N   UNK N   1      34.157  13.734  11.207  0.00  0.00    -0.419 N 
HETATM    7  C   UNK N   1      34.411  13.276   9.847  0.00  0.00     0.141 C 
HETATM    8  H   UNK N   1      33.251  13.702  11.677  0.00  0.00     0.153 HD
ENDROOT
BRANCH   1   9
HETATM    9  N   UNK N   1      34.557  14.074   7.490  0.00  0.00    -0.348 N 
HETATM   10  C   UNK N   1      33.307  13.909   6.976  0.00  0.00     0.252 C 
HETATM   11  O   UNK N   1      32.318  13.899   7.697  0.00  0.00    -0.268 OA
HETATM   12  H   UNK N   1      35.287  14.013   6.832  0.00  0.00     0.163 HD
BRANCH  10  13
HETATM   13  C   UNK N   1      33.145  13.809   5.509  0.00  0.00     0.032 A 
HETATM   14  C   UNK N   1      31.883  13.530   4.961  0.00  0.00     0.020 A 
HETATM   15  C   UNK N   1      31.727  13.373   3.582  0.00  0.00     0.037 A 
HETATM   16  C   UNK N   1      32.833  13.489   2.739  0.00  0.00     0.065 A 
HETATM   17  C   UNK N   1      34.094  13.775   3.273  0.00  0.00     0.037 A 
HETATM   18  C   UNK N   1      34.250  13.933   4.654  0.00  0.00     0.020 A 
BRANCH  16  19
HETATM   19  O   UNK N   1      32.686  13.325   1.415  0.00  0.00    -0.361 OA
HETATM   20  H   UNK N   1      32.220  13.962   0.908  0.00  0.00     0.217 HD
ENDBRANCH  16  19
ENDBRANCH  10  13
ENDBRANCH   1   9
BRANCH   2  21
HETATM   21  O   UNK N   1      35.029  16.677   8.183  0.00  0.00    -0.310 OA
BRANCH  21  22
HETATM   22  C   UNK N   1      34.286  17.738   7.756  0.00  0.00     0.293 C 
HETATM   23  O   UNK N   1      34.457  18.851   8.236  0.00  0.00    -0.259 OA
BRANCH  22  24
HETATM   24  C   UNK N   1      33.266  17.543   6.708  0.00  0.00     0.039 A 
HETATM   25  C   UNK N   1      31.922  17.332   7.054  0.00  0.00     0.020 A 
HETATM   26  C   UNK N   1      30.960  17.138   6.060  0.00  0.00     0.037 A 
HETATM   27  C   UNK N   1      31.331  17.165   4.713  0.00  0.00     0.065 A 
HETATM   28  C   UNK N   1      32.667  17.379   4.361  0.00  0.00     0.037 A 
HETATM   29  C   UNK N   1      33.633  17.560   5.356  0.00  0.00     0.020 A 
BRANCH  27  30
HETATM   30  O   UNK N   1      30.405  16.987   3.757  0.00  0.00    -0.361 OA
HETATM   31  H   UNK N   1      30.183  16.141   3.422  0.00  0.00     0.217 HD
ENDBRANCH  27  30
ENDBRANCH  22  24
ENDBRANCH  21  22
ENDBRANCH   2  21
TORSDOF 7
ENDMDL
MODEL 8
REMARK VINA RESULT:      -7.3     17.014     18.632
REMARK  7 active torsions:
REMARK  status: ('A' for Active; 'I' for Inactive)
REMARK    1  A    between atoms: O_1  and  C_2 
REMARK    2  A    between atoms: C_5  and  C_8 
REMARK       I    between atoms: C_8  and  N_10 
REMARK    3  A    between atoms: C_11  and  N_10 
REMARK    4  A    between atoms: C_12  and  O_18 
REMARK    5  A    between atoms: O_18  and  C_19 
REMARK    6  A    between atoms: C_19  and  C_21 
REMARK    7  A    between atoms: C_24  and  O_27 
ROOT
HETATM    1  C   UNK N   1      27.575  26.081  -4.818  0.00  0.00     0.131 C 
HETATM    2  C   UNK N   1      26.416  25.394  -5.629  0.00  0.00     0.156 C 
HETATM    3  C   UNK N   1      25.584  26.430  -6.405  0.00  0.00     0.036 C 
HETATM    4  C   UNK N   1      24.675  27.345  -5.601  0.00  0.00     0.022 C 
HETATM    5  C   UNK N   1      25.464  28.141  -4.593  0.00  0.00     0.114 C 
HETATM    6  N   UNK N   1      25.744  27.262  -3.477  0.00  0.00    -0.419 N 
HETATM    7  C   UNK N   1      27.133  26.823  -3.530  0.00  0.00     0.141 C 
HETATM    8  H   UNK N   1      25.070  26.991  -2.761  0.00  0.00     0.153 HD
ENDROOT
BRANCH   1   9
HETATM    9  N   UNK N   1      28.622  25.101  -4.544  0.00  0.00    -0.348 N 
HETATM   10  C   UNK N   1      29.973  25.253  -4.454  0.00  0.00     0.252 C 
HETATM   11  O   UNK N   1      30.508  26.332  -4.671  0.00  0.00    -0.268 OA
HETATM   12  H   UNK N   1      28.299  24.182  -4.402  0.00  0.00     0.163 HD
BRANCH  10  13
HETATM   13  C   UNK N   1      30.794  24.103  -4.019  0.00  0.00     0.032 A 
HETATM   14  C   UNK N   1      31.982  23.793  -4.700  0.00  0.00     0.020 A 
HETATM   15  C   UNK N   1      32.736  22.674  -4.338  0.00  0.00     0.037 A 
HETATM   16  C   UNK N   1      32.307  21.853  -3.294  0.00  0.00     0.065 A 
HETATM   17  C   UNK N   1      31.129  22.157  -2.604  0.00  0.00     0.037 A 
HETATM   18  C   UNK N   1      30.374  23.277  -2.965  0.00  0.00     0.020 A 
BRANCH  16  19
HETATM   19  O   UNK N   1      33.024  20.770  -2.956  0.00  0.00    -0.361 OA
HETATM   20  H   UNK N   1      33.417  20.237  -3.619  0.00  0.00     0.217 HD
ENDBRANCH  16  19
ENDBRANCH  10  13
ENDBRANCH   1   9
BRANCH   2  21
HETATM   21  O   UNK N   1      26.919  24.548  -6.612  0.00  0.00    -0.310 OA
BRANCH  21  22
HETATM   22  C   UNK N   1      26.542  23.254  -6.821  0.00  0.00     0.293 C 
HETATM   23  O   UNK N   1      25.359  22.941  -6.810  0.00  0.00    -0.259 OA
BRANCH  22  24
HETATM   24  C   UNK N   1      27.570  22.222  -7.060  0.00  0.00     0.039 A 
HETATM   25  C   UNK N   1      27.363  21.223  -8.024  0.00  0.00     0.020 A 
HETATM   26  C   UNK N   1      28.334  20.242  -8.242  0.00  0.00     0.037 A 
HETATM   27  C   UNK N   1      29.522  20.260  -7.507  0.00  0.00     0.065 A 
HETATM   28  C   UNK N   1      29.737  21.254  -6.549  0.00  0.00     0.037 A 
HETATM   29  C   UNK N   1      28.760  22.229  -6.321  0.00  0.00     0.020 A 
BRANCH  27  30
HETATM   30  O   UNK N   1      30.459  19.322  -7.723  0.00  0.00    -0.361 OA
HETATM   31  H   UNK N   1      30.246  18.445  -7.973  0.00  0.00     0.217 HD
ENDBRANCH  27  30
ENDBRANCH  22  24
ENDBRANCH  21  22
ENDBRANCH   2  21
TORSDOF 7
ENDMDL
MODEL 9
REMARK VINA RESULT:      -7.3      5.931      9.277
REMARK  7 active torsions:
REMARK  status: ('A' for Active; 'I' for Inactive)
REMARK    1  A    between atoms: O_1  and  C_2 
REMARK    2  A    between atoms: C_5  and  C_8 
REMARK       I    between atoms: C_8  and  N_10 
REMARK    3  A    between atoms: C_11  and  N_10 
REMARK    4  A    between atoms: C_12  and  O_18 
REMARK    5  A    between atoms: O_18  and  C_19 
REMARK    6  A    between atoms: C_19  and  C_21 
REMARK    7  A    between atoms: C_24  and  O_27 
ROOT
HETATM    1  C   UNK N   1      26.053  17.895   4.065  0.00  0.00     0.131 C 
HETATM    2  C   UNK N   1      25.382  19.301   4.278  0.00  0.00     0.156 C 
HETATM    3  C   UNK N   1      26.438  20.401   4.484  0.00  0.00     0.036 C 
HETATM    4  C   UNK N   1      27.200  20.404   5.800  0.00  0.00     0.022 C 
HETATM    5  C   UNK N   1      27.934  19.104   6.003  0.00  0.00     0.114 C 
HETATM    6  N   UNK N   1      26.961  18.128   6.446  0.00  0.00    -0.419 N 
HETATM    7  C   UNK N   1      26.623  17.233   5.347  0.00  0.00     0.141 C 
HETATM    8  H   UNK N   1      26.572  18.074   7.387  0.00  0.00     0.153 HD
ENDROOT
BRANCH   1   9
HETATM    9  N   UNK N   1      25.120  17.013   3.370  0.00  0.00    -0.348 N 
HETATM   10  C   UNK N   1      25.352  15.922   2.588  0.00  0.00     0.252 C 
HETATM   11  O   UNK N   1      26.491  15.565   2.315  0.00  0.00    -0.268 OA
HETATM   12  H   UNK N   1      24.170  17.246   3.484  0.00  0.00     0.163 HD
BRANCH  10  13
HETATM   13  C   UNK N   1      24.201  15.121   2.120  0.00  0.00     0.032 A 
HETATM   14  C   UNK N   1      24.330  14.305   0.984  0.00  0.00     0.020 A 
HETATM   15  C   UNK N   1      23.235  13.590   0.495  0.00  0.00     0.037 A 
HETATM   16  C   UNK N   1      21.999  13.686   1.137  0.00  0.00     0.065 A 
HETATM   17  C   UNK N   1      21.860  14.489   2.274  0.00  0.00     0.037 A 
HETATM   18  C   UNK N   1      22.957  15.205   2.763  0.00  0.00     0.020 A 
BRANCH  16  19
HETATM   19  O   UNK N   1      20.943  13.009   0.659  0.00  0.00    -0.361 OA
HETATM   20  H   UNK N   1      20.315  13.437   0.111  0.00  0.00     0.217 HD
ENDBRANCH  16  19
ENDBRANCH  10  13
ENDBRANCH   1   9
BRANCH   2  21
HETATM   21  O   UNK N   1      24.680  19.703   3.146  0.00  0.00    -0.310 OA
BRANCH  21  22
HETATM   22  C   UNK N   1      23.425  20.237   3.132  0.00  0.00     0.293 C 
HETATM   23  O   UNK N   1      23.261  21.439   2.964  0.00  0.00    -0.259 OA
BRANCH  22  24
HETATM   24  C   UNK N   1      22.255  19.359   3.322  0.00  0.00     0.039 A 
HETATM   25  C   UNK N   1      21.228  19.325   2.366  0.00  0.00     0.020 A 
HETATM   26  C   UNK N   1      20.117  18.499   2.554  0.00  0.00     0.037 A 
HETATM   27  C   UNK N   1      20.029  17.693   3.692  0.00  0.00     0.065 A 
HETATM   28  C   UNK N   1      21.050  17.718   4.647  0.00  0.00     0.037 A 
HETATM   29  C   UNK N   1      22.157  18.554   4.466  0.00  0.00     0.020 A 
BRANCH  27  30
HETATM   30  O   UNK N   1      18.965  16.893   3.868  0.00  0.00    -0.361 OA
HETATM   31  H   UNK N   1      18.846  16.377   4.641  0.00  0.00     0.217 HD
ENDBRANCH  27  30
ENDBRANCH  22  24
ENDBRANCH  21  22
ENDBRANCH   2  21
TORSDOF 7
ENDMDL
