REMARK  7 active torsions:
REMARK  status: ('A' for Active; 'I' for Inactive)
REMARK    1  A    between atoms: O_1  and  C_2 
REMARK    2  A    between atoms: C_5  and  C_8 
REMARK       I    between atoms: C_8  and  N_10 
REMARK    3  A    between atoms: C_11  and  N_10 
REMARK    4  A    between atoms: C_12  and  O_18 
REMARK    5  A    between atoms: O_18  and  C_19 
REMARK    6  A    between atoms: C_19  and  C_21 
REMARK    7  A    between atoms: C_24  and  O_27 
ROOT
HETATM    1  C   UNK N   1      -1.245  -2.054  -0.634  0.00  0.00     0.131 C 
HETATM    2  C   UNK N   1       0.005  -2.375   0.264  0.00  0.00     0.156 C 
HETATM    3  C   UNK N   1       0.649  -3.716  -0.130  0.00  0.00     0.036 C 
HETATM    4  C   UNK N   1      -0.109  -4.987   0.217  0.00  0.00     0.022 C 
HETATM    5  C   UNK N   1      -1.473  -4.996  -0.424  0.00  0.00     0.114 C 
HETATM    6  N   UNK N   1      -2.327  -4.142   0.374  0.00  0.00    -0.419 N 
HETATM    7  C   UNK N   1      -2.524  -2.867  -0.304  0.00  0.00     0.141 C 
HETATM    8  H   UNK N   1      -2.731  -4.395   1.276  0.00  0.00     0.153 HD
ENDROOT
BRANCH   1   9
HETATM    9  N   UNK N   1      -1.499  -0.616  -0.614  0.00  0.00    -0.348 N 
HETATM   10  C   UNK N   1      -2.612   0.079  -0.248  0.00  0.00     0.252 C 
HETATM   11  O   UNK N   1      -3.641  -0.495   0.084  0.00  0.00    -0.268 OA
HETATM   12  H   UNK N   1      -0.744  -0.060  -0.914  0.00  0.00     0.163 HD
BRANCH  10  13
HETATM   13  C   UNK N   1      -2.546   1.555  -0.190  0.00  0.00     0.032 A 
HETATM   14  C   UNK N   1      -1.358   2.218  -0.538  0.00  0.00     0.020 A 
HETATM   15  C   UNK N   1      -1.263   3.607  -0.430  0.00  0.00     0.037 A 
HETATM   16  C   UNK N   1      -2.354   4.346   0.030  0.00  0.00     0.065 A 
HETATM   17  C   UNK N   1      -3.545   3.697   0.372  0.00  0.00     0.037 A 
HETATM   18  C   UNK N   1      -3.641   2.306   0.264  0.00  0.00     0.020 A 
BRANCH  16  19
HETATM   19  O   UNK N   1      -2.258   5.680   0.146  0.00  0.00    -0.361 OA
HETATM   20  H   UNK N   1      -1.418   6.088   0.228  0.00  0.00     0.217 HD
ENDBRANCH  16  19
ENDBRANCH  10  13
ENDBRANCH   1   9
BRANCH   2  21
HETATM   21  O   UNK N   1       1.016  -1.438   0.078  0.00  0.00    -0.310 OA
BRANCH  21  22
HETATM   22  C   UNK N   1       1.028  -0.167   0.572  0.00  0.00     0.293 C 
HETATM   23  O   UNK N   1       0.156   0.209   1.345  0.00  0.00    -0.259 OA
BRANCH  22  24
HETATM   24  C   UNK N   1       2.100   0.764   0.170  0.00  0.00     0.039 A 
HETATM   25  C   UNK N   1       2.042   2.117   0.538  0.00  0.00     0.020 A 
HETATM   26  C   UNK N   1       3.054   2.998   0.148  0.00  0.00     0.037 A 
HETATM   27  C   UNK N   1       4.136   2.531  -0.602  0.00  0.00     0.065 A 
HETATM   28  C   UNK N   1       4.203   1.184  -0.969  0.00  0.00     0.037 A 
HETATM   29  C   UNK N   1       3.184   0.304  -0.590  0.00  0.00     0.020 A 
BRANCH  27  30
HETATM   30  O   UNK N   1       5.113   3.376  -0.970  0.00  0.00    -0.361 OA
HETATM   31  H   UNK N   1       5.964   3.081  -1.227  0.00  0.00     0.217 HD
ENDBRANCH  27  30
ENDBRANCH  22  24
ENDBRANCH  21  22
ENDBRANCH   2  21
TORSDOF 7
