MODEL 1
REMARK VINA RESULT:      -7.0      0.000      0.000
REMARK  5 active torsions:
REMARK  status: ('A' for Active; 'I' for Inactive)
REMARK    1  A    between atoms: C_2  and  C_5 
REMARK    2  A    between atoms: C_9  and  O_10 
REMARK    3  A    between atoms: C_13  and  S_14 
REMARK    4  A    between atoms: S_14  and  C_15 
REMARK    5  A    between atoms: C_15  and  C_16 
REMARK       I    between atoms: C_16  and  N_18 
ROOT
HETATM    1  C   UNK N   1      34.919  11.946  13.705  0.00  0.00     0.122 A 
HETATM    2  N   UNK N   1      34.893  12.565  12.499  0.00  0.00    -0.333 N 
ATOM      3  HN  UNK N   1      34.229  12.252  11.791  1.00  0.00     0.168 HD
HETATM    4  C   UNK N   1      35.815  12.383  14.684  0.00  0.00     0.090 A 
HETATM    5  C   UNK N   1      36.658  13.454  14.385  0.00  0.00     0.143 A 
HETATM    6  N   UNK N   1      36.614  14.032  13.153  0.00  0.00    -0.318 N 
ATOM      7  HN  UNK N   1      37.246  14.801  12.933  1.00  0.00     0.170 HD
HETATM    8  C   UNK N   1      35.732  13.592  12.211  0.00  0.00     0.147 A 
ENDROOT
BRANCH   8   9
HETATM    9  S   UNK N   1      35.700  14.283  10.554  0.00  0.00    -0.085 SA
BRANCH   9  10
HETATM   10  C   UNK N   1      34.360  15.469  10.843  0.00  0.00     0.185 C 
BRANCH  10  11
HETATM   11  C   UNK N   1      34.586  16.655   9.958  0.00  0.00     0.229 C 
HETATM   12  O   UNK N   1      35.576  17.354  10.145  0.00  0.00    -0.273 OA
HETATM   13  N   UNK N   1      33.702  16.973   8.973  0.00  0.00    -0.351 N 
HETATM   14  C   UNK N   1      33.926  18.115   8.113  0.00  0.00     0.125 C 
HETATM   15  C   UNK N   1      32.532  16.153   8.732  0.00  0.00     0.125 C 
HETATM   16  C   UNK N   1      33.858  17.707   6.634  0.00  0.00     0.020 C 
HETATM   17  C   UNK N   1      33.675  16.197   6.446  0.00  0.00     0.003 C 
HETATM   18  C   UNK N   1      32.493  15.677   7.273  0.00  0.00     0.020 C 
ENDBRANCH  10  11
ENDBRANCH   9  10
ENDBRANCH   8   9
BRANCH   1  19
HETATM   19  C   UNK N   1      34.001  10.788  13.947  0.00  0.00     0.432 C 
HETATM   20  F   UNK N   1      33.419  10.406  12.751  0.00  0.00    -0.165 F 
HETATM   21  F   UNK N   1      33.007  11.110  14.853  0.00  0.00    -0.165 F 
HETATM   22  F   UNK N   1      34.735   9.728  14.448  0.00  0.00    -0.165 F 
ENDBRANCH   1  19
BRANCH   5  23
HETATM   23  O   UNK N   1      37.517  13.909  15.313  0.00  0.00    -0.346 OA
HETATM   24  H   UNK N   1      38.435  13.739  15.231  0.00  0.00     0.219 HD
ENDBRANCH   5  23
TORSDOF 5
ENDMDL
MODEL 2
REMARK VINA RESULT:      -6.8      4.206      7.656
REMARK  5 active torsions:
REMARK  status: ('A' for Active; 'I' for Inactive)
REMARK    1  A    between atoms: C_2  and  C_5 
REMARK    2  A    between atoms: C_9  and  O_10 
REMARK    3  A    between atoms: C_13  and  S_14 
REMARK    4  A    between atoms: S_14  and  C_15 
REMARK    5  A    between atoms: C_15  and  C_16 
REMARK       I    between atoms: C_16  and  N_18 
ROOT
HETATM    1  C   UNK N   1      33.778  16.803   8.889  0.00  0.00     0.122 A 
HETATM    2  N   UNK N   1      34.591  16.687   9.968  0.00  0.00    -0.333 N 
ATOM      3  HN  UNK N   1      35.188  17.472  10.229  1.00  0.00     0.168 HD
HETATM    4  C   UNK N   1      32.946  15.736   8.537  0.00  0.00     0.090 A 
HETATM    5  C   UNK N   1      32.979  14.580   9.317  0.00  0.00     0.143 A 
HETATM    6  N   UNK N   1      33.828  14.498  10.378  0.00  0.00    -0.318 N 
ATOM      7  HN  UNK N   1      33.863  13.644  10.933  1.00  0.00     0.170 HD
HETATM    8  C   UNK N   1      34.631  15.550  10.707  0.00  0.00     0.147 A 
ENDROOT
BRANCH   8   9
HETATM    9  S   UNK N   1      35.814  15.448  12.054  0.00  0.00    -0.085 SA
BRANCH   9  10
HETATM   10  C   UNK N   1      35.988  13.644  12.050  0.00  0.00     0.185 C 
BRANCH  10  11
HETATM   11  C   UNK N   1      36.117  13.183  13.468  0.00  0.00     0.229 C 
HETATM   12  O   UNK N   1      36.496  13.980  14.319  0.00  0.00    -0.273 OA
HETATM   13  N   UNK N   1      35.841  11.895  13.814  0.00  0.00    -0.351 N 
HETATM   14  C   UNK N   1      35.957  11.453  15.186  0.00  0.00     0.125 C 
HETATM   15  C   UNK N   1      35.383  10.942  12.823  0.00  0.00     0.125 C 
HETATM   16  C   UNK N   1      34.659  10.779  15.656  0.00  0.00     0.020 C 
HETATM   17  C   UNK N   1      33.549  10.838  14.601  0.00  0.00     0.003 C 
HETATM   18  C   UNK N   1      34.046  10.318  13.247  0.00  0.00     0.020 C 
ENDBRANCH  10  11
ENDBRANCH   9  10
ENDBRANCH   8   9
BRANCH   1  19
HETATM   19  C   UNK N   1      33.813  18.066   8.084  0.00  0.00     0.432 C 
HETATM   20  F   UNK N   1      33.880  17.751   6.739  0.00  0.00    -0.165 F 
HETATM   21  F   UNK N   1      34.901  18.850   8.421  0.00  0.00    -0.165 F 
HETATM   22  F   UNK N   1      32.655  18.783   8.322  0.00  0.00    -0.165 F 
ENDBRANCH   1  19
BRANCH   5  23
HETATM   23  O   UNK N   1      32.176  13.545   9.014  0.00  0.00    -0.346 OA
HETATM   24  H   UNK N   1      32.220  12.753   9.512  0.00  0.00     0.219 HD
ENDBRANCH   5  23
TORSDOF 5
ENDMDL
MODEL 3
REMARK VINA RESULT:      -6.7      1.068      1.806
REMARK  5 active torsions:
REMARK  status: ('A' for Active; 'I' for Inactive)
REMARK    1  A    between atoms: C_2  and  C_5 
REMARK    2  A    between atoms: C_9  and  O_10 
REMARK    3  A    between atoms: C_13  and  S_14 
REMARK    4  A    between atoms: S_14  and  C_15 
REMARK    5  A    between atoms: C_15  and  C_16 
REMARK       I    between atoms: C_16  and  N_18 
ROOT
HETATM    1  C   UNK N   1      35.077  11.905  13.698  0.00  0.00     0.122 A 
HETATM    2  N   UNK N   1      35.270  12.305  12.417  0.00  0.00    -0.333 N 
ATOM      3  HN  UNK N   1      34.711  11.886  11.674  1.00  0.00     0.168 HD
HETATM    4  C   UNK N   1      35.829  12.488  14.723  0.00  0.00     0.090 A 
HETATM    5  C   UNK N   1      36.758  13.474  14.388  0.00  0.00     0.143 A 
HETATM    6  N   UNK N   1      36.935  13.830  13.085  0.00  0.00    -0.318 N 
ATOM      7  HN  UNK N   1      37.629  14.536  12.844  1.00  0.00     0.170 HD
HETATM    8  C   UNK N   1      36.191  13.250  12.101  0.00  0.00     0.147 A 
ENDROOT
BRANCH   8   9
HETATM    9  S   UNK N   1      36.451  13.642  10.367  0.00  0.00    -0.085 SA
BRANCH   9  10
HETATM   10  C   UNK N   1      35.844  15.348  10.441  0.00  0.00     0.185 C 
BRANCH  10  11
HETATM   11  C   UNK N   1      34.360  15.326  10.244  0.00  0.00     0.229 C 
HETATM   12  O   UNK N   1      33.645  14.955  11.168  0.00  0.00    -0.273 OA
HETATM   13  N   UNK N   1      33.805  15.691   9.056  0.00  0.00    -0.351 N 
HETATM   14  C   UNK N   1      32.371  15.679   8.869  0.00  0.00     0.125 C 
HETATM   15  C   UNK N   1      34.635  16.142   7.956  0.00  0.00     0.125 C 
HETATM   16  C   UNK N   1      31.874  17.036   8.350  0.00  0.00     0.020 C 
HETATM   17  C   UNK N   1      32.994  18.078   8.259  0.00  0.00     0.003 C 
HETATM   18  C   UNK N   1      34.195  17.533   7.478  0.00  0.00     0.020 C 
ENDBRANCH  10  11
ENDBRANCH   9  10
ENDBRANCH   8   9
BRANCH   1  19
HETATM   19  C   UNK N   1      34.079  10.824  13.980  0.00  0.00     0.432 C 
HETATM   20  F   UNK N   1      33.136  11.293  14.876  0.00  0.00    -0.165 F 
HETATM   21  F   UNK N   1      34.687   9.699  14.508  0.00  0.00    -0.165 F 
HETATM   22  F   UNK N   1      33.447  10.477  12.800  0.00  0.00    -0.165 F 
ENDBRANCH   1  19
BRANCH   5  23
HETATM   23  O   UNK N   1      37.482  14.067  15.353  0.00  0.00    -0.346 OA
HETATM   24  H   UNK N   1      37.447  13.748  16.233  0.00  0.00     0.219 HD
ENDBRANCH   5  23
TORSDOF 5
ENDMDL
MODEL 4
REMARK VINA RESULT:      -6.6     12.229     14.888
REMARK  5 active torsions:
REMARK  status: ('A' for Active; 'I' for Inactive)
REMARK    1  A    between atoms: C_2  and  C_5 
REMARK    2  A    between atoms: C_9  and  O_10 
REMARK    3  A    between atoms: C_13  and  S_14 
REMARK    4  A    between atoms: S_14  and  C_15 
REMARK    5  A    between atoms: C_15  and  C_16 
REMARK       I    between atoms: C_16  and  N_18 
ROOT
HETATM    1  C   UNK N   1      26.192  20.151   5.436  0.00  0.00     0.122 A 
HETATM    2  N   UNK N   1      25.309  19.150   5.677  0.00  0.00    -0.333 N 
ATOM      3  HN  UNK N   1      25.288  18.714   6.598  1.00  0.00     0.168 HD
HETATM    4  C   UNK N   1      26.215  20.763   4.180  0.00  0.00     0.090 A 
HETATM    5  C   UNK N   1      25.315  20.322   3.209  0.00  0.00     0.143 A 
HETATM    6  N   UNK N   1      24.461  19.299   3.486  0.00  0.00    -0.318 N 
ATOM      7  HN  UNK N   1      23.819  18.967   2.766  1.00  0.00     0.170 HD
HETATM    8  C   UNK N   1      24.453  18.715   4.718  0.00  0.00     0.147 A 
ENDROOT
BRANCH   8   9
HETATM    9  S   UNK N   1      23.392  17.316   5.092  0.00  0.00    -0.085 SA
BRANCH   9  10
HETATM   10  C   UNK N   1      21.929  18.277   5.561  0.00  0.00     0.185 C 
BRANCH  10  11
HETATM   11  C   UNK N   1      21.244  18.728   4.309  0.00  0.00     0.229 C 
HETATM   12  O   UNK N   1      21.497  19.841   3.862  0.00  0.00    -0.273 OA
HETATM   13  N   UNK N   1      20.337  17.930   3.681  0.00  0.00    -0.351 N 
HETATM   14  C   UNK N   1      19.682  18.363   2.465  0.00  0.00     0.125 C 
HETATM   15  C   UNK N   1      20.033  16.608   4.189  0.00  0.00     0.125 C 
HETATM   16  C   UNK N   1      19.843  17.315   1.354  0.00  0.00     0.020 C 
HETATM   17  C   UNK N   1      20.732  16.140   1.775  0.00  0.00     0.003 C 
HETATM   18  C   UNK N   1      20.263  15.543   3.107  0.00  0.00     0.020 C 
ENDBRANCH  10  11
ENDBRANCH   9  10
ENDBRANCH   8   9
BRANCH   1  19
HETATM   19  C   UNK N   1      27.144  20.556   6.520  0.00  0.00     0.432 C 
HETATM   20  F   UNK N   1      26.431  20.869   7.663  0.00  0.00    -0.165 F 
HETATM   21  F   UNK N   1      27.902  21.650   6.144  0.00  0.00    -0.165 F 
HETATM   22  F   UNK N   1      27.992  19.498   6.793  0.00  0.00    -0.165 F 
ENDBRANCH   1  19
BRANCH   5  23
HETATM   23  O   UNK N   1      25.299  20.905   1.997  0.00  0.00    -0.346 OA
HETATM   24  H   UNK N   1      25.982  20.730   1.380  0.00  0.00     0.219 HD
ENDBRANCH   5  23
TORSDOF 5
ENDMDL
MODEL 5
REMARK VINA RESULT:      -6.5     12.700     14.058
REMARK  5 active torsions:
REMARK  status: ('A' for Active; 'I' for Inactive)
REMARK    1  A    between atoms: C_2  and  C_5 
REMARK    2  A    between atoms: C_9  and  O_10 
REMARK    3  A    between atoms: C_13  and  S_14 
REMARK    4  A    between atoms: S_14  and  C_15 
REMARK    5  A    between atoms: C_15  and  C_16 
REMARK       I    between atoms: C_16  and  N_18 
ROOT
HETATM    1  C   UNK N   1      22.335  13.144   9.699  0.00  0.00     0.122 A 
HETATM    2  N   UNK N   1      22.792  13.662   8.532  0.00  0.00    -0.333 N 
ATOM      3  HN  UNK N   1      23.727  13.417   8.210  1.00  0.00     0.168 HD
HETATM    4  C   UNK N   1      21.047  13.464  10.138  0.00  0.00     0.090 A 
HETATM    5  C   UNK N   1      20.267  14.310   9.350  0.00  0.00     0.143 A 
HETATM    6  N   UNK N   1      20.773  14.826   8.196  0.00  0.00    -0.318 N 
ATOM      7  HN  UNK N   1      20.206  15.461   7.634  1.00  0.00     0.170 HD
HETATM    8  C   UNK N   1      22.032  14.502   7.785  0.00  0.00     0.147 A 
ENDROOT
BRANCH   8   9
HETATM    9  S   UNK N   1      22.757  15.223   6.308  0.00  0.00    -0.085 SA
BRANCH   9  10
HETATM   10  C   UNK N   1      21.933  16.832   6.429  0.00  0.00     0.185 C 
BRANCH  10  11
HETATM   11  C   UNK N   1      20.819  16.864   5.431  0.00  0.00     0.229 C 
HETATM   12  O   UNK N   1      19.744  16.352   5.725  0.00  0.00    -0.273 OA
HETATM   13  N   UNK N   1      20.992  17.433   4.206  0.00  0.00    -0.351 N 
HETATM   14  C   UNK N   1      19.911  17.472   3.245  0.00  0.00     0.125 C 
HETATM   15  C   UNK N   1      22.252  18.052   3.846  0.00  0.00     0.125 C 
HETATM   16  C   UNK N   1      19.676  18.904   2.743  0.00  0.00     0.020 C 
HETATM   17  C   UNK N   1      20.564  19.931   3.454  0.00  0.00     0.003 C 
HETATM   18  C   UNK N   1      22.037  19.509   3.414  0.00  0.00     0.020 C 
ENDBRANCH  10  11
ENDBRANCH   9  10
ENDBRANCH   8   9
BRANCH   1  19
HETATM   19  C   UNK N   1      23.238  12.260  10.504  0.00  0.00     0.432 C 
HETATM   20  F   UNK N   1      22.946  10.936  10.232  0.00  0.00    -0.165 F 
HETATM   21  F   UNK N   1      23.090  12.488  11.861  0.00  0.00    -0.165 F 
HETATM   22  F   UNK N   1      24.550  12.515  10.149  0.00  0.00    -0.165 F 
ENDBRANCH   1  19
BRANCH   5  23
HETATM   23  O   UNK N   1      19.017  14.620   9.736  0.00  0.00    -0.346 OA
HETATM   24  H   UNK N   1      18.874  15.116  10.517  0.00  0.00     0.219 HD
ENDBRANCH   5  23
TORSDOF 5
ENDMDL
MODEL 6
REMARK VINA RESULT:      -6.4     11.950     13.164
REMARK  5 active torsions:
REMARK  status: ('A' for Active; 'I' for Inactive)
REMARK    1  A    between atoms: C_2  and  C_5 
REMARK    2  A    between atoms: C_9  and  O_10 
REMARK    3  A    between atoms: C_13  and  S_14 
REMARK    4  A    between atoms: S_14  and  C_15 
REMARK    5  A    between atoms: C_15  and  C_16 
REMARK       I    between atoms: C_16  and  N_18 
ROOT
HETATM    1  C   UNK N   1      22.945  12.843  10.085  0.00  0.00     0.122 A 
HETATM    2  N   UNK N   1      22.307  13.832   9.410  0.00  0.00    -0.333 N 
ATOM      3  HN  UNK N   1      22.826  14.387   8.731  1.00  0.00     0.168 HD
HETATM    4  C   UNK N   1      22.233  12.068  11.005  0.00  0.00     0.090 A 
HETATM    5  C   UNK N   1      20.878  12.338  11.196  0.00  0.00     0.143 A 
HETATM    6  N   UNK N   1      20.283  13.355  10.513  0.00  0.00    -0.318 N 
ATOM      7  HN  UNK N   1      19.297  13.561  10.671  1.00  0.00     0.170 HD
HETATM    8  C   UNK N   1      20.993  14.099   9.619  0.00  0.00     0.147 A 
ENDROOT
BRANCH   8   9
HETATM    9  S   UNK N   1      20.259  15.494   8.758  0.00  0.00    -0.085 SA
BRANCH   9  10
HETATM   10  C   UNK N   1      21.555  15.678   7.505  0.00  0.00     0.185 C 
BRANCH  10  11
HETATM   11  C   UNK N   1      21.332  16.972   6.786  0.00  0.00     0.229 C 
HETATM   12  O   UNK N   1      20.899  17.931   7.414  0.00  0.00    -0.273 OA
HETATM   13  N   UNK N   1      21.584  17.085   5.453  0.00  0.00    -0.351 N 
HETATM   14  C   UNK N   1      21.377  18.339   4.762  0.00  0.00     0.125 C 
HETATM   15  C   UNK N   1      22.105  15.964   4.697  0.00  0.00     0.125 C 
HETATM   16  C   UNK N   1      22.640  18.756   3.994  0.00  0.00     0.020 C 
HETATM   17  C   UNK N   1      23.817  17.805   4.235  0.00  0.00     0.003 C 
HETATM   18  C   UNK N   1      23.410  16.348   3.986  0.00  0.00     0.020 C 
ENDBRANCH  10  11
ENDBRANCH   9  10
ENDBRANCH   8   9
BRANCH   1  19
HETATM   19  C   UNK N   1      24.407  12.626   9.846  0.00  0.00     0.432 C 
HETATM   20  F   UNK N   1      25.038  13.851   9.723  0.00  0.00    -0.165 F 
HETATM   21  F   UNK N   1      24.628  11.886   8.698  0.00  0.00    -0.165 F 
HETATM   22  F   UNK N   1      24.944  11.949  10.925  0.00  0.00    -0.165 F 
ENDBRANCH   1  19
BRANCH   5  23
HETATM   23  O   UNK N   1      20.163  11.597  12.060  0.00  0.00    -0.346 OA
HETATM   24  H   UNK N   1      20.497  11.416  12.916  0.00  0.00     0.219 HD
ENDBRANCH   5  23
TORSDOF 5
ENDMDL
MODEL 7
REMARK VINA RESULT:      -6.3      2.966      4.373
REMARK  5 active torsions:
REMARK  status: ('A' for Active; 'I' for Inactive)
REMARK    1  A    between atoms: C_2  and  C_5 
REMARK    2  A    between atoms: C_9  and  O_10 
REMARK    3  A    between atoms: C_13  and  S_14 
REMARK    4  A    between atoms: S_14  and  C_15 
REMARK    5  A    between atoms: C_15  and  C_16 
REMARK       I    between atoms: C_16  and  N_18 
ROOT
HETATM    1  C   UNK N   1      35.338  14.715  11.863  0.00  0.00     0.122 A 
HETATM    2  N   UNK N   1      34.350  14.159  11.120  0.00  0.00    -0.333 N 
ATOM      3  HN  UNK N   1      33.996  13.236  11.371  1.00  0.00     0.168 HD
HETATM    4  C   UNK N   1      35.815  15.987  11.533  0.00  0.00     0.090 A 
HETATM    5  C   UNK N   1      35.249  16.648  10.442  0.00  0.00     0.143 A 
HETATM    6  N   UNK N   1      34.274  16.042   9.710  0.00  0.00    -0.318 N 
ATOM      7  HN  UNK N   1      33.878  16.521   8.902  1.00  0.00     0.170 HD
HETATM    8  C   UNK N   1      33.821  14.802  10.049  0.00  0.00     0.147 A 
ENDROOT
BRANCH   8   9
HETATM    9  S   UNK N   1      32.590  13.945   9.061  0.00  0.00    -0.085 SA
BRANCH   9  10
HETATM   10  C   UNK N   1      32.953  14.781   7.494  0.00  0.00     0.185 C 
BRANCH  10  11
HETATM   11  C   UNK N   1      31.655  15.126   6.836  0.00  0.00     0.229 C 
HETATM   12  O   UNK N   1      31.056  14.257   6.212  0.00  0.00    -0.273 OA
HETATM   13  N   UNK N   1      31.148  16.388   6.905  0.00  0.00    -0.351 N 
HETATM   14  C   UNK N   1      29.888  16.719   6.276  0.00  0.00     0.125 C 
HETATM   15  C   UNK N   1      31.837  17.426   7.646  0.00  0.00     0.125 C 
HETATM   16  C   UNK N   1      28.932  17.381   7.280  0.00  0.00     0.020 C 
HETATM   17  C   UNK N   1      29.508  17.428   8.699  0.00  0.00     0.003 C 
HETATM   18  C   UNK N   1      30.913  18.043   8.705  0.00  0.00     0.020 C 
ENDBRANCH  10  11
ENDBRANCH   9  10
ENDBRANCH   8   9
BRANCH   1  19
HETATM   19  C   UNK N   1      35.914  13.937  13.006  0.00  0.00     0.432 C 
HETATM   20  F   UNK N   1      34.933  13.130  13.552  0.00  0.00    -0.165 F 
HETATM   21  F   UNK N   1      36.411  14.774  13.989  0.00  0.00    -0.165 F 
HETATM   22  F   UNK N   1      36.943  13.141  12.535  0.00  0.00    -0.165 F 
ENDBRANCH   1  19
BRANCH   5  23
HETATM   23  O   UNK N   1      35.673  17.880  10.113  0.00  0.00    -0.346 OA
HETATM   24  H   UNK N   1      35.768  18.539  10.772  0.00  0.00     0.219 HD
ENDBRANCH   5  23
TORSDOF 5
ENDMDL
MODEL 8
REMARK VINA RESULT:      -6.3     13.989     16.015
REMARK  5 active torsions:
REMARK  status: ('A' for Active; 'I' for Inactive)
REMARK    1  A    between atoms: C_2  and  C_5 
REMARK    2  A    between atoms: C_9  and  O_10 
REMARK    3  A    between atoms: C_13  and  S_14 
REMARK    4  A    between atoms: S_14  and  C_15 
REMARK    5  A    between atoms: C_15  and  C_16 
REMARK       I    between atoms: C_16  and  N_18 
ROOT
HETATM    1  C   UNK N   1      24.686  19.636   3.861  0.00  0.00     0.122 A 
HETATM    2  N   UNK N   1      23.615  20.073   3.153  0.00  0.00    -0.333 N 
ATOM      3  HN  UNK N   1      23.752  20.772   2.424  1.00  0.00     0.168 HD
HETATM    4  C   UNK N   1      24.507  18.666   4.852  0.00  0.00     0.090 A 
HETATM    5  C   UNK N   1      23.222  18.174   5.077  0.00  0.00     0.143 A 
HETATM    6  N   UNK N   1      22.171  18.657   4.358  0.00  0.00    -0.318 N 
ATOM      7  HN  UNK N   1      21.231  18.309   4.540  1.00  0.00     0.170 HD
HETATM    8  C   UNK N   1      22.366  19.603   3.395  0.00  0.00     0.147 A 
ENDROOT
BRANCH   8   9
HETATM    9  S   UNK N   1      20.994  20.316   2.481  0.00  0.00    -0.085 SA
BRANCH   9  10
HETATM   10  C   UNK N   1      19.867  18.907   2.656  0.00  0.00     0.185 C 
BRANCH  10  11
HETATM   11  C   UNK N   1      20.203  17.904   1.597  0.00  0.00     0.229 C 
HETATM   12  O   UNK N   1      20.417  18.296   0.455  0.00  0.00    -0.273 OA
HETATM   13  N   UNK N   1      20.254  16.574   1.883  0.00  0.00    -0.351 N 
HETATM   14  C   UNK N   1      20.588  15.606   0.861  0.00  0.00     0.125 C 
HETATM   15  C   UNK N   1      20.014  16.094   3.229  0.00  0.00     0.125 C 
HETATM   16  C   UNK N   1      21.744  14.704   1.318  0.00  0.00     0.020 C 
HETATM   17  C   UNK N   1      22.312  15.118   2.681  0.00  0.00     0.003 C 
HETATM   18  C   UNK N   1      21.198  15.253   3.725  0.00  0.00     0.020 C 
ENDBRANCH  10  11
ENDBRANCH   9  10
ENDBRANCH   8   9
BRANCH   1  19
HETATM   19  C   UNK N   1      26.034  20.227   3.581  0.00  0.00     0.432 C 
HETATM   20  F   UNK N   1      26.429  20.999   4.658  0.00  0.00    -0.165 F 
HETATM   21  F   UNK N   1      26.014  21.013   2.443  0.00  0.00    -0.165 F 
HETATM   22  F   UNK N   1      26.946  19.204   3.401  0.00  0.00    -0.165 F 
ENDBRANCH   1  19
BRANCH   5  23
HETATM   23  O   UNK N   1      23.021  17.226   6.009  0.00  0.00    -0.346 OA
HETATM   24  H   UNK N   1      22.155  16.920   6.192  0.00  0.00     0.219 HD
ENDBRANCH   5  23
TORSDOF 5
ENDMDL
MODEL 9
REMARK VINA RESULT:      -6.3     17.830     20.087
REMARK  5 active torsions:
REMARK  status: ('A' for Active; 'I' for Inactive)
REMARK    1  A    between atoms: C_2  and  C_5 
REMARK    2  A    between atoms: C_9  and  O_10 
REMARK    3  A    between atoms: C_13  and  S_14 
REMARK    4  A    between atoms: S_14  and  C_15 
REMARK    5  A    between atoms: C_15  and  C_16 
REMARK       I    between atoms: C_16  and  N_18 
ROOT
HETATM    1  C   UNK N   1      30.565  21.969  -4.767  0.00  0.00     0.122 A 
HETATM    2  N   UNK N   1      30.283  23.160  -5.351  0.00  0.00    -0.333 N 
ATOM      3  HN  UNK N   1      30.224  23.214  -6.368  1.00  0.00     0.168 HD
HETATM    4  C   UNK N   1      30.631  21.884  -3.373  0.00  0.00     0.090 A 
HETATM    5  C   UNK N   1      30.399  23.039  -2.625  0.00  0.00     0.143 A 
HETATM    6  N   UNK N   1      30.142  24.219  -3.253  0.00  0.00    -0.318 N 
ATOM      7  HN  UNK N   1      29.993  25.064  -2.703  1.00  0.00     0.170 HD
HETATM    8  C   UNK N   1      30.080  24.280  -4.614  0.00  0.00     0.147 A 
ENDROOT
BRANCH   8   9
HETATM    9  S   UNK N   1      29.817  25.833  -5.477  0.00  0.00    -0.085 SA
BRANCH   9  10
HETATM   10  C   UNK N   1      29.309  26.799  -4.030  0.00  0.00     0.185 C 
BRANCH  10  11
HETATM   11  C   UNK N   1      28.106  27.606  -4.404  0.00  0.00     0.229 C 
HETATM   12  O   UNK N   1      28.265  28.749  -4.818  0.00  0.00    -0.273 OA
HETATM   13  N   UNK N   1      26.851  27.097  -4.272  0.00  0.00    -0.351 N 
HETATM   14  C   UNK N   1      25.689  27.875  -4.643  0.00  0.00     0.125 C 
HETATM   15  C   UNK N   1      26.645  25.744  -3.794  0.00  0.00     0.125 C 
HETATM   16  C   UNK N   1      24.797  27.095  -5.620  0.00  0.00     0.020 C 
HETATM   17  C   UNK N   1      25.406  25.750  -6.029  0.00  0.00     0.003 C 
HETATM   18  C   UNK N   1      25.817  24.932  -4.799  0.00  0.00     0.020 C 
ENDBRANCH  10  11
ENDBRANCH   9  10
ENDBRANCH   8   9
BRANCH   1  19
HETATM   19  C   UNK N   1      30.826  20.776  -5.635  0.00  0.00     0.432 C 
HETATM   20  F   UNK N   1      31.288  19.733  -4.854  0.00  0.00    -0.165 F 
HETATM   21  F   UNK N   1      31.761  21.059  -6.614  0.00  0.00    -0.165 F 
HETATM   22  F   UNK N   1      29.644  20.395  -6.243  0.00  0.00    -0.165 F 
ENDBRANCH   1  19
BRANCH   5  23
HETATM   23  O   UNK N   1      30.437  22.985  -1.282  0.00  0.00    -0.346 OA
HETATM   24  H   UNK N   1      29.719  22.620  -0.804  0.00  0.00     0.219 HD
ENDBRANCH   5  23
TORSDOF 5
ENDMDL
