REMARK  5 active torsions:
REMARK  status: ('A' for Active; 'I' for Inactive)
REMARK    1  A    between atoms: C_2  and  C_5 
REMARK    2  A    between atoms: C_9  and  O_10 
REMARK    3  A    between atoms: C_13  and  S_14 
REMARK    4  A    between atoms: S_14  and  C_15 
REMARK    5  A    between atoms: C_15  and  C_16 
REMARK       I    between atoms: C_16  and  N_18 
ROOT
HETATM    1  C   UNK N   1      -1.630   3.644   0.010  0.00  0.00     0.122 A 
HETATM    2  N   UNK N   1      -0.332   3.282   0.163  0.00  0.00    -0.333 N 
ATOM      3  HN  UNK N   1       0.376   4.005   0.287  1.00  0.00     0.168 HD
HETATM    4  C   UNK N   1      -2.607   2.656  -0.144  0.00  0.00     0.090 A 
HETATM    5  C   UNK N   1      -2.209   1.319  -0.131  0.00  0.00     0.143 A 
HETATM    6  N   UNK N   1      -0.892   1.001   0.003  0.00  0.00    -0.318 N 
ATOM      7  HN  UNK N   1      -0.604   0.023  -0.008  1.00  0.00     0.170 HD
HETATM    8  C   UNK N   1       0.046   1.979   0.153  0.00  0.00     0.147 A 
ENDROOT
BRANCH   8   9
HETATM    9  S   UNK N   1       1.798   1.598   0.257  0.00  0.00    -0.085 SA
BRANCH   9  10
HETATM   10  C   UNK N   1       1.624   0.039   1.165  0.00  0.00     0.185 C 
BRANCH  10  11
HETATM   11  C   UNK N   1       2.454  -0.999   0.477  0.00  0.00     0.229 C 
HETATM   12  O   UNK N   1       3.671  -0.977   0.622  0.00  0.00    -0.273 OA
HETATM   13  N   UNK N   1       1.878  -1.944  -0.316  0.00  0.00    -0.351 N 
HETATM   14  C   UNK N   1       2.680  -2.953  -0.973  0.00  0.00     0.125 C 
HETATM   15  C   UNK N   1       0.440  -1.991  -0.491  0.00  0.00     0.125 C 
HETATM   16  C   UNK N   1       2.152  -4.361  -0.662  0.00  0.00     0.020 C 
HETATM   17  C   UNK N   1       0.988  -4.347   0.335  0.00  0.00     0.003 C 
HETATM   18  C   UNK N   1      -0.109  -3.373  -0.110  0.00  0.00     0.020 C 
ENDBRANCH  10  11
ENDBRANCH   9  10
ENDBRANCH   8   9
BRANCH   1  19
HETATM   19  C   UNK N   1      -1.980   5.100  -0.018  0.00  0.00     0.432 C 
HETATM   20  F   UNK N   1      -1.725   5.657   1.222  0.00  0.00    -0.165 F 
HETATM   21  F   UNK N   1      -3.312   5.294  -0.337  0.00  0.00    -0.165 F 
HETATM   22  F   UNK N   1      -1.197   5.733  -0.966  0.00  0.00    -0.165 F 
ENDBRANCH   1  19
BRANCH   5  23
HETATM   23  O   UNK N   1      -3.128   0.346  -0.257  0.00  0.00    -0.346 OA
HETATM   24  H   UNK N   1      -4.035   0.562  -0.346  0.00  0.00     0.219 HD
ENDBRANCH   5  23
TORSDOF 5
