MODEL 1
REMARK VINA RESULT:      -5.7      0.000      0.000
REMARK  12 active torsions:
REMARK  status: ('A' for Active; 'I' for Inactive)
REMARK    1  A    between atoms: C_1  and  C_7 
REMARK    2  A    between atoms: C_3  and  O_8 
REMARK    3  A    between atoms: C_4  and  O_15 
REMARK    4  A    between atoms: C_5  and  O_16 
REMARK    5  A    between atoms: C_6  and  O_17 
REMARK    6  A    between atoms: C_7  and  O_18 
REMARK    7  A    between atoms: O_8  and  C_9 
REMARK    8  A    between atoms: C_9  and  C_10 
REMARK    9  A    between atoms: C_10  and  C_11 
REMARK   10  A    between atoms: C_11  and  C_12 
REMARK   11  A    between atoms: C_12  and  C_13 
REMARK   12  A    between atoms: C_13  and  C_14 
ROOT
HETATM    1  C   UNK N   1      20.633  19.835   2.653  0.00  0.00     0.179 C 
HETATM    2  O   UNK N   1      21.999  19.519   2.882  0.00  0.00    -0.348 OA
HETATM    3  C   UNK N   1      22.149  18.807   4.106  0.00  0.00     0.291 C 
HETATM    4  C   UNK N   1      21.420  17.440   4.039  0.00  0.00     0.204 C 
HETATM    5  C   UNK N   1      19.939  17.687   3.755  0.00  0.00     0.183 C 
HETATM    6  C   UNK N   1      19.802  18.537   2.486  0.00  0.00     0.180 C 
ENDROOT
BRANCH   3   7
HETATM    7  O   UNK N   1      23.520  18.689   4.444  0.00  0.00    -0.359 OA
BRANCH   7   8
HETATM    8  C   UNK N   1      24.293  19.529   3.625  0.00  0.00     0.171 C 
BRANCH   8   9
HETATM    9  C   UNK N   1      25.715  19.021   3.553  0.00  0.00     0.026 C 
BRANCH   9  10
HETATM   10  C   UNK N   1      26.669  20.198   3.509  0.00  0.00     0.002 C 
BRANCH  10  11
HETATM   11  C   UNK N   1      27.773  19.999   4.528  0.00  0.00     0.000 C 
BRANCH  11  12
HETATM   12  C   UNK N   1      27.203  20.083   5.934  0.00  0.00    -0.000 C 
BRANCH  12  13
HETATM   13  C   UNK N   1      26.832  21.515   6.273  0.00  0.00    -0.005 C 
HETATM   14  C   UNK N   1      26.119  21.582   7.610  0.00  0.00     0.005 C 
ENDBRANCH  12  13
ENDBRANCH  11  12
ENDBRANCH  10  11
ENDBRANCH   9  10
ENDBRANCH   8   9
ENDBRANCH   7   8
ENDBRANCH   3   7
BRANCH   4  15
HETATM   15  O   UNK N   1      21.569  16.754   5.248  0.00  0.00    -0.388 OA
HETATM   16  H   UNK N   1      21.797  17.161   6.098  0.00  0.00     0.210 HD
ENDBRANCH   4  15
BRANCH   1  17
HETATM   17  C   UNK N   1      20.563  20.699   1.393  0.00  0.00     0.198 C 
BRANCH  17  18
HETATM   18  O   UNK N   1      20.556  19.911   0.240  0.00  0.00    -0.398 OA
HETATM   19  H   UNK N   1      19.813  19.322   0.036  0.00  0.00     0.209 HD
ENDBRANCH  17  18
ENDBRANCH   1  17
BRANCH   5  20
HETATM   20  O   UNK N   1      19.271  16.470   3.596  0.00  0.00    -0.390 OA
HETATM   21  H   UNK N   1      18.662  16.170   2.902  0.00  0.00     0.210 HD
ENDBRANCH   5  20
BRANCH   6  22
HETATM   22  O   UNK N   1      18.453  18.831   2.270  0.00  0.00    -0.390 OA
HETATM   23  H   UNK N   1      18.033  19.574   2.730  0.00  0.00     0.210 HD
ENDBRANCH   6  22
TORSDOF 12
ENDMDL
MODEL 2
REMARK VINA RESULT:      -5.6      3.929      5.908
REMARK  12 active torsions:
REMARK  status: ('A' for Active; 'I' for Inactive)
REMARK    1  A    between atoms: C_1  and  C_7 
REMARK    2  A    between atoms: C_3  and  O_8 
REMARK    3  A    between atoms: C_4  and  O_15 
REMARK    4  A    between atoms: C_5  and  O_16 
REMARK    5  A    between atoms: C_6  and  O_17 
REMARK    6  A    between atoms: C_7  and  O_18 
REMARK    7  A    between atoms: O_8  and  C_9 
REMARK    8  A    between atoms: C_9  and  C_10 
REMARK    9  A    between atoms: C_10  and  C_11 
REMARK   10  A    between atoms: C_11  and  C_12 
REMARK   11  A    between atoms: C_12  and  C_13 
REMARK   12  A    between atoms: C_13  and  C_14 
ROOT
HETATM    1  C   UNK N   1      21.564  19.691   3.424  0.00  0.00     0.179 C 
HETATM    2  O   UNK N   1      21.977  18.549   4.163  0.00  0.00    -0.348 OA
HETATM    3  C   UNK N   1      20.851  17.873   4.711  0.00  0.00     0.291 C 
HETATM    4  C   UNK N   1      19.940  17.321   3.584  0.00  0.00     0.204 C 
HETATM    5  C   UNK N   1      19.478  18.486   2.710  0.00  0.00     0.183 C 
HETATM    6  C   UNK N   1      20.703  19.260   2.208  0.00  0.00     0.180 C 
ENDROOT
BRANCH   3   7
HETATM    7  O   UNK N   1      21.270  16.876   5.625  0.00  0.00    -0.359 OA
BRANCH   7   8
HETATM    8  C   UNK N   1      20.963  17.264   6.939  0.00  0.00     0.171 C 
BRANCH   8   9
HETATM    9  C   UNK N   1      19.921  16.340   7.526  0.00  0.00     0.026 C 
BRANCH   9  10
HETATM   10  C   UNK N   1      20.437  15.762   8.828  0.00  0.00     0.002 C 
BRANCH  10  11
HETATM   11  C   UNK N   1      20.810  14.307   8.629  0.00  0.00     0.000 C 
BRANCH  11  12
HETATM   12  C   UNK N   1      21.790  13.870   9.705  0.00  0.00    -0.000 C 
BRANCH  12  13
HETATM   13  C   UNK N   1      21.178  12.789  10.576  0.00  0.00    -0.005 C 
HETATM   14  C   UNK N   1      22.253  12.052  11.351  0.00  0.00     0.005 C 
ENDBRANCH  12  13
ENDBRANCH  11  12
ENDBRANCH  10  11
ENDBRANCH   9  10
ENDBRANCH   8   9
ENDBRANCH   7   8
ENDBRANCH   3   7
BRANCH   4  15
HETATM   15  O   UNK N   1      18.835  16.665   4.133  0.00  0.00    -0.388 OA
HETATM   16  H   UNK N   1      18.282  16.016   3.671  0.00  0.00     0.210 HD
ENDBRANCH   4  15
BRANCH   1  17
HETATM   17  C   UNK N   1      22.823  20.430   2.972  0.00  0.00     0.198 C 
BRANCH  17  18
HETATM   18  O   UNK N   1      22.592  21.804   2.869  0.00  0.00    -0.398 OA
HETATM   19  H   UNK N   1      23.206  22.383   2.390  0.00  0.00     0.209 HD
ENDBRANCH  17  18
ENDBRANCH   1  17
BRANCH   5  20
HETATM   20  O   UNK N   1      18.731  18.010   1.629  0.00  0.00    -0.390 OA
HETATM   21  H   UNK N   1      17.841  18.248   1.325  0.00  0.00     0.210 HD
ENDBRANCH   5  20
BRANCH   6  22
HETATM   22  O   UNK N   1      20.279  20.373   1.476  0.00  0.00    -0.390 OA
HETATM   23  H   UNK N   1      20.586  20.508   0.566  0.00  0.00     0.210 HD
ENDBRANCH   6  22
TORSDOF 12
ENDMDL
MODEL 3
REMARK VINA RESULT:      -5.6     10.015     12.500
REMARK  12 active torsions:
REMARK  status: ('A' for Active; 'I' for Inactive)
REMARK    1  A    between atoms: C_1  and  C_7 
REMARK    2  A    between atoms: C_3  and  O_8 
REMARK    3  A    between atoms: C_4  and  O_15 
REMARK    4  A    between atoms: C_5  and  O_16 
REMARK    5  A    between atoms: C_6  and  O_17 
REMARK    6  A    between atoms: C_7  and  O_18 
REMARK    7  A    between atoms: O_8  and  C_9 
REMARK    8  A    between atoms: C_9  and  C_10 
REMARK    9  A    between atoms: C_10  and  C_11 
REMARK   10  A    between atoms: C_11  and  C_12 
REMARK   11  A    between atoms: C_12  and  C_13 
REMARK   12  A    between atoms: C_13  and  C_14 
ROOT
HETATM    1  C   UNK N   1      33.180  15.400   8.430  0.00  0.00     0.179 C 
HETATM    2  O   UNK N   1      33.603  15.924   7.178  0.00  0.00    -0.348 OA
HETATM    3  C   UNK N   1      33.747  17.338   7.252  0.00  0.00     0.291 C 
HETATM    4  C   UNK N   1      34.865  17.725   8.255  0.00  0.00     0.204 C 
HETATM    5  C   UNK N   1      34.507  17.162   9.630  0.00  0.00     0.183 C 
HETATM    6  C   UNK N   1      34.261  15.653   9.511  0.00  0.00     0.180 C 
ENDROOT
BRANCH   3   7
HETATM    7  O   UNK N   1      33.948  17.882   5.959  0.00  0.00    -0.359 OA
BRANCH   7   8
HETATM    8  C   UNK N   1      33.553  16.957   4.979  0.00  0.00     0.171 C 
BRANCH   8   9
HETATM    9  C   UNK N   1      32.603  17.609   4.001  0.00  0.00     0.026 C 
BRANCH   9  10
HETATM   10  C   UNK N   1      31.182  17.464   4.506  0.00  0.00     0.002 C 
BRANCH  10  11
HETATM   11  C   UNK N   1      30.932  16.029   4.924  0.00  0.00     0.000 C 
BRANCH  11  12
HETATM   12  C   UNK N   1      30.171  15.996   6.239  0.00  0.00    -0.000 C 
BRANCH  12  13
HETATM   13  C   UNK N   1      29.964  17.402   6.770  0.00  0.00    -0.005 C 
HETATM   14  C   UNK N   1      30.106  17.432   8.279  0.00  0.00     0.005 C 
ENDBRANCH  12  13
ENDBRANCH  11  12
ENDBRANCH  10  11
ENDBRANCH   9  10
ENDBRANCH   8   9
ENDBRANCH   7   8
ENDBRANCH   3   7
BRANCH   4  15
HETATM   15  O   UNK N   1      34.993  19.115   8.323  0.00  0.00    -0.388 OA
HETATM   16  H   UNK N   1      34.923  19.645   9.132  0.00  0.00     0.210 HD
ENDBRANCH   4  15
BRANCH   1  17
HETATM   17  C   UNK N   1      32.929  13.903   8.243  0.00  0.00     0.198 C 
BRANCH  17  18
HETATM   18  O   UNK N   1      32.170  13.384   9.294  0.00  0.00    -0.398 OA
HETATM   19  H   UNK N   1      31.747  12.513   9.228  0.00  0.00     0.209 HD
ENDBRANCH  17  18
ENDBRANCH   1  17
BRANCH   5  20
HETATM   20  O   UNK N   1      35.541  17.414  10.536  0.00  0.00    -0.390 OA
HETATM   21  H   UNK N   1      35.813  16.931  11.333  0.00  0.00     0.210 HD
ENDBRANCH   5  20
BRANCH   6  22
HETATM   22  O   UNK N   1      33.855  15.153  10.752  0.00  0.00    -0.390 OA
HETATM   23  H   UNK N   1      33.580  14.227  10.841  0.00  0.00     0.210 HD
ENDBRANCH   6  22
TORSDOF 12
ENDMDL
MODEL 4
REMARK VINA RESULT:      -5.4     10.821     12.605
REMARK  12 active torsions:
REMARK  status: ('A' for Active; 'I' for Inactive)
REMARK    1  A    between atoms: C_1  and  C_7 
REMARK    2  A    between atoms: C_3  and  O_8 
REMARK    3  A    between atoms: C_4  and  O_15 
REMARK    4  A    between atoms: C_5  and  O_16 
REMARK    5  A    between atoms: C_6  and  O_17 
REMARK    6  A    between atoms: C_7  and  O_18 
REMARK    7  A    between atoms: O_8  and  C_9 
REMARK    8  A    between atoms: C_9  and  C_10 
REMARK    9  A    between atoms: C_10  and  C_11 
REMARK   10  A    between atoms: C_11  and  C_12 
REMARK   11  A    between atoms: C_12  and  C_13 
REMARK   12  A    between atoms: C_13  and  C_14 
ROOT
HETATM    1  C   UNK N   1      30.147  21.345  -5.100  0.00  0.00     0.179 C 
HETATM    2  O   UNK N   1      29.771  22.711  -4.985  0.00  0.00    -0.348 OA
HETATM    3  C   UNK N   1      29.490  23.040  -3.629  0.00  0.00     0.291 C 
HETATM    4  C   UNK N   1      30.761  22.892  -2.753  0.00  0.00     0.204 C 
HETATM    5  C   UNK N   1      31.259  21.450  -2.851  0.00  0.00     0.183 C 
HETATM    6  C   UNK N   1      31.464  21.084  -4.325  0.00  0.00     0.180 C 
ENDROOT
BRANCH   3   7
HETATM    7  O   UNK N   1      28.904  24.327  -3.545  0.00  0.00    -0.359 OA
BRANCH   7   8
HETATM    8  C   UNK N   1      28.000  24.516  -4.602  0.00  0.00     0.171 C 
BRANCH   8   9
HETATM    9  C   UNK N   1      26.643  24.908  -4.063  0.00  0.00     0.026 C 
BRANCH   9  10
HETATM   10  C   UNK N   1      25.635  24.916  -5.194  0.00  0.00     0.002 C 
BRANCH  10  11
HETATM   11  C   UNK N   1      25.249  26.345  -5.524  0.00  0.00     0.000 C 
BRANCH  11  12
HETATM   12  C   UNK N   1      25.682  27.272  -4.401  0.00  0.00    -0.000 C 
BRANCH  12  13
HETATM   13  C   UNK N   1      26.374  28.500  -4.961  0.00  0.00    -0.005 C 
HETATM   14  C   UNK N   1      27.164  28.150  -6.207  0.00  0.00     0.005 C 
ENDBRANCH  12  13
ENDBRANCH  11  12
ENDBRANCH  10  11
ENDBRANCH   9  10
ENDBRANCH   8   9
ENDBRANCH   7   8
ENDBRANCH   3   7
BRANCH   4  15
HETATM   15  O   UNK N   1      30.472  23.212  -1.424  0.00  0.00    -0.388 OA
HETATM   16  H   UNK N   1      29.600  23.472  -1.088  0.00  0.00     0.210 HD
ENDBRANCH   4  15
BRANCH   1  17
HETATM   17  C   UNK N   1      30.313  21.034  -6.588  0.00  0.00     0.198 C 
BRANCH  17  18
HETATM   18  O   UNK N   1      30.140  19.672  -6.842  0.00  0.00    -0.398 OA
HETATM   19  H   UNK N   1      29.630  19.107  -6.239  0.00  0.00     0.209 HD
ENDBRANCH  17  18
ENDBRANCH   1  17
BRANCH   5  20
HETATM   20  O   UNK N   1      32.458  21.308  -2.146  0.00  0.00    -0.390 OA
HETATM   21  H   UNK N   1      33.063  20.552  -2.077  0.00  0.00     0.210 HD
ENDBRANCH   5  20
BRANCH   6  22
HETATM   22  O   UNK N   1      31.842  19.741  -4.419  0.00  0.00    -0.390 OA
HETATM   23  H   UNK N   1      31.431  19.161  -5.079  0.00  0.00     0.210 HD
ENDBRANCH   6  22
TORSDOF 12
ENDMDL
MODEL 5
REMARK VINA RESULT:      -5.3      1.083      2.995
REMARK  12 active torsions:
REMARK  status: ('A' for Active; 'I' for Inactive)
REMARK    1  A    between atoms: C_1  and  C_7 
REMARK    2  A    between atoms: C_3  and  O_8 
REMARK    3  A    between atoms: C_4  and  O_15 
REMARK    4  A    between atoms: C_5  and  O_16 
REMARK    5  A    between atoms: C_6  and  O_17 
REMARK    6  A    between atoms: C_7  and  O_18 
REMARK    7  A    between atoms: O_8  and  C_9 
REMARK    8  A    between atoms: C_9  and  C_10 
REMARK    9  A    between atoms: C_10  and  C_11 
REMARK   10  A    between atoms: C_11  and  C_12 
REMARK   11  A    between atoms: C_12  and  C_13 
REMARK   12  A    between atoms: C_13  and  C_14 
ROOT
HETATM    1  C   UNK N   1      21.362  17.531   4.032  0.00  0.00     0.179 C 
HETATM    2  O   UNK N   1      21.938  18.822   4.181  0.00  0.00    -0.348 OA
HETATM    3  C   UNK N   1      21.812  19.567   2.975  0.00  0.00     0.291 C 
HETATM    4  C   UNK N   1      20.320  19.823   2.639  0.00  0.00     0.204 C 
HETATM    5  C   UNK N   1      19.611  18.476   2.500  0.00  0.00     0.183 C 
HETATM    6  C   UNK N   1      19.839  17.650   3.771  0.00  0.00     0.180 C 
ENDROOT
BRANCH   3   7
HETATM    7  O   UNK N   1      22.576  20.758   3.048  0.00  0.00    -0.359 OA
BRANCH   7   8
HETATM    8  C   UNK N   1      23.883  20.522   2.591  0.00  0.00     0.171 C 
BRANCH   8   9
HETATM    9  C   UNK N   1      24.846  20.499   3.756  0.00  0.00     0.026 C 
BRANCH   9  10
HETATM   10  C   UNK N   1      26.268  20.463   3.233  0.00  0.00     0.002 C 
BRANCH  10  11
HETATM   11  C   UNK N   1      27.035  19.348   3.917  0.00  0.00     0.000 C 
BRANCH  11  12
HETATM   12  C   UNK N   1      28.185  19.927   4.723  0.00  0.00    -0.000 C 
BRANCH  12  13
HETATM   13  C   UNK N   1      27.678  20.967   5.703  0.00  0.00    -0.005 C 
HETATM   14  C   UNK N   1      27.157  20.306   6.965  0.00  0.00     0.005 C 
ENDBRANCH  12  13
ENDBRANCH  11  12
ENDBRANCH  10  11
ENDBRANCH   9  10
ENDBRANCH   8   9
ENDBRANCH   7   8
ENDBRANCH   3   7
BRANCH   4  15
HETATM   15  O   UNK N   1      20.209  20.549   1.450  0.00  0.00    -0.388 OA
HETATM   16  H   UNK N   1      19.392  20.948   1.112  0.00  0.00     0.210 HD
ENDBRANCH   4  15
BRANCH   1  17
HETATM   17  C   UNK N   1      21.641  16.750   5.316  0.00  0.00     0.198 C 
BRANCH  17  18
HETATM   18  O   UNK N   1      21.538  15.374   5.103  0.00  0.00    -0.398 OA
HETATM   19  H   UNK N   1      22.281  14.777   5.288  0.00  0.00     0.209 HD
ENDBRANCH  17  18
ENDBRANCH   1  17
BRANCH   5  20
HETATM   20  O   UNK N   1      18.243  18.673   2.290  0.00  0.00    -0.390 OA
HETATM   21  H   UNK N   1      17.771  19.072   1.541  0.00  0.00     0.210 HD
ENDBRANCH   5  20
BRANCH   6  22
HETATM   22  O   UNK N   1      19.259  16.388   3.612  0.00  0.00    -0.390 OA
HETATM   23  H   UNK N   1      19.783  15.646   3.273  0.00  0.00     0.210 HD
ENDBRANCH   6  22
TORSDOF 12
ENDMDL
MODEL 6
REMARK VINA RESULT:      -5.2      6.940      9.319
REMARK  12 active torsions:
REMARK  status: ('A' for Active; 'I' for Inactive)
REMARK    1  A    between atoms: C_1  and  C_7 
REMARK    2  A    between atoms: C_3  and  O_8 
REMARK    3  A    between atoms: C_4  and  O_15 
REMARK    4  A    between atoms: C_5  and  O_16 
REMARK    5  A    between atoms: C_6  and  O_17 
REMARK    6  A    between atoms: C_7  and  O_18 
REMARK    7  A    between atoms: O_8  and  C_9 
REMARK    8  A    between atoms: C_9  and  C_10 
REMARK    9  A    between atoms: C_10  and  C_11 
REMARK   10  A    between atoms: C_11  and  C_12 
REMARK   11  A    between atoms: C_12  and  C_13 
REMARK   12  A    between atoms: C_13  and  C_14 
ROOT
HETATM    1  C   UNK N   1      29.376  17.701   6.367  0.00  0.00     0.179 C 
HETATM    2  O   UNK N   1      30.486  17.169   7.078  0.00  0.00    -0.348 OA
HETATM    3  C   UNK N   1      30.770  17.960   8.227  0.00  0.00     0.291 C 
HETATM    4  C   UNK N   1      29.587  17.919   9.228  0.00  0.00     0.204 C 
HETATM    5  C   UNK N   1      28.333  18.442   8.529  0.00  0.00     0.183 C 
HETATM    6  C   UNK N   1      28.099  17.640   7.243  0.00  0.00     0.180 C 
ENDROOT
BRANCH   3   7
HETATM    7  O   UNK N   1      32.002  17.566   8.805  0.00  0.00    -0.359 OA
BRANCH   7   8
HETATM    8  C   UNK N   1      32.391  16.312   8.306  0.00  0.00     0.171 C 
BRANCH   8   9
HETATM    9  C   UNK N   1      33.845  16.344   7.895  0.00  0.00     0.026 C 
BRANCH   9  10
HETATM   10  C   UNK N   1      34.039  17.378   6.804  0.00  0.00     0.002 C 
BRANCH  10  11
HETATM   11  C   UNK N   1      33.818  16.737   5.448  0.00  0.00     0.000 C 
BRANCH  11  12
HETATM   12  C   UNK N   1      32.857  17.580   4.626  0.00  0.00    -0.000 C 
BRANCH  12  13
HETATM   13  C   UNK N   1      32.720  17.017   3.225  0.00  0.00    -0.005 C 
HETATM   14  C   UNK N   1      32.258  15.573   3.270  0.00  0.00     0.005 C 
ENDBRANCH  12  13
ENDBRANCH  11  12
ENDBRANCH  10  11
ENDBRANCH   9  10
ENDBRANCH   8   9
ENDBRANCH   7   8
ENDBRANCH   3   7
BRANCH   4  15
HETATM   15  O   UNK N   1      29.876  18.704  10.349  0.00  0.00    -0.388 OA
HETATM   16  H   UNK N   1      29.497  19.578  10.532  0.00  0.00     0.210 HD
ENDBRANCH   4  15
BRANCH   1  17
HETATM   17  C   UNK N   1      29.207  16.878   5.090  0.00  0.00     0.198 C 
BRANCH  17  18
HETATM   18  O   UNK N   1      29.244  17.693   3.956  0.00  0.00    -0.398 OA
HETATM   19  H   UNK N   1      29.510  17.341   3.092  0.00  0.00     0.209 HD
ENDBRANCH  17  18
ENDBRANCH   1  17
BRANCH   5  20
HETATM   20  O   UNK N   1      27.228  18.331   9.377  0.00  0.00    -0.390 OA
HETATM   21  H   UNK N   1      26.951  17.606   9.960  0.00  0.00     0.210 HD
ENDBRANCH   5  20
BRANCH   6  22
HETATM   22  O   UNK N   1      26.999  18.170   6.562  0.00  0.00    -0.390 OA
HETATM   23  H   UNK N   1      26.141  17.720   6.590  0.00  0.00     0.210 HD
ENDBRANCH   6  22
TORSDOF 12
ENDMDL
MODEL 7
REMARK VINA RESULT:      -5.1     10.498     13.643
REMARK  12 active torsions:
REMARK  status: ('A' for Active; 'I' for Inactive)
REMARK    1  A    between atoms: C_1  and  C_7 
REMARK    2  A    between atoms: C_3  and  O_8 
REMARK    3  A    between atoms: C_4  and  O_15 
REMARK    4  A    between atoms: C_5  and  O_16 
REMARK    5  A    between atoms: C_6  and  O_17 
REMARK    6  A    between atoms: C_7  and  O_18 
REMARK    7  A    between atoms: O_8  and  C_9 
REMARK    8  A    between atoms: C_9  and  C_10 
REMARK    9  A    between atoms: C_10  and  C_11 
REMARK   10  A    between atoms: C_11  and  C_12 
REMARK   11  A    between atoms: C_12  and  C_13 
REMARK   12  A    between atoms: C_13  and  C_14 
ROOT
HETATM    1  C   UNK N   1      33.938  13.907   9.591  0.00  0.00     0.179 C 
HETATM    2  O   UNK N   1      34.506  14.647   8.518  0.00  0.00    -0.348 OA
HETATM    3  C   UNK N   1      34.619  16.023   8.865  0.00  0.00     0.291 C 
HETATM    4  C   UNK N   1      35.598  16.212  10.053  0.00  0.00     0.204 C 
HETATM    5  C   UNK N   1      35.080  15.411  11.247  0.00  0.00     0.183 C 
HETATM    6  C   UNK N   1      34.873  13.951  10.827  0.00  0.00     0.180 C 
ENDROOT
BRANCH   3   7
HETATM    7  O   UNK N   1      34.971  16.791   7.727  0.00  0.00    -0.359 OA
BRANCH   7   8
HETATM    8  C   UNK N   1      34.106  17.890   7.600  0.00  0.00     0.171 C 
BRANCH   8   9
HETATM    9  C   UNK N   1      32.780  17.589   8.260  0.00  0.00     0.026 C 
BRANCH   9  10
HETATM   10  C   UNK N   1      31.756  17.244   7.198  0.00  0.00     0.002 C 
BRANCH  10  11
HETATM   11  C   UNK N   1      30.362  17.537   7.718  0.00  0.00     0.000 C 
BRANCH  11  12
HETATM   12  C   UNK N   1      30.436  18.521   8.873  0.00  0.00    -0.000 C 
BRANCH  12  13
HETATM   13  C   UNK N   1      29.369  18.211   9.906  0.00  0.00    -0.005 C 
HETATM   14  C   UNK N   1      28.068  17.820   9.232  0.00  0.00     0.005 C 
ENDBRANCH  12  13
ENDBRANCH  11  12
ENDBRANCH  10  11
ENDBRANCH   9  10
ENDBRANCH   8   9
ENDBRANCH   7   8
ENDBRANCH   3   7
BRANCH   4  15
HETATM   15  O   UNK N   1      35.695  17.565  10.387  0.00  0.00    -0.388 OA
HETATM   16  H   UNK N   1      35.375  17.963  11.212  0.00  0.00     0.210 HD
ENDBRANCH   4  15
BRANCH   1  17
HETATM   17  C   UNK N   1      33.735  12.472   9.106  0.00  0.00     0.198 C 
BRANCH  17  18
HETATM   18  O   UNK N   1      32.528  11.947   9.573  0.00  0.00    -0.398 OA
HETATM   19  H   UNK N   1      32.465  11.033   9.893  0.00  0.00     0.209 HD
ENDBRANCH  17  18
ENDBRANCH   1  17
BRANCH   5  20
HETATM   20  O   UNK N   1      35.990  15.486  12.306  0.00  0.00    -0.390 OA
HETATM   21  H   UNK N   1      35.877  15.816  13.211  0.00  0.00     0.210 HD
ENDBRANCH   5  20
BRANCH   6  22
HETATM   22  O   UNK N   1      34.324  13.237  11.896  0.00  0.00    -0.390 OA
HETATM   23  H   UNK N   1      34.896  12.873  12.588  0.00  0.00     0.210 HD
ENDBRANCH   6  22
TORSDOF 12
ENDMDL
MODEL 8
REMARK VINA RESULT:      -5.1      6.405      9.004
REMARK  12 active torsions:
REMARK  status: ('A' for Active; 'I' for Inactive)
REMARK    1  A    between atoms: C_1  and  C_7 
REMARK    2  A    between atoms: C_3  and  O_8 
REMARK    3  A    between atoms: C_4  and  O_15 
REMARK    4  A    between atoms: C_5  and  O_16 
REMARK    5  A    between atoms: C_6  and  O_17 
REMARK    6  A    between atoms: C_7  and  O_18 
REMARK    7  A    between atoms: O_8  and  C_9 
REMARK    8  A    between atoms: C_9  and  C_10 
REMARK    9  A    between atoms: C_10  and  C_11 
REMARK   10  A    between atoms: C_11  and  C_12 
REMARK   11  A    between atoms: C_12  and  C_13 
REMARK   12  A    between atoms: C_13  and  C_14 
ROOT
HETATM    1  C   UNK N   1      28.489  17.614   7.336  0.00  0.00     0.179 C 
HETATM    2  O   UNK N   1      29.695  16.971   6.947  0.00  0.00    -0.348 OA
HETATM    3  C   UNK N   1      29.607  16.511   5.604  0.00  0.00     0.291 C 
HETATM    4  C   UNK N   1      29.446  17.702   4.624  0.00  0.00     0.204 C 
HETATM    5  C   UNK N   1      28.183  18.477   4.997  0.00  0.00     0.183 C 
HETATM    6  C   UNK N   1      28.254  18.881   6.474  0.00  0.00     0.180 C 
ENDROOT
BRANCH   3   7
HETATM    7  O   UNK N   1      30.712  15.681   5.292  0.00  0.00    -0.359 OA
BRANCH   7   8
HETATM    8  C   UNK N   1      31.827  16.052   6.061  0.00  0.00     0.171 C 
BRANCH   8   9
HETATM    9  C   UNK N   1      32.813  16.821   5.213  0.00  0.00     0.026 C 
BRANCH   9  10
HETATM   10  C   UNK N   1      33.922  17.361   6.093  0.00  0.00     0.002 C 
BRANCH  10  11
HETATM   11  C   UNK N   1      33.338  17.869   7.396  0.00  0.00     0.000 C 
BRANCH  11  12
HETATM   12  C   UNK N   1      34.414  17.902   8.469  0.00  0.00    -0.000 C 
BRANCH  12  13
HETATM   13  C   UNK N   1      34.503  16.563   9.176  0.00  0.00    -0.005 C 
HETATM   14  C   UNK N   1      35.279  16.691  10.473  0.00  0.00     0.005 C 
ENDBRANCH  12  13
ENDBRANCH  11  12
ENDBRANCH  10  11
ENDBRANCH   9  10
ENDBRANCH   8   9
ENDBRANCH   7   8
ENDBRANCH   3   7
BRANCH   4  15
HETATM   15  O   UNK N   1      29.354  17.237   3.309  0.00  0.00    -0.388 OA
HETATM   16  H   UNK N   1      28.720  17.554   2.646  0.00  0.00     0.210 HD
ENDBRANCH   4  15
BRANCH   1  17
HETATM   17  C   UNK N   1      28.610  17.970   8.817  0.00  0.00     0.198 C 
BRANCH  17  18
HETATM   18  O   UNK N   1      27.356  18.202   9.386  0.00  0.00    -0.398 OA
HETATM   19  H   UNK N   1      26.541  18.093   8.871  0.00  0.00     0.209 HD
ENDBRANCH  17  18
ENDBRANCH   1  17
BRANCH   5  20
HETATM   20  O   UNK N   1      28.059  19.612   4.190  0.00  0.00    -0.390 OA
HETATM   21  H   UNK N   1      27.465  20.376   4.263  0.00  0.00     0.210 HD
ENDBRANCH   5  20
BRANCH   6  22
HETATM   22  O   UNK N   1      27.064  19.519   6.837  0.00  0.00    -0.390 OA
HETATM   23  H   UNK N   1      27.082  20.407   7.225  0.00  0.00     0.210 HD
ENDBRANCH   6  22
TORSDOF 12
ENDMDL
MODEL 9
REMARK VINA RESULT:      -5.1     10.069     12.831
REMARK  12 active torsions:
REMARK  status: ('A' for Active; 'I' for Inactive)
REMARK    1  A    between atoms: C_1  and  C_7 
REMARK    2  A    between atoms: C_3  and  O_8 
REMARK    3  A    between atoms: C_4  and  O_15 
REMARK    4  A    between atoms: C_5  and  O_16 
REMARK    5  A    between atoms: C_6  and  O_17 
REMARK    6  A    between atoms: C_7  and  O_18 
REMARK    7  A    between atoms: O_8  and  C_9 
REMARK    8  A    between atoms: C_9  and  C_10 
REMARK    9  A    between atoms: C_10  and  C_11 
REMARK   10  A    between atoms: C_11  and  C_12 
REMARK   11  A    between atoms: C_12  and  C_13 
REMARK   12  A    between atoms: C_13  and  C_14 
ROOT
HETATM    1  C   UNK N   1      33.257  15.106   8.486  0.00  0.00     0.179 C 
HETATM    2  O   UNK N   1      33.847  15.583   7.285  0.00  0.00    -0.348 OA
HETATM    3  C   UNK N   1      33.913  17.005   7.290  0.00  0.00     0.291 C 
HETATM    4  C   UNK N   1      34.839  17.509   8.427  0.00  0.00     0.204 C 
HETATM    5  C   UNK N   1      34.295  17.004   9.763  0.00  0.00     0.183 C 
HETATM    6  C   UNK N   1      34.141  15.479   9.704  0.00  0.00     0.180 C 
ENDROOT
BRANCH   3   7
HETATM    7  O   UNK N   1      34.290  17.486   6.012  0.00  0.00    -0.359 OA
BRANCH   7   8
HETATM    8  C   UNK N   1      33.633  16.757   5.007  0.00  0.00     0.171 C 
BRANCH   8   9
HETATM    9  C   UNK N   1      32.734  17.669   4.205  0.00  0.00     0.026 C 
BRANCH   9  10
HETATM   10  C   UNK N   1      32.153  16.902   3.035  0.00  0.00     0.002 C 
BRANCH  10  11
HETATM   11  C   UNK N   1      32.496  15.431   3.167  0.00  0.00     0.000 C 
BRANCH  11  12
HETATM   12  C   UNK N   1      31.231  14.593   3.078  0.00  0.00    -0.000 C 
BRANCH  12  13
HETATM   13  C   UNK N   1      30.003  15.460   3.275  0.00  0.00    -0.005 C 
HETATM   14  C   UNK N   1      28.910  15.072   2.297  0.00  0.00     0.005 C 
ENDBRANCH  12  13
ENDBRANCH  11  12
ENDBRANCH  10  11
ENDBRANCH   9  10
ENDBRANCH   8   9
ENDBRANCH   7   8
ENDBRANCH   3   7
BRANCH   4  15
HETATM   15  O   UNK N   1      34.889  18.906   8.426  0.00  0.00    -0.388 OA
HETATM   16  H   UNK N   1      35.014  19.462   9.210  0.00  0.00     0.210 HD
ENDBRANCH   4  15
BRANCH   1  17
HETATM   17  C   UNK N   1      33.109  13.590   8.359  0.00  0.00     0.198 C 
BRANCH  17  18
HETATM   18  O   UNK N   1      32.153  13.099   9.250  0.00  0.00    -0.398 OA
HETATM   19  H   UNK N   1      31.210  13.087   9.023  0.00  0.00     0.209 HD
ENDBRANCH  17  18
ENDBRANCH   1  17
BRANCH   5  20
HETATM   20  O   UNK N   1      35.160  17.363  10.800  0.00  0.00    -0.390 OA
HETATM   21  H   UNK N   1      34.978  17.561  11.733  0.00  0.00     0.210 HD
ENDBRANCH   5  20
BRANCH   6  22
HETATM   22  O   UNK N   1      33.568  15.027  10.896  0.00  0.00    -0.390 OA
HETATM   23  H   UNK N   1      33.340  15.653  11.600  0.00  0.00     0.210 HD
ENDBRANCH   6  22
TORSDOF 12
ENDMDL
