REMARK  12 active torsions:
REMARK  status: ('A' for Active; 'I' for Inactive)
REMARK    1  A    between atoms: C_1  and  C_7 
REMARK    2  A    between atoms: C_3  and  O_8 
REMARK    3  A    between atoms: C_4  and  O_15 
REMARK    4  A    between atoms: C_5  and  O_16 
REMARK    5  A    between atoms: C_6  and  O_17 
REMARK    6  A    between atoms: C_7  and  O_18 
REMARK    7  A    between atoms: O_8  and  C_9 
REMARK    8  A    between atoms: C_9  and  C_10 
REMARK    9  A    between atoms: C_10  and  C_11 
REMARK   10  A    between atoms: C_11  and  C_12 
REMARK   11  A    between atoms: C_12  and  C_13 
REMARK   12  A    between atoms: C_13  and  C_14 
ROOT
HETATM    1  C   UNK N   1      -2.233   1.656   0.391  0.00  0.00     0.179 C 
HETATM    2  O   UNK N   1      -1.051   0.883   0.233  0.00  0.00    -0.348 OA
HETATM    3  C   UNK N   1      -1.228  -0.419   0.780  0.00  0.00     0.291 C 
HETATM    4  C   UNK N   1      -2.328  -1.194   0.009  0.00  0.00     0.204 C 
HETATM    5  C   UNK N   1      -3.635  -0.407   0.095  0.00  0.00     0.183 C 
HETATM    6  C   UNK N   1      -3.400   1.022  -0.409  0.00  0.00     0.180 C 
ENDROOT
BRANCH   3   7
HETATM    7  O   UNK N   1       0.009  -1.108   0.825  0.00  0.00    -0.359 OA
BRANCH   7   8
HETATM    8  C   UNK N   1       0.450  -1.395  -0.477  0.00  0.00     0.171 C 
BRANCH   8   9
HETATM    9  C   UNK N   1       1.957  -1.506  -0.504  0.00  0.00     0.026 C 
BRANCH   9  10
HETATM   10  C   UNK N   1       2.551  -0.191  -0.967  0.00  0.00     0.002 C 
BRANCH  10  11
HETATM   11  C   UNK N   1       4.063  -0.296  -0.997  0.00  0.00     0.000 C 
BRANCH  11  12
HETATM   12  C   UNK N   1       4.619  -0.185   0.413  0.00  0.00    -0.000 C 
BRANCH  12  13
HETATM   13  C   UNK N   1       6.081  -0.588   0.442  0.00  0.00    -0.005 C 
HETATM   14  C   UNK N   1       6.946   0.485  -0.191  0.00  0.00     0.005 C 
ENDBRANCH  12  13
ENDBRANCH  11  12
ENDBRANCH  10  11
ENDBRANCH   9  10
ENDBRANCH   8   9
ENDBRANCH   7   8
ENDBRANCH   3   7
BRANCH   4  15
HETATM   15  O   UNK N   1      -2.497  -2.468   0.559  0.00  0.00    -0.388 OA
HETATM   16  H   UNK N   1      -3.321  -2.808   0.941  0.00  0.00     0.210 HD
ENDBRANCH   4  15
BRANCH   1  17
HETATM   17  C   UNK N   1      -1.931   3.070  -0.105  0.00  0.00     0.198 C 
BRANCH  17  18
HETATM   18  O   UNK N   1      -2.987   3.940   0.175  0.00  0.00    -0.398 OA
HETATM   19  H   UNK N   1      -2.830   4.878   0.368  0.00  0.00     0.209 HD
ENDBRANCH  17  18
ENDBRANCH   1  17
BRANCH   5  20
HETATM   20  O   UNK N   1      -4.624  -1.033  -0.669  0.00  0.00    -0.390 OA
HETATM   21  H   UNK N   1      -5.344  -0.656  -1.199  0.00  0.00     0.210 HD
ENDBRANCH   5  20
BRANCH   6  22
HETATM   22  O   UNK N   1      -4.574   1.765  -0.255  0.00  0.00    -0.390 OA
HETATM   23  H   UNK N   1      -4.535   2.728  -0.148  0.00  0.00     0.210 HD
ENDBRANCH   6  22
TORSDOF 12
