MODEL 1
REMARK VINA RESULT:      -7.3      0.000      0.000
REMARK  4 active torsions:
REMARK  status: ('A' for Active; 'I' for Inactive)
REMARK    1  A    between atoms: C_1  and  C_7 
REMARK    2  A    between atoms: C_7  and  N_10 
REMARK    3  A    between atoms: C_8  and  C_9 
REMARK    4  A    between atoms: C_9  and  C_22 
ROOT
HETATM    1  C   UNK N   1      36.300  14.209  12.009  0.00  0.00     0.009 A 
HETATM    2  C   UNK N   1      36.458  13.366  10.874  0.00  0.00     0.017 A 
HETATM    3  C   UNK N   1      36.028  13.787   9.596  0.00  0.00     0.033 A 
HETATM    4  C   UNK N   1      35.448  15.049   9.499  0.00  0.00     0.060 A 
HETATM    5  C   UNK N   1      35.296  15.846  10.586  0.00  0.00     0.061 A 
HETATM    6  C   UNK N   1      35.703  15.476  11.855  0.00  0.00     0.047 A 
HETATM    7  C   UNK N   1      34.519  16.863   8.892  0.00  0.00     0.089 A 
HETATM    8  N   UNK N   1      34.964  15.671   8.410  0.00  0.00    -0.344 N 
HETATM    9  N   UNK N   1      34.712  16.989  10.228  0.00  0.00    -0.344 N 
ATOM     10  HN  UNK N   1      34.464  17.778  10.824  1.00  0.00     0.167 HD
HETATM   11  H   UNK N   1      34.937  15.342   7.483  0.00  0.00     0.167 HD
ENDROOT
BRANCH   7  12
HETATM   12  C   UNK N   1      33.854  17.914   8.040  0.00  0.00     0.152 C 
BRANCH  12  13
HETATM   13  C   UNK N   1      32.346  17.887   8.097  0.00  0.00     0.089 A 
HETATM   14  N   UNK N   1      31.612  18.373   9.132  0.00  0.00    -0.344 N 
HETATM   15  C   UNK N   1      30.350  18.077   8.809  0.00  0.00     0.060 A 
HETATM   16  H   UNK N   1      31.936  18.836   9.938  0.00  0.00     0.167 HD
HETATM   17  C   UNK N   1      29.202  18.334   9.545  0.00  0.00     0.032 A 
HETATM   18  C   UNK N   1      30.326  17.438   7.610  0.00  0.00     0.060 A 
HETATM   19  C   UNK N   1      27.977  17.903   9.002  0.00  0.00     0.002 A 
HETATM   20  C   UNK N   1      27.945  17.237   7.752  0.00  0.00     0.002 A 
HETATM   21  C   UNK N   1      29.137  16.996   7.038  0.00  0.00     0.032 A 
HETATM   22  N   UNK N   1      31.577  17.307   7.138  0.00  0.00    -0.344 N 
ATOM     23  HN  UNK N   1      31.878  16.875   6.265  1.00  0.00     0.167 HD
ENDBRANCH  12  13
ENDBRANCH   7  12
BRANCH   1  24
HETATM   24  C   UNK N   1      36.757  13.773  13.345  0.00  0.00     0.102 C 
HETATM   25  N   UNK N   1      36.795  14.606  14.321  0.00  0.00    -0.385 N 
HETATM   26  H   UNK N   1      37.135  14.319  15.200  0.00  0.00     0.157 HD
ATOM     27  HN  UNK N   1      36.473  15.564  14.186  1.00  0.00     0.157 HD
BRANCH  24  28
HETATM   28  N   UNK N   1      37.162  12.437  13.558  0.00  0.00    -0.385 N 
HETATM   29  H   UNK N   1      36.598  11.693  13.242  0.00  0.00     0.157 HD
HETATM   30  H   UNK N   1      38.009  12.247  14.023  0.00  0.00     0.157 HD
ENDBRANCH  24  28
ENDBRANCH   1  24
TORSDOF 4
ENDMDL
MODEL 2
REMARK VINA RESULT:      -7.2      2.542      4.759
REMARK  4 active torsions:
REMARK  status: ('A' for Active; 'I' for Inactive)
REMARK    1  A    between atoms: C_1  and  C_7 
REMARK    2  A    between atoms: C_7  and  N_10 
REMARK    3  A    between atoms: C_8  and  C_9 
REMARK    4  A    between atoms: C_9  and  C_22 
ROOT
HETATM    1  C   UNK N   1      35.582  13.222  16.441  0.00  0.00     0.009 A 
HETATM    2  C   UNK N   1      36.540  14.230  16.146  0.00  0.00     0.017 A 
HETATM    3  C   UNK N   1      36.796  14.614  14.810  0.00  0.00     0.033 A 
HETATM    4  C   UNK N   1      36.075  13.968  13.809  0.00  0.00     0.060 A 
HETATM    5  C   UNK N   1      35.166  13.005  14.098  0.00  0.00     0.061 A 
HETATM    6  C   UNK N   1      34.883  12.598  15.389  0.00  0.00     0.047 A 
HETATM    7  C   UNK N   1      35.230  13.261  11.992  0.00  0.00     0.089 A 
HETATM    8  N   UNK N   1      36.136  14.151  12.479  0.00  0.00    -0.344 N 
HETATM    9  N   UNK N   1      34.625  12.544  12.971  0.00  0.00    -0.344 N 
ATOM     10  HN  UNK N   1      33.917  11.817  12.868  1.00  0.00     0.167 HD
HETATM   11  H   UNK N   1      36.701  14.780  11.975  0.00  0.00     0.167 HD
ENDROOT
BRANCH   7  12
HETATM   12  C   UNK N   1      34.953  13.067  10.522  0.00  0.00     0.152 C 
BRANCH  12  13
HETATM   13  C   UNK N   1      34.367  14.281   9.842  0.00  0.00     0.089 A 
HETATM   14  N   UNK N   1      35.096  15.351   9.429  0.00  0.00    -0.344 N 
HETATM   15  C   UNK N   1      34.185  16.210   8.964  0.00  0.00     0.060 A 
HETATM   16  H   UNK N   1      36.072  15.467   9.465  0.00  0.00     0.167 HD
HETATM   17  C   UNK N   1      34.401  17.479   8.443  0.00  0.00     0.032 A 
HETATM   18  C   UNK N   1      32.944  15.669   9.087  0.00  0.00     0.060 A 
HETATM   19  C   UNK N   1      33.270  18.210   8.035  0.00  0.00     0.002 A 
HETATM   20  C   UNK N   1      31.975  17.651   8.161  0.00  0.00     0.002 A 
HETATM   21  C   UNK N   1      31.801  16.358   8.696  0.00  0.00     0.032 A 
HETATM   22  N   UNK N   1      33.034  14.447   9.640  0.00  0.00    -0.344 N 
ATOM     23  HN  UNK N   1      32.277  13.797   9.855  1.00  0.00     0.167 HD
ENDBRANCH  12  13
ENDBRANCH   7  12
BRANCH   1  24
HETATM   24  C   UNK N   1      35.308  12.825  17.838  0.00  0.00     0.102 C 
HETATM   25  N   UNK N   1      35.139  11.589  18.140  0.00  0.00    -0.385 N 
HETATM   26  H   UNK N   1      34.920  11.334  19.066  0.00  0.00     0.157 HD
ATOM     27  HN  UNK N   1      35.231  10.872  17.421  1.00  0.00     0.157 HD
BRANCH  24  28
HETATM   28  N   UNK N   1      35.224  13.803  18.854  0.00  0.00    -0.385 N 
HETATM   29  H   UNK N   1      34.978  13.543  19.771  0.00  0.00     0.157 HD
HETATM   30  H   UNK N   1      35.410  14.747  18.645  0.00  0.00     0.157 HD
ENDBRANCH  24  28
ENDBRANCH   1  24
TORSDOF 4
ENDMDL
MODEL 3
REMARK VINA RESULT:      -7.0      1.903      7.800
REMARK  4 active torsions:
REMARK  status: ('A' for Active; 'I' for Inactive)
REMARK    1  A    between atoms: C_1  and  C_7 
REMARK    2  A    between atoms: C_7  and  N_10 
REMARK    3  A    between atoms: C_8  and  C_9 
REMARK    4  A    between atoms: C_9  and  C_22 
ROOT
HETATM    1  C   UNK N   1      31.804  17.131   8.427  0.00  0.00     0.009 A 
HETATM    2  C   UNK N   1      32.939  17.966   8.233  0.00  0.00     0.017 A 
HETATM    3  C   UNK N   1      34.232  17.523   8.591  0.00  0.00     0.033 A 
HETATM    4  C   UNK N   1      34.342  16.246   9.137  0.00  0.00     0.060 A 
HETATM    5  C   UNK N   1      33.255  15.458   9.323  0.00  0.00     0.061 A 
HETATM    6  C   UNK N   1      31.972  15.850   8.987  0.00  0.00     0.047 A 
HETATM    7  C   UNK N   1      34.973  14.406   9.993  0.00  0.00     0.089 A 
HETATM    8  N   UNK N   1      35.447  15.603   9.553  0.00  0.00    -0.344 N 
HETATM    9  N   UNK N   1      33.628  14.298   9.863  0.00  0.00    -0.344 N 
ATOM     10  HN  UNK N   1      33.036  13.509  10.121  1.00  0.00     0.167 HD
HETATM   11  H   UNK N   1      36.378  15.922   9.542  0.00  0.00     0.167 HD
ENDROOT
BRANCH   7  12
HETATM   12  C   UNK N   1      35.844  13.330  10.592  0.00  0.00     0.152 C 
BRANCH  12  13
HETATM   13  C   UNK N   1      35.806  13.278  12.101  0.00  0.00     0.089 A 
HETATM   14  N   UNK N   1      34.839  12.648  12.818  0.00  0.00    -0.344 N 
HETATM   15  C   UNK N   1      35.147  12.916  14.090  0.00  0.00     0.060 A 
HETATM   16  H   UNK N   1      34.084  12.116  12.478  0.00  0.00     0.167 HD
HETATM   17  C   UNK N   1      34.459  12.525  15.231  0.00  0.00     0.032 A 
HETATM   18  C   UNK N   1      36.270  13.679  14.136  0.00  0.00     0.060 A 
HETATM   19  C   UNK N   1      34.970  12.952  16.471  0.00  0.00     0.002 A 
HETATM   20  C   UNK N   1      36.140  13.748  16.525  0.00  0.00     0.002 A 
HETATM   21  C   UNK N   1      36.807  14.121  15.340  0.00  0.00     0.032 A 
HETATM   22  N   UNK N   1      36.707  13.921  12.889  0.00  0.00    -0.344 N 
ATOM     23  HN  UNK N   1      37.525  14.459  12.602  1.00  0.00     0.167 HD
ENDBRANCH  12  13
ENDBRANCH   7  12
BRANCH   1  24
HETATM   24  C   UNK N   1      30.452  17.592   8.046  0.00  0.00     0.102 C 
HETATM   25  N   UNK N   1      29.803  18.398   8.805  0.00  0.00    -0.385 N 
HETATM   26  H   UNK N   1      28.889  18.672   8.564  0.00  0.00     0.157 HD
ATOM     27  HN  UNK N   1      30.235  18.754   9.657  1.00  0.00     0.157 HD
BRANCH  24  28
HETATM   28  N   UNK N   1      29.860  17.143   6.844  0.00  0.00    -0.385 N 
HETATM   29  H   UNK N   1      30.381  16.598   6.210  0.00  0.00     0.157 HD
HETATM   30  H   UNK N   1      28.925  17.375   6.640  0.00  0.00     0.157 HD
ENDBRANCH  24  28
ENDBRANCH   1  24
TORSDOF 4
ENDMDL
MODEL 4
REMARK VINA RESULT:      -7.0      1.988      2.786
REMARK  4 active torsions:
REMARK  status: ('A' for Active; 'I' for Inactive)
REMARK    1  A    between atoms: C_1  and  C_7 
REMARK    2  A    between atoms: C_7  and  N_10 
REMARK    3  A    between atoms: C_8  and  C_9 
REMARK    4  A    between atoms: C_9  and  C_22 
ROOT
HETATM    1  C   UNK N   1      36.105  14.163  12.129  0.00  0.00     0.009 A 
HETATM    2  C   UNK N   1      35.973  13.263  11.036  0.00  0.00     0.017 A 
HETATM    3  C   UNK N   1      35.509  13.715   9.779  0.00  0.00     0.033 A 
HETATM    4  C   UNK N   1      35.193  15.066   9.663  0.00  0.00     0.060 A 
HETATM    5  C   UNK N   1      35.318  15.917  10.711  0.00  0.00     0.061 A 
HETATM    6  C   UNK N   1      35.767  15.519  11.956  0.00  0.00     0.047 A 
HETATM    7  C   UNK N   1      34.597  17.008   9.038  0.00  0.00     0.089 A 
HETATM    8  N   UNK N   1      34.738  15.732   8.587  0.00  0.00    -0.344 N 
HETATM    9  N   UNK N   1      34.946  17.142  10.341  0.00  0.00    -0.344 N 
ATOM     10  HN  UNK N   1      34.926  17.989  10.910  1.00  0.00     0.167 HD
HETATM   11  H   UNK N   1      34.550  15.381   7.688  0.00  0.00     0.167 HD
ENDROOT
BRANCH   7  12
HETATM   12  C   UNK N   1      34.078  18.142   8.191  0.00  0.00     0.152 C 
BRANCH  12  13
HETATM   13  C   UNK N   1      33.284  17.696   6.986  0.00  0.00     0.089 A 
HETATM   14  N   UNK N   1      33.769  17.673   5.717  0.00  0.00    -0.344 N 
HETATM   15  C   UNK N   1      32.726  17.295   4.973  0.00  0.00     0.060 A 
HETATM   16  H   UNK N   1      34.681  17.889   5.416  0.00  0.00     0.167 HD
HETATM   17  C   UNK N   1      32.679  17.139   3.594  0.00  0.00     0.032 A 
HETATM   18  C   UNK N   1      31.647  17.089   5.773  0.00  0.00     0.060 A 
HETATM   19  C   UNK N   1      31.449  16.750   3.031  0.00  0.00     0.002 A 
HETATM   20  C   UNK N   1      30.321  16.534   3.860  0.00  0.00     0.002 A 
HETATM   21  C   UNK N   1      30.414  16.704   5.256  0.00  0.00     0.032 A 
HETATM   22  N   UNK N   1      31.975  17.334   7.053  0.00  0.00    -0.344 N 
ATOM     23  HN  UNK N   1      31.381  17.264   7.879  1.00  0.00     0.167 HD
ENDBRANCH  12  13
ENDBRANCH   7  12
BRANCH   1  24
HETATM   24  C   UNK N   1      36.597  13.692  13.441  0.00  0.00     0.102 C 
HETATM   25  N   UNK N   1      36.854  14.532  14.377  0.00  0.00    -0.385 N 
HETATM   26  H   UNK N   1      37.216  14.216  15.236  0.00  0.00     0.157 HD
ATOM     27  HN  UNK N   1      36.683  15.527  14.229  1.00  0.00     0.157 HD
BRANCH  24  28
HETATM   28  N   UNK N   1      36.794  12.313  13.675  0.00  0.00    -0.385 N 
HETATM   29  H   UNK N   1      36.763  11.676  12.924  0.00  0.00     0.157 HD
HETATM   30  H   UNK N   1      36.962  11.988  14.589  0.00  0.00     0.157 HD
ENDBRANCH  24  28
ENDBRANCH   1  24
TORSDOF 4
ENDMDL
MODEL 5
REMARK VINA RESULT:      -6.9      3.150      5.336
REMARK  4 active torsions:
REMARK  status: ('A' for Active; 'I' for Inactive)
REMARK    1  A    between atoms: C_1  and  C_7 
REMARK    2  A    between atoms: C_7  and  N_10 
REMARK    3  A    between atoms: C_8  and  C_9 
REMARK    4  A    between atoms: C_9  and  C_22 
ROOT
HETATM    1  C   UNK N   1      35.287  13.086  16.368  0.00  0.00     0.009 A 
HETATM    2  C   UNK N   1      34.367  12.166  15.794  0.00  0.00     0.017 A 
HETATM    3  C   UNK N   1      34.366  11.919  14.402  0.00  0.00     0.033 A 
HETATM    4  C   UNK N   1      35.295  12.611  13.629  0.00  0.00     0.060 A 
HETATM    5  C   UNK N   1      36.166  13.490  14.184  0.00  0.00     0.061 A 
HETATM    6  C   UNK N   1      36.203  13.761  15.539  0.00  0.00     0.047 A 
HETATM    7  C   UNK N   1      36.511  13.430  12.090  0.00  0.00     0.089 A 
HETATM    8  N   UNK N   1      35.493  12.552  12.301  0.00  0.00    -0.344 N 
HETATM    9  N   UNK N   1      36.937  14.018  13.234  0.00  0.00    -0.344 N 
ATOM     10  HN  UNK N   1      37.679  14.710  13.343  1.00  0.00     0.167 HD
HETATM   11  H   UNK N   1      35.014  12.005  11.638  0.00  0.00     0.167 HD
ENDROOT
BRANCH   7  12
HETATM   12  C   UNK N   1      37.080  13.739  10.728  0.00  0.00     0.152 C 
BRANCH  12  13
HETATM   13  C   UNK N   1      36.186  14.602   9.871  0.00  0.00     0.089 A 
HETATM   14  N   UNK N   1      35.776  14.269   8.619  0.00  0.00    -0.344 N 
HETATM   15  C   UNK N   1      35.082  15.333   8.206  0.00  0.00     0.060 A 
HETATM   16  H   UNK N   1      35.953  13.435   8.127  0.00  0.00     0.167 HD
HETATM   17  C   UNK N   1      34.464  15.519   6.977  0.00  0.00     0.032 A 
HETATM   18  C   UNK N   1      35.068  16.275   9.185  0.00  0.00     0.060 A 
HETATM   19  C   UNK N   1      33.805  16.745   6.765  0.00  0.00     0.002 A 
HETATM   20  C   UNK N   1      33.787  17.731   7.782  0.00  0.00     0.002 A 
HETATM   21  C   UNK N   1      34.428  17.499   9.016  0.00  0.00     0.032 A 
HETATM   22  N   UNK N   1      35.760  15.836  10.250  0.00  0.00    -0.344 N 
ATOM     23  HN  UNK N   1      35.924  16.315  11.135  1.00  0.00     0.167 HD
ENDBRANCH  12  13
ENDBRANCH   7  12
BRANCH   1  24
HETATM   24  C   UNK N   1      35.294  13.339  17.825  0.00  0.00     0.102 C 
HETATM   25  N   UNK N   1      35.238  12.360  18.653  0.00  0.00    -0.385 N 
HETATM   26  H   UNK N   1      35.205  12.536  19.621  0.00  0.00     0.157 HD
ATOM     27  HN  UNK N   1      35.226  11.400  18.308  1.00  0.00     0.157 HD
BRANCH  24  28
HETATM   28  N   UNK N   1      35.356  14.661  18.318  0.00  0.00    -0.385 N 
HETATM   29  H   UNK N   1      35.999  14.893  19.027  0.00  0.00     0.157 HD
HETATM   30  H   UNK N   1      34.756  15.351  17.954  0.00  0.00     0.157 HD
ENDBRANCH  24  28
ENDBRANCH   1  24
TORSDOF 4
ENDMDL
MODEL 6
REMARK VINA RESULT:      -6.9      1.747      8.028
REMARK  4 active torsions:
REMARK  status: ('A' for Active; 'I' for Inactive)
REMARK    1  A    between atoms: C_1  and  C_7 
REMARK    2  A    between atoms: C_7  and  N_10 
REMARK    3  A    between atoms: C_8  and  C_9 
REMARK    4  A    between atoms: C_9  and  C_22 
ROOT
HETATM    1  C   UNK N   1      28.253  16.919   6.911  0.00  0.00     0.009 A 
HETATM    2  C   UNK N   1      28.038  17.395   8.234  0.00  0.00     0.017 A 
HETATM    3  C   UNK N   1      29.124  17.813   9.036  0.00  0.00     0.033 A 
HETATM    4  C   UNK N   1      30.398  17.739   8.478  0.00  0.00     0.060 A 
HETATM    5  C   UNK N   1      30.595  17.281   7.217  0.00  0.00     0.061 A 
HETATM    6  C   UNK N   1      29.563  16.862   6.398  0.00  0.00     0.047 A 
HETATM    7  C   UNK N   1      32.479  17.795   8.050  0.00  0.00     0.089 A 
HETATM    8  N   UNK N   1      31.577  18.074   9.030  0.00  0.00    -0.344 N 
HETATM    9  N   UNK N   1      31.896  17.304   6.929  0.00  0.00    -0.344 N 
ATOM     10  HN  UNK N   1      32.349  17.016   6.062  1.00  0.00     0.167 HD
HETATM   11  H   UNK N   1      31.749  18.434   9.929  0.00  0.00     0.167 HD
ENDROOT
BRANCH   7  12
HETATM   12  C   UNK N   1      33.967  17.979   8.205  0.00  0.00     0.152 C 
BRANCH  12  13
HETATM   13  C   UNK N   1      34.634  16.914   9.044  0.00  0.00     0.089 A 
HETATM   14  N   UNK N   1      35.038  15.708   8.566  0.00  0.00    -0.344 N 
HETATM   15  C   UNK N   1      35.493  15.063   9.643  0.00  0.00     0.060 A 
HETATM   16  H   UNK N   1      35.003  15.384   7.637  0.00  0.00     0.167 HD
HETATM   17  C   UNK N   1      36.001  13.773   9.710  0.00  0.00     0.032 A 
HETATM   18  C   UNK N   1      35.372  15.861  10.736  0.00  0.00     0.060 A 
HETATM   19  C   UNK N   1      36.400  13.300  10.974  0.00  0.00     0.002 A 
HETATM   20  C   UNK N   1      36.276  14.128  12.117  0.00  0.00     0.002 A 
HETATM   21  C   UNK N   1      35.753  15.432  12.004  0.00  0.00     0.032 A 
HETATM   22  N   UNK N   1      34.832  17.040  10.382  0.00  0.00    -0.344 N 
ATOM     23  HN  UNK N   1      34.621  17.840  10.979  1.00  0.00     0.167 HD
ENDBRANCH  12  13
ENDBRANCH   7  12
BRANCH   1  24
HETATM   24  C   UNK N   1      27.117  16.488   6.069  0.00  0.00     0.102 C 
HETATM   25  N   UNK N   1      27.242  16.427   4.793  0.00  0.00    -0.385 N 
HETATM   26  H   UNK N   1      26.472  16.176   4.234  0.00  0.00     0.157 HD
ATOM     27  HN  UNK N   1      28.140  16.641   4.359  1.00  0.00     0.157 HD
BRANCH  24  28
HETATM   28  N   UNK N   1      25.881  16.145   6.661  0.00  0.00    -0.385 N 
HETATM   29  H   UNK N   1      25.037  16.389   6.217  0.00  0.00     0.157 HD
HETATM   30  H   UNK N   1      25.863  15.661   7.518  0.00  0.00     0.157 HD
ENDBRANCH  24  28
ENDBRANCH   1  24
TORSDOF 4
ENDMDL
MODEL 7
REMARK VINA RESULT:      -6.8      1.875      7.675
REMARK  4 active torsions:
REMARK  status: ('A' for Active; 'I' for Inactive)
REMARK    1  A    between atoms: C_1  and  C_7 
REMARK    2  A    between atoms: C_7  and  N_10 
REMARK    3  A    between atoms: C_8  and  C_9 
REMARK    4  A    between atoms: C_9  and  C_22 
ROOT
HETATM    1  C   UNK N   1      29.467  17.503   7.665  0.00  0.00     0.009 A 
HETATM    2  C   UNK N   1      29.660  16.536   6.641  0.00  0.00     0.017 A 
HETATM    3  C   UNK N   1      30.904  15.883   6.488  0.00  0.00     0.033 A 
HETATM    4  C   UNK N   1      31.920  16.227   7.377  0.00  0.00     0.060 A 
HETATM    5  C   UNK N   1      31.729  17.154   8.348  0.00  0.00     0.061 A 
HETATM    6  C   UNK N   1      30.530  17.816   8.534  0.00  0.00     0.047 A 
HETATM    7  C   UNK N   1      33.723  16.437   8.482  0.00  0.00     0.089 A 
HETATM    8  N   UNK N   1      33.177  15.755   7.439  0.00  0.00    -0.344 N 
HETATM    9  N   UNK N   1      32.851  17.303   9.052  0.00  0.00    -0.344 N 
ATOM     10  HN  UNK N   1      33.016  17.929   9.841  1.00  0.00     0.167 HD
HETATM   11  H   UNK N   1      33.602  15.077   6.866  0.00  0.00     0.167 HD
ENDROOT
BRANCH   7  12
HETATM   12  C   UNK N   1      35.153  16.272   8.932  0.00  0.00     0.152 C 
BRANCH  12  13
HETATM   13  C   UNK N   1      35.313  15.421  10.169  0.00  0.00     0.089 A 
HETATM   14  N   UNK N   1      34.762  14.188  10.324  0.00  0.00    -0.344 N 
HETATM   15  C   UNK N   1      35.084  13.839  11.572  0.00  0.00     0.060 A 
HETATM   16  H   UNK N   1      34.242  13.672   9.667  0.00  0.00     0.167 HD
HETATM   17  C   UNK N   1      34.741  12.673  12.244  0.00  0.00     0.032 A 
HETATM   18  C   UNK N   1      35.814  14.829  12.148  0.00  0.00     0.060 A 
HETATM   19  C   UNK N   1      35.183  12.540  13.573  0.00  0.00     0.002 A 
HETATM   20  C   UNK N   1      35.944  13.569  14.179  0.00  0.00     0.002 A 
HETATM   21  C   UNK N   1      36.269  14.738  13.460  0.00  0.00     0.032 A 
HETATM   22  N   UNK N   1      35.974  15.842  11.279  0.00  0.00    -0.344 N 
ATOM     23  HN  UNK N   1      36.475  16.719  11.420  1.00  0.00     0.167 HD
ENDBRANCH  12  13
ENDBRANCH   7  12
BRANCH   1  24
HETATM   24  C   UNK N   1      28.164  18.181   7.830  0.00  0.00     0.102 C 
HETATM   25  N   UNK N   1      27.429  18.432   6.807  0.00  0.00    -0.385 N 
HETATM   26  H   UNK N   1      26.579  18.917   6.919  0.00  0.00     0.157 HD
ATOM     27  HN  UNK N   1      27.727  18.130   5.880  1.00  0.00     0.157 HD
BRANCH  24  28
HETATM   28  N   UNK N   1      27.717  18.564   9.114  0.00  0.00    -0.385 N 
HETATM   29  H   UNK N   1      28.370  18.768   9.823  0.00  0.00     0.157 HD
HETATM   30  H   UNK N   1      26.752  18.627   9.301  0.00  0.00     0.157 HD
ENDBRANCH  24  28
ENDBRANCH   1  24
TORSDOF 4
ENDMDL
MODEL 8
REMARK VINA RESULT:      -6.7      9.192     10.877
REMARK  4 active torsions:
REMARK  status: ('A' for Active; 'I' for Inactive)
REMARK    1  A    between atoms: C_1  and  C_7 
REMARK    2  A    between atoms: C_7  and  N_10 
REMARK    3  A    between atoms: C_8  and  C_9 
REMARK    4  A    between atoms: C_9  and  C_22 
ROOT
HETATM    1  C   UNK N   1      22.976  13.102   9.760  0.00  0.00     0.009 A 
HETATM    2  C   UNK N   1      21.668  13.650   9.864  0.00  0.00     0.017 A 
HETATM    3  C   UNK N   1      21.172  14.529   8.874  0.00  0.00     0.033 A 
HETATM    4  C   UNK N   1      22.014  14.829   7.806  0.00  0.00     0.060 A 
HETATM    5  C   UNK N   1      23.262  14.306   7.716  0.00  0.00     0.061 A 
HETATM    6  C   UNK N   1      23.787  13.443   8.660  0.00  0.00     0.047 A 
HETATM    7  C   UNK N   1      22.934  15.559   6.033  0.00  0.00     0.089 A 
HETATM    8  N   UNK N   1      21.779  15.627   6.750  0.00  0.00    -0.344 N 
HETATM    9  N   UNK N   1      23.858  14.753   6.612  0.00  0.00    -0.344 N 
ATOM     10  HN  UNK N   1      24.798  14.540   6.278  1.00  0.00     0.167 HD
HETATM   11  H   UNK N   1      20.965  16.141   6.544  0.00  0.00     0.167 HD
ENDROOT
BRANCH   7  12
HETATM   12  C   UNK N   1      23.171  16.321   4.754  0.00  0.00     0.152 C 
BRANCH  12  13
HETATM   13  C   UNK N   1      24.341  17.274   4.816  0.00  0.00     0.089 A 
HETATM   14  N   UNK N   1      24.259  18.554   5.266  0.00  0.00    -0.344 N 
HETATM   15  C   UNK N   1      25.485  19.049   5.074  0.00  0.00     0.060 A 
HETATM   16  H   UNK N   1      23.475  19.012   5.646  0.00  0.00     0.167 HD
HETATM   17  C   UNK N   1      25.934  20.334   5.345  0.00  0.00     0.032 A 
HETATM   18  C   UNK N   1      26.282  18.092   4.531  0.00  0.00     0.060 A 
HETATM   19  C   UNK N   1      27.274  20.629   5.033  0.00  0.00     0.002 A 
HETATM   20  C   UNK N   1      28.110  19.635   4.466  0.00  0.00     0.002 A 
HETATM   21  C   UNK N   1      27.612  18.342   4.208  0.00  0.00     0.032 A 
HETATM   22  N   UNK N   1      25.581  16.959   4.359  0.00  0.00    -0.344 N 
ATOM     23  HN  UNK N   1      25.905  16.070   3.976  1.00  0.00     0.167 HD
ENDBRANCH  12  13
ENDBRANCH   7  12
BRANCH   1  24
HETATM   24  C   UNK N   1      23.493  12.178  10.791  0.00  0.00     0.102 C 
HETATM   25  N   UNK N   1      22.728  11.281  11.300  0.00  0.00    -0.385 N 
HETATM   26  H   UNK N   1      23.066  10.692  12.013  0.00  0.00     0.157 HD
ATOM     27  HN  UNK N   1      21.770  11.179  10.966  1.00  0.00     0.157 HD
BRANCH  24  28
HETATM   28  N   UNK N   1      24.831  12.277  11.231  0.00  0.00    -0.385 N 
HETATM   29  H   UNK N   1      25.403  11.474  11.258  0.00  0.00     0.157 HD
HETATM   30  H   UNK N   1      25.195  13.148  11.511  0.00  0.00     0.157 HD
ENDBRANCH  24  28
ENDBRANCH   1  24
TORSDOF 4
ENDMDL
MODEL 9
REMARK VINA RESULT:      -6.7      5.767      9.278
REMARK  4 active torsions:
REMARK  status: ('A' for Active; 'I' for Inactive)
REMARK    1  A    between atoms: C_1  and  C_7 
REMARK    2  A    between atoms: C_7  and  N_10 
REMARK    3  A    between atoms: C_8  and  C_9 
REMARK    4  A    between atoms: C_9  and  C_22 
ROOT
HETATM    1  C   UNK N   1      29.944  17.323   6.646  0.00  0.00     0.009 A 
HETATM    2  C   UNK N   1      29.261  17.967   7.715  0.00  0.00     0.017 A 
HETATM    3  C   UNK N   1      28.198  18.861   7.458  0.00  0.00     0.033 A 
HETATM    4  C   UNK N   1      27.854  19.080   6.126  0.00  0.00     0.060 A 
HETATM    5  C   UNK N   1      28.512  18.465   5.113  0.00  0.00     0.061 A 
HETATM    6  C   UNK N   1      29.557  17.583   5.318  0.00  0.00     0.047 A 
HETATM    7  C   UNK N   1      27.005  19.709   4.281  0.00  0.00     0.089 A 
HETATM    8  N   UNK N   1      26.891  19.875   5.627  0.00  0.00    -0.344 N 
HETATM    9  N   UNK N   1      27.997  18.849   3.945  0.00  0.00    -0.344 N 
ATOM     10  HN  UNK N   1      28.286  18.561   3.009  1.00  0.00     0.167 HD
HETATM   11  H   UNK N   1      26.255  20.443   6.118  0.00  0.00     0.167 HD
ENDROOT
BRANCH   7  12
HETATM   12  C   UNK N   1      26.145  20.429   3.274  0.00  0.00     0.152 C 
BRANCH  12  13
HETATM   13  C   UNK N   1      24.680  20.071   3.350  0.00  0.00     0.089 A 
HETATM   14  N   UNK N   1      24.203  18.912   3.876  0.00  0.00    -0.344 N 
HETATM   15  C   UNK N   1      22.885  18.975   3.670  0.00  0.00     0.060 A 
HETATM   16  H   UNK N   1      24.714  18.190   4.308  0.00  0.00     0.167 HD
HETATM   17  C   UNK N   1      21.928  18.025   3.999  0.00  0.00     0.032 A 
HETATM   18  C   UNK N   1      22.577  20.142   3.046  0.00  0.00     0.060 A 
HETATM   19  C   UNK N   1      20.592  18.310   3.658  0.00  0.00     0.002 A 
HETATM   20  C   UNK N   1      20.265  19.525   3.008  0.00  0.00     0.002 A 
HETATM   21  C   UNK N   1      21.270  20.462   2.693  0.00  0.00     0.032 A 
HETATM   22  N   UNK N   1      23.697  20.854   2.833  0.00  0.00    -0.344 N 
ATOM     23  HN  UNK N   1      23.786  21.768   2.390  1.00  0.00     0.167 HD
ENDBRANCH  12  13
ENDBRANCH   7  12
BRANCH   1  24
HETATM   24  C   UNK N   1      31.051  16.381   6.915  0.00  0.00     0.102 C 
HETATM   25  N   UNK N   1      30.997  15.175   6.479  0.00  0.00    -0.385 N 
HETATM   26  H   UNK N   1      31.720  14.541   6.692  0.00  0.00     0.157 HD
ATOM     27  HN  UNK N   1      30.205  14.873   5.912  1.00  0.00     0.157 HD
BRANCH  24  28
HETATM   28  N   UNK N   1      32.177  16.798   7.659  0.00  0.00    -0.385 N 
HETATM   29  H   UNK N   1      32.096  16.960   8.628  0.00  0.00     0.157 HD
HETATM   30  H   UNK N   1      33.044  16.929   7.210  0.00  0.00     0.157 HD
ENDBRANCH  24  28
ENDBRANCH   1  24
TORSDOF 4
ENDMDL
