REMARK  4 active torsions:
REMARK  status: ('A' for Active; 'I' for Inactive)
REMARK    1  A    between atoms: C_1  and  C_7 
REMARK    2  A    between atoms: C_7  and  N_10 
REMARK    3  A    between atoms: C_8  and  C_9 
REMARK    4  A    between atoms: C_9  and  C_22 
ROOT
HETATM    1  C   UNK N   1      -1.596  -2.870   0.072  0.00  0.00     0.009 A 
HETATM    2  C   UNK N   1      -2.842  -2.185   0.037  0.00  0.00     0.017 A 
HETATM    3  C   UNK N   1      -2.889  -0.775  -0.046  0.00  0.00     0.033 A 
HETATM    4  C   UNK N   1      -1.674  -0.096  -0.091  0.00  0.00     0.060 A 
HETATM    5  C   UNK N   1      -0.490  -0.756  -0.053  0.00  0.00     0.061 A 
HETATM    6  C   UNK N   1      -0.397  -2.133   0.027  0.00  0.00     0.047 A 
HETATM    7  C   UNK N   1      -0.097   1.327  -0.176  0.00  0.00     0.089 A 
HETATM    8  N   UNK N   1      -1.454   1.228  -0.170  0.00  0.00    -0.344 N 
HETATM    9  N   UNK N   1       0.514   0.119  -0.102  0.00  0.00    -0.344 N 
ATOM     10  HN  UNK N   1       1.515  -0.076  -0.086  1.00  0.00     0.167 HD
HETATM   11  H   UNK N   1      -2.117   1.954  -0.213  0.00  0.00     0.167 HD
ENDROOT
BRANCH   7  12
HETATM   12  C   UNK N   1       0.646   2.638  -0.225  0.00  0.00     0.152 C 
BRANCH  12  13
HETATM   13  C   UNK N   1       2.147   2.497  -0.137  0.00  0.00     0.089 A 
HETATM   14  N   UNK N   1       2.818   1.334  -0.346  0.00  0.00    -0.344 N 
HETATM   15  C   UNK N   1       4.093   1.640  -0.093  0.00  0.00     0.060 A 
HETATM   16  H   UNK N   1       2.448   0.464  -0.620  0.00  0.00     0.167 HD
HETATM   17  C   UNK N   1       5.194   0.795  -0.135  0.00  0.00     0.032 A 
HETATM   18  C   UNK N   1       4.187   2.951   0.251  0.00  0.00     0.060 A 
HETATM   19  C   UNK N   1       6.445   1.348   0.197  0.00  0.00     0.002 A 
HETATM   20  C   UNK N   1       6.549   2.714   0.556  0.00  0.00     0.002 A 
HETATM   21  C   UNK N   1       5.404   3.536   0.586  0.00  0.00     0.032 A 
HETATM   22  N   UNK N   1       2.968   3.516   0.229  0.00  0.00    -0.344 N 
ATOM     23  HN  UNK N   1       2.719   4.483   0.437  1.00  0.00     0.167 HD
ENDBRANCH  12  13
ENDBRANCH   7  12
BRANCH   1  24
HETATM   24  C   UNK N   1      -1.546  -4.345   0.151  0.00  0.00     0.102 C 
HETATM   25  N   UNK N   1      -0.417  -4.956   0.172  0.00  0.00    -0.385 N 
HETATM   26  H   UNK N   1      -0.390  -5.940   0.187  0.00  0.00     0.157 HD
ATOM     27  HN  UNK N   1       0.451  -4.421   0.172  1.00  0.00     0.157 HD
BRANCH  24  28
HETATM   28  N   UNK N   1      -2.741  -5.097   0.198  0.00  0.00    -0.385 N 
HETATM   29  H   UNK N   1      -3.612  -4.638   0.231  0.00  0.00     0.157 HD
HETATM   30  H   UNK N   1      -2.704  -6.081   0.198  0.00  0.00     0.157 HD
ENDBRANCH  24  28
ENDBRANCH   1  24
TORSDOF 4
