MODEL 1
REMARK VINA RESULT:      -5.7      0.000      0.000
REMARK  3 active torsions:
REMARK  status: ('A' for Active; 'I' for Inactive)
REMARK    1  A    between atoms: C_3  and  C_4 
REMARK    2  A    between atoms: C_4  and  C_5 
REMARK    3  A    between atoms: C_5  and  C_6 
ROOT
HETATM    1  N   UNK N   1      32.872  16.022   7.076  0.00  0.00    -0.339 N 
ATOM      2  HN  UNK N   1      32.185  15.484   6.549  1.00  0.00     0.167 HD
HETATM    3  C   UNK N   1      33.601  17.089   6.658  0.00  0.00     0.082 A 
HETATM    4  N   UNK N   1      34.430  17.572   7.619  0.00  0.00    -0.339 N 
HETATM    5  C   UNK N   1      34.197  16.763   8.668  0.00  0.00     0.136 A 
HETATM    6  C   UNK N   1      34.759  16.775   9.937  0.00  0.00     0.289 A 
HETATM    7  N   UNK N   1      34.336  15.819  10.839  0.00  0.00    -0.262 N 
HETATM    8  N   UNK N   1      33.411  14.904  10.505  0.00  0.00    -0.262 N 
HETATM    9  C   UNK N   1      32.847  14.884   9.247  0.00  0.00     0.289 A 
HETATM   10  O   UNK N   1      32.010  14.054   8.949  0.00  0.00    -0.264 OA
HETATM   11  C   UNK N   1      33.268  15.841   8.340  0.00  0.00     0.136 A 
HETATM   12  O   UNK N   1      35.598  17.599  10.252  0.00  0.00    -0.264 OA
HETATM   13  H   UNK N   1      35.054  18.332   7.562  0.00  0.00     0.167 HD
HETATM   14  H   UNK N   1      34.721  15.807  11.745  0.00  0.00     0.190 HD
HETATM   15  H   UNK N   1      33.130  14.235  11.171  0.00  0.00     0.190 HD
ENDROOT
BRANCH   3  16
HETATM   16  C   UNK N   1      33.493  17.665   5.281  0.00  0.00     0.076 C 
BRANCH  16  17
HETATM   17  C   UNK N   1      32.139  17.293   4.698  0.00  0.00     0.007 C 
BRANCH  17  18
HETATM   18  C   UNK N   1      32.191  17.083   3.207  0.00  0.00    -0.004 C 
HETATM   19  C   UNK N   1      33.274  16.063   2.925  0.00  0.00     0.005 C 
ENDBRANCH  17  18
ENDBRANCH  16  17
ENDBRANCH   3  16
TORSDOF 3
ENDMDL
MODEL 2
REMARK VINA RESULT:      -5.7      0.116      2.413
REMARK  3 active torsions:
REMARK  status: ('A' for Active; 'I' for Inactive)
REMARK    1  A    between atoms: C_3  and  C_4 
REMARK    2  A    between atoms: C_4  and  C_5 
REMARK    3  A    between atoms: C_5  and  C_6 
ROOT
HETATM    1  N   UNK N   1      34.431  17.485   7.585  0.00  0.00    -0.339 N 
ATOM      2  HN  UNK N   1      35.059  18.285   7.523  1.00  0.00     0.167 HD
HETATM    3  C   UNK N   1      33.639  16.964   6.612  0.00  0.00     0.082 A 
HETATM    4  N   UNK N   1      32.923  15.889   7.033  0.00  0.00    -0.339 N 
HETATM    5  C   UNK N   1      33.295  15.749   8.318  0.00  0.00     0.136 A 
HETATM    6  C   UNK N   1      32.890  14.814   9.260  0.00  0.00     0.289 A 
HETATM    7  N   UNK N   1      33.436  14.896  10.526  0.00  0.00    -0.262 N 
HETATM    8  N   UNK N   1      34.330  15.847  10.842  0.00  0.00    -0.262 N 
HETATM    9  C   UNK N   1      34.738  16.780   9.912  0.00  0.00     0.289 A 
HETATM   10  O   UNK N   1      35.547  17.640  10.203  0.00  0.00    -0.264 OA
HETATM   11  C   UNK N   1      34.194  16.703   8.642  0.00  0.00     0.136 A 
HETATM   12  O   UNK N   1      32.081  13.947   8.986  0.00  0.00    -0.264 OA
HETATM   13  H   UNK N   1      32.284  15.342   6.521  0.00  0.00     0.167 HD
HETATM   14  H   UNK N   1      33.164  14.244  11.211  0.00  0.00     0.190 HD
HETATM   15  H   UNK N   1      34.701  15.879  11.753  0.00  0.00     0.190 HD
ENDROOT
BRANCH   3  16
HETATM   16  C   UNK N   1      33.570  17.523   5.226  0.00  0.00     0.076 C 
BRANCH  16  17
HETATM   17  C   UNK N   1      32.132  17.446   4.737  0.00  0.00     0.007 C 
BRANCH  17  18
HETATM   18  C   UNK N   1      32.037  17.055   3.285  0.00  0.00    -0.004 C 
HETATM   19  C   UNK N   1      33.238  16.193   2.962  0.00  0.00     0.005 C 
ENDBRANCH  17  18
ENDBRANCH  16  17
ENDBRANCH   3  16
TORSDOF 3
ENDMDL
MODEL 3
REMARK VINA RESULT:      -5.5      2.586      5.802
REMARK  3 active torsions:
REMARK  status: ('A' for Active; 'I' for Inactive)
REMARK    1  A    between atoms: C_3  and  C_4 
REMARK    2  A    between atoms: C_4  and  C_5 
REMARK    3  A    between atoms: C_5  and  C_6 
ROOT
HETATM    1  N   UNK N   1      33.999  15.330  10.279  0.00  0.00    -0.339 N 
ATOM      2  HN  UNK N   1      33.533  14.448  10.493  1.00  0.00     0.167 HD
HETATM    3  C   UNK N   1      35.008  15.932  10.960  0.00  0.00     0.082 A 
HETATM    4  N   UNK N   1      35.398  17.106  10.399  0.00  0.00    -0.339 N 
HETATM    5  C   UNK N   1      34.591  17.223   9.329  0.00  0.00     0.136 A 
HETATM    6  C   UNK N   1      34.528  18.229   8.374  0.00  0.00     0.289 A 
HETATM    7  N   UNK N   1      33.594  18.103   7.366  0.00  0.00    -0.262 N 
HETATM    8  N   UNK N   1      32.769  17.045   7.305  0.00  0.00    -0.262 N 
HETATM    9  C   UNK N   1      32.824  16.041   8.249  0.00  0.00     0.289 A 
HETATM   10  O   UNK N   1      32.075  15.085   8.190  0.00  0.00    -0.264 OA
HETATM   11  C   UNK N   1      33.758  16.163   9.262  0.00  0.00     0.136 A 
HETATM   12  O   UNK N   1      35.270  19.193   8.418  0.00  0.00    -0.264 OA
HETATM   13  H   UNK N   1      36.103  17.723  10.702  0.00  0.00     0.167 HD
HETATM   14  H   UNK N   1      33.530  18.803   6.676  0.00  0.00     0.190 HD
HETATM   15  H   UNK N   1      32.113  16.983   6.573  0.00  0.00     0.190 HD
ENDROOT
BRANCH   3  16
HETATM   16  C   UNK N   1      35.619  15.354  12.198  0.00  0.00     0.076 C 
BRANCH  16  17
HETATM   17  C   UNK N   1      35.903  13.879  11.963  0.00  0.00     0.007 C 
BRANCH  17  18
HETATM   18  C   UNK N   1      36.536  13.216  13.158  0.00  0.00    -0.004 C 
HETATM   19  C   UNK N   1      36.506  14.206  14.302  0.00  0.00     0.005 C 
ENDBRANCH  17  18
ENDBRANCH  16  17
ENDBRANCH   3  16
TORSDOF 3
ENDMDL
MODEL 4
REMARK VINA RESULT:      -5.5     11.211     13.189
REMARK  3 active torsions:
REMARK  status: ('A' for Active; 'I' for Inactive)
REMARK    1  A    between atoms: C_3  and  C_4 
REMARK    2  A    between atoms: C_4  and  C_5 
REMARK    3  A    between atoms: C_5  and  C_6 
ROOT
HETATM    1  N   UNK N   1      22.893  20.057   3.073  0.00  0.00    -0.339 N 
ATOM      2  HN  UNK N   1      23.359  20.897   2.730  1.00  0.00     0.167 HD
HETATM    3  C   UNK N   1      23.403  19.080   3.867  0.00  0.00     0.082 A 
HETATM    4  N   UNK N   1      22.506  18.096   4.136  0.00  0.00    -0.339 N 
HETATM    5  C   UNK N   1      21.402  18.491   3.477  0.00  0.00     0.136 A 
HETATM    6  C   UNK N   1      20.159  17.879   3.386  0.00  0.00     0.289 A 
HETATM    7  N   UNK N   1      19.186  18.506   2.633  0.00  0.00    -0.262 N 
HETATM    8  N   UNK N   1      19.428  19.669   2.006  0.00  0.00    -0.262 N 
HETATM    9  C   UNK N   1      20.659  20.283   2.091  0.00  0.00     0.289 A 
HETATM   10  O   UNK N   1      20.873  21.337   1.522  0.00  0.00    -0.264 OA
HETATM   11  C   UNK N   1      21.638  19.660   2.844  0.00  0.00     0.136 A 
HETATM   12  O   UNK N   1      19.928  16.825   3.949  0.00  0.00    -0.264 OA
HETATM   13  H   UNK N   1      22.633  17.287   4.683  0.00  0.00     0.167 HD
HETATM   14  H   UNK N   1      18.297  18.091   2.553  0.00  0.00     0.190 HD
HETATM   15  H   UNK N   1      18.713  20.091   1.477  0.00  0.00     0.190 HD
ENDROOT
BRANCH   3  16
HETATM   16  C   UNK N   1      24.806  19.096   4.386  0.00  0.00     0.076 C 
BRANCH  16  17
HETATM   17  C   UNK N   1      25.659  19.958   3.469  0.00  0.00     0.007 C 
BRANCH  17  18
HETATM   18  C   UNK N   1      27.055  20.157   3.998  0.00  0.00    -0.004 C 
HETATM   19  C   UNK N   1      26.946  20.890   5.319  0.00  0.00     0.005 C 
ENDBRANCH  17  18
ENDBRANCH  16  17
ENDBRANCH   3  16
TORSDOF 3
ENDMDL
MODEL 5
REMARK VINA RESULT:      -5.5     11.204     13.054
REMARK  3 active torsions:
REMARK  status: ('A' for Active; 'I' for Inactive)
REMARK    1  A    between atoms: C_3  and  C_4 
REMARK    2  A    between atoms: C_4  and  C_5 
REMARK    3  A    between atoms: C_5  and  C_6 
ROOT
HETATM    1  N   UNK N   1      22.530  18.119   4.083  0.00  0.00    -0.339 N 
ATOM      2  HN  UNK N   1      22.664  17.276   4.641  1.00  0.00     0.167 HD
HETATM    3  C   UNK N   1      23.428  19.103   3.821  0.00  0.00     0.082 A 
HETATM    4  N   UNK N   1      22.918  20.089   3.039  0.00  0.00    -0.339 N 
HETATM    5  C   UNK N   1      21.654  19.688   2.815  0.00  0.00     0.136 A 
HETATM    6  C   UNK N   1      20.648  20.299   2.078  0.00  0.00     0.289 A 
HETATM    7  N   UNK N   1      19.424  19.665   2.009  0.00  0.00    -0.262 N 
HETATM    8  N   UNK N   1      19.205  18.496   2.633  0.00  0.00    -0.262 N 
HETATM    9  C   UNK N   1      20.197  17.883   3.368  0.00  0.00     0.289 A 
HETATM   10  O   UNK N   1      19.995  16.824   3.931  0.00  0.00    -0.264 OA
HETATM   11  C   UNK N   1      21.427  18.513   3.440  0.00  0.00     0.136 A 
HETATM   12  O   UNK N   1      20.834  21.358   1.507  0.00  0.00    -0.264 OA
HETATM   13  H   UNK N   1      23.366  20.904   2.712  0.00  0.00     0.167 HD
HETATM   14  H   UNK N   1      18.695  20.079   1.492  0.00  0.00     0.190 HD
HETATM   15  H   UNK N   1      18.321  18.069   2.565  0.00  0.00     0.190 HD
ENDROOT
BRANCH   3  16
HETATM   16  C   UNK N   1      24.830  19.092   4.343  0.00  0.00     0.076 C 
BRANCH  16  17
HETATM   17  C   UNK N   1      25.659  20.087   3.546  0.00  0.00     0.007 C 
BRANCH  17  18
HETATM   18  C   UNK N   1      27.074  20.195   4.051  0.00  0.00    -0.004 C 
HETATM   19  C   UNK N   1      27.038  20.958   5.358  0.00  0.00     0.005 C 
ENDBRANCH  17  18
ENDBRANCH  16  17
ENDBRANCH   3  16
TORSDOF 3
ENDMDL
MODEL 6
REMARK VINA RESULT:      -5.4      3.834      4.893
REMARK  3 active torsions:
REMARK  status: ('A' for Active; 'I' for Inactive)
REMARK    1  A    between atoms: C_3  and  C_4 
REMARK    2  A    between atoms: C_4  and  C_5 
REMARK    3  A    between atoms: C_5  and  C_6 
ROOT
HETATM    1  N   UNK N   1      31.463  17.755   8.612  0.00  0.00    -0.339 N 
ATOM      2  HN  UNK N   1      32.079  18.149   9.323  1.00  0.00     0.167 HD
HETATM    3  C   UNK N   1      31.806  17.075   7.488  0.00  0.00     0.082 A 
HETATM    4  N   UNK N   1      30.729  16.687   6.756  0.00  0.00    -0.339 N 
HETATM    5  C   UNK N   1      29.685  17.152   7.466  0.00  0.00     0.136 A 
HETATM    6  C   UNK N   1      28.325  17.056   7.205  0.00  0.00     0.289 A 
HETATM    7  N   UNK N   1      27.454  17.628   8.110  0.00  0.00    -0.262 N 
HETATM    8  N   UNK N   1      27.900  18.259   9.208  0.00  0.00    -0.262 N 
HETATM    9  C   UNK N   1      29.249  18.359   9.475  0.00  0.00     0.289 A 
HETATM   10  O   UNK N   1      29.649  18.932  10.470  0.00  0.00    -0.264 OA
HETATM   11  C   UNK N   1      30.127  17.788   8.571  0.00  0.00     0.136 A 
HETATM   12  O   UNK N   1      27.907  16.486   6.214  0.00  0.00    -0.264 OA
HETATM   13  H   UNK N   1      30.715  16.186   5.908  0.00  0.00     0.167 HD
HETATM   14  H   UNK N   1      26.484  17.573   7.947  0.00  0.00     0.190 HD
HETATM   15  H   UNK N   1      27.253  18.657   9.835  0.00  0.00     0.190 HD
ENDROOT
BRANCH   3  16
HETATM   16  C   UNK N   1      33.223  16.788   7.105  0.00  0.00     0.076 C 
BRANCH  16  17
HETATM   17  C   UNK N   1      33.521  17.470   5.779  0.00  0.00     0.007 C 
BRANCH  17  18
HETATM   18  C   UNK N   1      33.485  16.512   4.617  0.00  0.00    -0.004 C 
HETATM   19  C   UNK N   1      32.642  17.141   3.529  0.00  0.00     0.005 C 
ENDBRANCH  17  18
ENDBRANCH  16  17
ENDBRANCH   3  16
TORSDOF 3
ENDMDL
MODEL 7
REMARK VINA RESULT:      -5.4      3.861      4.525
REMARK  3 active torsions:
REMARK  status: ('A' for Active; 'I' for Inactive)
REMARK    1  A    between atoms: C_3  and  C_4 
REMARK    2  A    between atoms: C_4  and  C_5 
REMARK    3  A    between atoms: C_5  and  C_6 
ROOT
HETATM    1  N   UNK N   1      30.779  17.040   6.598  0.00  0.00    -0.339 N 
ATOM      2  HN  UNK N   1      30.780  16.657   5.653  1.00  0.00     0.167 HD
HETATM    3  C   UNK N   1      31.836  17.218   7.432  0.00  0.00     0.082 A 
HETATM    4  N   UNK N   1      31.482  17.756   8.628  0.00  0.00    -0.339 N 
HETATM    5  C   UNK N   1      30.150  17.913   8.517  0.00  0.00     0.136 A 
HETATM    6  C   UNK N   1      29.240  18.422   9.433  0.00  0.00     0.289 A 
HETATM    7  N   UNK N   1      27.911  18.473   9.061  0.00  0.00    -0.262 N 
HETATM    8  N   UNK N   1      27.506  18.045   7.854  0.00  0.00    -0.262 N 
HETATM    9  C   UNK N   1      28.403  17.538   6.938  0.00  0.00     0.289 A 
HETATM   10  O   UNK N   1      28.032  17.152   5.846  0.00  0.00    -0.264 OA
HETATM   11  C   UNK N   1      29.736  17.485   7.305  0.00  0.00     0.136 A 
HETATM   12  O   UNK N   1      29.594  18.813  10.530  0.00  0.00    -0.264 OA
HETATM   13  H   UNK N   1      32.060  17.979   9.394  0.00  0.00     0.167 HD
HETATM   14  H   UNK N   1      27.247  18.830   9.693  0.00  0.00     0.190 HD
HETATM   15  H   UNK N   1      26.551  18.095   7.618  0.00  0.00     0.190 HD
ENDROOT
BRANCH   3  16
HETATM   16  C   UNK N   1      33.240  16.855   7.063  0.00  0.00     0.076 C 
BRANCH  16  17
HETATM   17  C   UNK N   1      33.560  17.453   5.703  0.00  0.00     0.007 C 
BRANCH  17  18
HETATM   18  C   UNK N   1      33.574  16.420   4.607  0.00  0.00    -0.004 C 
HETATM   19  C   UNK N   1      32.757  16.963   3.454  0.00  0.00     0.005 C 
ENDBRANCH  17  18
ENDBRANCH  16  17
ENDBRANCH   3  16
TORSDOF 3
ENDMDL
MODEL 8
REMARK VINA RESULT:      -5.4      4.698      5.477
REMARK  3 active torsions:
REMARK  status: ('A' for Active; 'I' for Inactive)
REMARK    1  A    between atoms: C_3  and  C_4 
REMARK    2  A    between atoms: C_4  and  C_5 
REMARK    3  A    between atoms: C_5  and  C_6 
ROOT
HETATM    1  N   UNK N   1      27.736  17.958   6.964  0.00  0.00    -0.339 N 
ATOM      2  HN  UNK N   1      26.757  18.127   7.196  1.00  0.00     0.167 HD
HETATM    3  C   UNK N   1      28.333  18.030   5.747  0.00  0.00     0.082 A 
HETATM    4  N   UNK N   1      29.660  17.742   5.791  0.00  0.00    -0.339 N 
HETATM    5  C   UNK N   1      29.880  17.484   7.093  0.00  0.00     0.136 A 
HETATM    6  C   UNK N   1      31.057  17.131   7.739  0.00  0.00     0.289 A 
HETATM    7  N   UNK N   1      31.005  16.920   9.103  0.00  0.00    -0.262 N 
HETATM    8  N   UNK N   1      29.857  17.051   9.788  0.00  0.00    -0.262 N 
HETATM    9  C   UNK N   1      28.684  17.401   9.155  0.00  0.00     0.289 A 
HETATM   10  O   UNK N   1      27.647  17.519   9.779  0.00  0.00    -0.264 OA
HETATM   11  C   UNK N   1      28.730  17.614   7.788  0.00  0.00     0.136 A 
HETATM   12  O   UNK N   1      32.103  17.009   7.130  0.00  0.00    -0.264 OA
HETATM   13  H   UNK N   1      30.308  17.726   5.049  0.00  0.00     0.167 HD
HETATM   14  H   UNK N   1      31.827  16.668   9.583  0.00  0.00     0.190 HD
HETATM   15  H   UNK N   1      29.853  16.894  10.760  0.00  0.00     0.190 HD
ENDROOT
BRANCH   3  16
HETATM   16  C   UNK N   1      27.599  18.389   4.494  0.00  0.00     0.076 C 
BRANCH  16  17
HETATM   17  C   UNK N   1      27.652  19.897   4.308  0.00  0.00     0.007 C 
BRANCH  17  18
HETATM   18  C   UNK N   1      26.487  20.600   4.953  0.00  0.00    -0.004 C 
HETATM   19  C   UNK N   1      27.039  21.506   6.034  0.00  0.00     0.005 C 
ENDBRANCH  17  18
ENDBRANCH  16  17
ENDBRANCH   3  16
TORSDOF 3
ENDMDL
MODEL 9
REMARK VINA RESULT:      -5.4      5.017      8.536
REMARK  3 active torsions:
REMARK  status: ('A' for Active; 'I' for Inactive)
REMARK    1  A    between atoms: C_3  and  C_4 
REMARK    2  A    between atoms: C_4  and  C_5 
REMARK    3  A    between atoms: C_5  and  C_6 
ROOT
HETATM    1  N   UNK N   1      36.377  14.921  13.170  0.00  0.00    -0.339 N 
ATOM      2  HN  UNK N   1      36.813  15.789  13.480  1.00  0.00     0.167 HD
HETATM    3  C   UNK N   1      36.047  13.836  13.917  0.00  0.00     0.082 A 
HETATM    4  N   UNK N   1      35.477  12.843  13.184  0.00  0.00    -0.339 N 
HETATM    5  C   UNK N   1      35.459  13.347  11.937  0.00  0.00     0.136 A 
HETATM    6  C   UNK N   1      34.989  12.780  10.760  0.00  0.00     0.289 A 
HETATM    7  N   UNK N   1      35.091  13.523   9.601  0.00  0.00    -0.262 N 
HETATM    8  N   UNK N   1      35.627  14.755   9.605  0.00  0.00    -0.262 N 
HETATM    9  C   UNK N   1      36.096  15.326  10.769  0.00  0.00     0.289 A 
HETATM   10  O   UNK N   1      36.580  16.441  10.768  0.00  0.00    -0.264 OA
HETATM   11  C   UNK N   1      35.996  14.586  11.934  0.00  0.00     0.136 A 
HETATM   12  O   UNK N   1      34.502  11.665  10.744  0.00  0.00    -0.264 OA
HETATM   13  H   UNK N   1      35.154  11.965  13.492  0.00  0.00     0.167 HD
HETATM   14  H   UNK N   1      34.765  13.142   8.754  0.00  0.00     0.190 HD
HETATM   15  H   UNK N   1      35.686  15.260   8.762  0.00  0.00     0.190 HD
ENDROOT
BRANCH   3  16
HETATM   16  C   UNK N   1      36.291  13.751  15.391  0.00  0.00     0.076 C 
BRANCH  16  17
HETATM   17  C   UNK N   1      35.105  13.060  16.045  0.00  0.00     0.007 C 
BRANCH  17  18
HETATM   18  C   UNK N   1      35.122  13.184  17.546  0.00  0.00    -0.004 C 
HETATM   19  C   UNK N   1      35.302  11.794  18.120  0.00  0.00     0.005 C 
ENDBRANCH  17  18
ENDBRANCH  16  17
ENDBRANCH   3  16
TORSDOF 3
ENDMDL
