REMARK  3 active torsions:
REMARK  status: ('A' for Active; 'I' for Inactive)
REMARK    1  A    between atoms: C_3  and  C_4 
REMARK    2  A    between atoms: C_4  and  C_5 
REMARK    3  A    between atoms: C_5  and  C_6 
ROOT
HETATM    1  N   UNK N   1       0.243  -0.751   0.000  0.00  0.00    -0.339 N 
ATOM      2  HN  UNK N   1      -0.065  -1.723   0.000  1.00  0.00     0.167 HD
HETATM    3  C   UNK N   1      -0.522   0.371   0.000  0.00  0.00     0.082 A 
HETATM    4  N   UNK N   1       0.214   1.513   0.000  0.00  0.00    -0.339 N 
HETATM    5  C   UNK N   1       1.483   1.066   0.000  0.00  0.00     0.136 A 
HETATM    6  C   UNK N   1       2.673   1.781  -0.000  0.00  0.00     0.289 A 
HETATM    7  N   UNK N   1       3.854   1.066  -0.000  0.00  0.00    -0.262 N 
HETATM    8  N   UNK N   1       3.859  -0.277  -0.000  0.00  0.00    -0.262 N 
HETATM    9  C   UNK N   1       2.682  -0.995  -0.000  0.00  0.00     0.289 A 
HETATM   10  O   UNK N   1       2.691  -2.211   0.000  0.00  0.00    -0.264 OA
HETATM   11  C   UNK N   1       1.495  -0.284   0.000  0.00  0.00     0.136 A 
HETATM   12  O   UNK N   1       2.682   2.998  -0.000  0.00  0.00    -0.264 OA
HETATM   13  H   UNK N   1      -0.104   2.445   0.000  0.00  0.00     0.167 HD
HETATM   14  H   UNK N   1       4.711   1.551  -0.000  0.00  0.00     0.190 HD
HETATM   15  H   UNK N   1       4.718  -0.758  -0.000  0.00  0.00     0.190 HD
ENDROOT
BRANCH   3  16
HETATM   16  C   UNK N   1      -2.018   0.342   0.000  0.00  0.00     0.076 C 
BRANCH  16  17
HETATM   17  C   UNK N   1      -2.481  -1.106  -0.000  0.00  0.00     0.007 C 
BRANCH  17  18
HETATM   18  C   UNK N   1      -3.982  -1.232   0.000  0.00  0.00    -0.004 C 
HETATM   19  C   UNK N   1      -4.319  -2.708   0.000  0.00  0.00     0.005 C 
ENDBRANCH  17  18
ENDBRANCH  16  17
ENDBRANCH   3  16
TORSDOF 3
