MODEL 1
REMARK VINA RESULT:      -7.7      0.000      0.000
REMARK  9 active torsions:
REMARK  status: ('A' for Active; 'I' for Inactive)
REMARK    1  A    between atoms: C_1  and  C_2 
REMARK    2  A    between atoms: C_1  and  C_5 
REMARK    3  A    between atoms: C_1  and  C_15 
REMARK    4  A    between atoms: C_2  and  O_4 
REMARK    5  A    between atoms: C_5  and  C_6 
REMARK    6  A    between atoms: C_15  and  C_16 
REMARK    7  A    between atoms: C_15  and  C_19 
REMARK    8  A    between atoms: C_16  and  O_18 
REMARK    9  A    between atoms: C_19  and  C_20 
ROOT
HETATM    1  C   UNK N   1      33.662  16.767   8.012  0.00  0.00     0.102 C 
ENDROOT
BRANCH   1   2
HETATM    2  C   UNK N   1      34.520  17.521   9.036  0.00  0.00     0.145 C 
HETATM    3  O   UNK N   1      35.104  18.539   8.698  0.00  0.00    -0.650 OA
BRANCH   2   4
HETATM    4  O   UNK N   1      34.660  17.090  10.303  0.00  0.00    -0.776 OA
HETATM    5  H   UNK N   1      35.223  17.404  10.983  0.00  0.00     0.167 HD
ENDBRANCH   2   4
ENDBRANCH   1   2
BRANCH   1   6
HETATM    6  C   UNK N   1      33.334  17.498   6.681  0.00  0.00     0.054 C 
BRANCH   6   7
HETATM    7  C   UNK N   1      33.423  16.735   5.398  0.00  0.00    -0.054 A 
HETATM    8  C   UNK N   1      32.811  17.291   4.250  0.00  0.00     0.010 A 
HETATM    9  C   UNK N   1      32.906  16.644   3.007  0.00  0.00     0.040 A 
HETATM   10  C   UNK N   1      33.625  15.456   2.957  0.00  0.00     0.105 A 
HETATM   11  O   UNK N   1      33.866  14.683   1.901  0.00  0.00    -0.323 OA
HETATM   12  C   UNK N   1      34.202  14.919   4.041  0.00  0.00     0.105 A 
HETATM   13  C   UNK N   1      34.640  13.595   2.317  0.00  0.00     0.352 A 
HETATM   14  O   UNK N   1      34.823  13.793   3.691  0.00  0.00    -0.323 OA
HETATM   15  C   UNK N   1      34.129  15.515   5.300  0.00  0.00     0.047 A 
ENDBRANCH   6   7
ENDBRANCH   1   6
BRANCH   1  16
HETATM   16  C   UNK N   1      32.308  16.318   8.649  0.00  0.00     0.102 C 
BRANCH  16  17
HETATM   17  C   UNK N   1      32.464  15.006   9.426  0.00  0.00     0.145 C 
HETATM   18  O   UNK N   1      32.334  13.933   8.862  0.00  0.00    -0.650 OA
BRANCH  17  19
HETATM   19  O   UNK N   1      32.717  15.012  10.750  0.00  0.00    -0.776 OA
HETATM   20  H   UNK N   1      32.882  14.278  11.309  0.00  0.00     0.167 HD
ENDBRANCH  17  19
ENDBRANCH  16  17
BRANCH  16  21
HETATM   21  C   UNK N   1      31.230  16.210   7.547  0.00  0.00     0.054 C 
BRANCH  21  22
HETATM   22  C   UNK N   1      30.118  17.227   7.518  0.00  0.00    -0.054 A 
HETATM   23  C   UNK N   1      29.694  17.789   8.746  0.00  0.00     0.010 A 
HETATM   24  C   UNK N   1      28.673  18.757   8.775  0.00  0.00     0.040 A 
HETATM   25  C   UNK N   1      28.109  19.135   7.559  0.00  0.00     0.105 A 
HETATM   26  O   UNK N   1      27.152  20.031   7.334  0.00  0.00    -0.323 OA
HETATM   27  C   UNK N   1      28.499  18.602   6.396  0.00  0.00     0.105 A 
HETATM   28  C   UNK N   1      26.913  20.086   5.956  0.00  0.00     0.352 A 
HETATM   29  O   UNK N   1      27.798  19.152   5.406  0.00  0.00    -0.323 OA
HETATM   30  C   UNK N   1      29.495  17.636   6.317  0.00  0.00     0.047 A 
ENDBRANCH  21  22
ENDBRANCH  16  21
ENDBRANCH   1  16
TORSDOF 9
ENDMDL
MODEL 2
REMARK VINA RESULT:      -7.4      1.719      6.124
REMARK  9 active torsions:
REMARK  status: ('A' for Active; 'I' for Inactive)
REMARK    1  A    between atoms: C_1  and  C_2 
REMARK    2  A    between atoms: C_1  and  C_5 
REMARK    3  A    between atoms: C_1  and  C_15 
REMARK    4  A    between atoms: C_2  and  O_4 
REMARK    5  A    between atoms: C_5  and  C_6 
REMARK    6  A    between atoms: C_15  and  C_16 
REMARK    7  A    between atoms: C_15  and  C_19 
REMARK    8  A    between atoms: C_16  and  O_18 
REMARK    9  A    between atoms: C_19  and  C_20 
ROOT
HETATM    1  C   UNK N   1      29.169  17.473   7.788  0.00  0.00     0.102 C 
ENDROOT
BRANCH   1   2
HETATM    2  C   UNK N   1      27.825  17.365   8.519  0.00  0.00     0.145 C 
HETATM    3  O   UNK N   1      27.073  16.438   8.261  0.00  0.00    -0.650 OA
BRANCH   2   4
HETATM    4  O   UNK N   1      27.438  18.270   9.437  0.00  0.00    -0.776 OA
HETATM    5  H   UNK N   1      26.608  18.376   9.859  0.00  0.00     0.167 HD
ENDBRANCH   2   4
ENDBRANCH   1   2
BRANCH   1   6
HETATM    6  C   UNK N   1      30.348  18.129   8.558  0.00  0.00     0.054 C 
BRANCH   6   7
HETATM    7  C   UNK N   1      31.695  17.483   8.502  0.00  0.00    -0.054 A 
HETATM    8  C   UNK N   1      32.818  18.307   8.253  0.00  0.00     0.010 A 
HETATM    9  C   UNK N   1      34.113  17.763   8.240  0.00  0.00     0.040 A 
HETATM   10  C   UNK N   1      34.238  16.401   8.487  0.00  0.00     0.105 A 
HETATM   11  O   UNK N   1      35.350  15.673   8.544  0.00  0.00    -0.323 OA
HETATM   12  C   UNK N   1      33.179  15.612   8.717  0.00  0.00     0.105 A 
HETATM   13  C   UNK N   1      34.998  14.350   8.829  0.00  0.00     0.352 A 
HETATM   14  O   UNK N   1      33.601  14.366   8.926  0.00  0.00    -0.323 OA
HETATM   15  C   UNK N   1      31.872  16.100   8.730  0.00  0.00     0.047 A 
ENDBRANCH   6   7
ENDBRANCH   1   6
BRANCH   1  16
HETATM   16  C   UNK N   1      29.004  18.240   6.437  0.00  0.00     0.102 C 
BRANCH  16  17
HETATM   17  C   UNK N   1      27.611  18.870   6.319  0.00  0.00     0.145 C 
HETATM   18  O   UNK N   1      27.392  19.978   6.777  0.00  0.00    -0.650 OA
BRANCH  17  19
HETATM   19  O   UNK N   1      26.596  18.200   5.737  0.00  0.00    -0.776 OA
HETATM   20  H   UNK N   1      26.196  17.402   6.019  0.00  0.00     0.167 HD
ENDBRANCH  17  19
ENDBRANCH  16  17
BRANCH  16  21
HETATM   21  C   UNK N   1      29.306  17.285   5.261  0.00  0.00     0.054 C 
BRANCH  21  22
HETATM   22  C   UNK N   1      30.690  16.702   5.136  0.00  0.00    -0.054 A 
HETATM   23  C   UNK N   1      31.747  17.565   4.760  0.00  0.00     0.010 A 
HETATM   24  C   UNK N   1      33.063  17.077   4.647  0.00  0.00     0.040 A 
HETATM   25  C   UNK N   1      33.276  15.730   4.923  0.00  0.00     0.105 A 
HETATM   26  O   UNK N   1      34.420  15.052   4.899  0.00  0.00    -0.323 OA
HETATM   27  C   UNK N   1      32.281  14.908   5.271  0.00  0.00     0.105 A 
HETATM   28  C   UNK N   1      34.154  13.724   5.255  0.00  0.00     0.352 A 
HETATM   29  O   UNK N   1      32.774  13.688   5.479  0.00  0.00    -0.323 OA
HETATM   30  C   UNK N   1      30.965  15.338   5.385  0.00  0.00     0.047 A 
ENDBRANCH  21  22
ENDBRANCH  16  21
ENDBRANCH   1  16
TORSDOF 9
ENDMDL
MODEL 3
REMARK VINA RESULT:      -7.4      1.753      5.490
REMARK  9 active torsions:
REMARK  status: ('A' for Active; 'I' for Inactive)
REMARK    1  A    between atoms: C_1  and  C_2 
REMARK    2  A    between atoms: C_1  and  C_5 
REMARK    3  A    between atoms: C_1  and  C_15 
REMARK    4  A    between atoms: C_2  and  O_4 
REMARK    5  A    between atoms: C_5  and  C_6 
REMARK    6  A    between atoms: C_15  and  C_16 
REMARK    7  A    between atoms: C_15  and  C_19 
REMARK    8  A    between atoms: C_16  and  O_18 
REMARK    9  A    between atoms: C_19  and  C_20 
ROOT
HETATM    1  C   UNK N   1      29.033  17.927   6.232  0.00  0.00     0.102 C 
ENDROOT
BRANCH   1   2
HETATM    2  C   UNK N   1      27.615  18.480   6.038  0.00  0.00     0.145 C 
HETATM    3  O   UNK N   1      26.910  18.028   5.149  0.00  0.00    -0.650 OA
BRANCH   2   4
HETATM    4  O   UNK N   1      27.120  19.461   6.815  0.00  0.00    -0.776 OA
HETATM    5  H   UNK N   1      26.421  20.062   6.647  0.00  0.00     0.167 HD
ENDBRANCH   2   4
ENDBRANCH   1   2
BRANCH   1   6
HETATM    6  C   UNK N   1      29.558  16.923   5.169  0.00  0.00     0.054 C 
BRANCH   6   7
HETATM    7  C   UNK N   1      31.016  16.593   5.147  0.00  0.00    -0.054 A 
HETATM    8  C   UNK N   1      31.921  17.607   4.752  0.00  0.00     0.010 A 
HETATM    9  C   UNK N   1      33.305  17.369   4.761  0.00  0.00     0.040 A 
HETATM   10  C   UNK N   1      33.738  16.115   5.176  0.00  0.00     0.105 A 
HETATM   11  O   UNK N   1      34.987  15.669   5.285  0.00  0.00    -0.323 OA
HETATM   12  C   UNK N   1      32.887  15.147   5.544  0.00  0.00     0.105 A 
HETATM   13  C   UNK N   1      34.946  14.351   5.750  0.00  0.00     0.352 A 
HETATM   14  O   UNK N   1      33.582  14.067   5.896  0.00  0.00    -0.323 OA
HETATM   15  C   UNK N   1      31.503  15.328   5.543  0.00  0.00     0.047 A 
ENDBRANCH   6   7
ENDBRANCH   1   6
BRANCH   1  16
HETATM   16  C   UNK N   1      29.174  17.248   7.632  0.00  0.00     0.102 C 
BRANCH  16  17
HETATM   17  C   UNK N   1      27.825  17.175   8.356  0.00  0.00     0.145 C 
HETATM   18  O   UNK N   1      26.996  16.341   8.037  0.00  0.00    -0.650 OA
BRANCH  17  19
HETATM   19  O   UNK N   1      27.518  18.049   9.336  0.00  0.00    -0.776 OA
HETATM   20  H   UNK N   1      27.503  18.985   9.289  0.00  0.00     0.167 HD
ENDBRANCH  17  19
ENDBRANCH  16  17
BRANCH  16  21
HETATM   21  C   UNK N   1      30.236  18.000   8.466  0.00  0.00     0.054 C 
BRANCH  21  22
HETATM   22  C   UNK N   1      31.612  17.401   8.599  0.00  0.00    -0.054 A 
HETATM   23  C   UNK N   1      32.729  18.223   8.317  0.00  0.00     0.010 A 
HETATM   24  C   UNK N   1      34.038  17.720   8.444  0.00  0.00     0.040 A 
HETATM   25  C   UNK N   1      34.183  16.399   8.857  0.00  0.00     0.105 A 
HETATM   26  O   UNK N   1      35.305  15.715   9.061  0.00  0.00    -0.323 OA
HETATM   27  C   UNK N   1      33.132  15.615   9.118  0.00  0.00     0.105 A 
HETATM   28  C   UNK N   1      34.964  14.423   9.481  0.00  0.00     0.352 A 
HETATM   29  O   UNK N   1      33.566  14.413   9.497  0.00  0.00    -0.323 OA
HETATM   30  C   UNK N   1      31.822  16.061   8.997  0.00  0.00     0.047 A 
ENDBRANCH  21  22
ENDBRANCH  16  21
ENDBRANCH   1  16
TORSDOF 9
ENDMDL
MODEL 4
REMARK VINA RESULT:      -7.4     13.372     17.246
REMARK  9 active torsions:
REMARK  status: ('A' for Active; 'I' for Inactive)
REMARK    1  A    between atoms: C_1  and  C_2 
REMARK    2  A    between atoms: C_1  and  C_5 
REMARK    3  A    between atoms: C_1  and  C_15 
REMARK    4  A    between atoms: C_2  and  O_4 
REMARK    5  A    between atoms: C_5  and  C_6 
REMARK    6  A    between atoms: C_15  and  C_16 
REMARK    7  A    between atoms: C_15  and  C_19 
REMARK    8  A    between atoms: C_16  and  O_18 
REMARK    9  A    between atoms: C_19  and  C_20 
ROOT
HETATM    1  C   UNK N   1      25.723  24.905  -8.424  0.00  0.00     0.102 C 
ENDROOT
BRANCH   1   2
HETATM    2  C   UNK N   1      25.465  24.793  -9.931  0.00  0.00     0.145 C 
HETATM    3  O   UNK N   1      24.354  25.045 -10.372  0.00  0.00    -0.650 OA
BRANCH   2   4
HETATM    4  O   UNK N   1      26.428  24.415 -10.793  0.00  0.00    -0.776 OA
HETATM    5  H   UNK N   1      26.430  23.717 -11.419  0.00  0.00     0.167 HD
ENDBRANCH   2   4
ENDBRANCH   1   2
BRANCH   1   6
HETATM    6  C   UNK N   1      26.799  25.925  -7.959  0.00  0.00     0.054 C 
BRANCH   6   7
HETATM    7  C   UNK N   1      26.554  26.716  -6.713  0.00  0.00    -0.054 A 
HETATM    8  C   UNK N   1      25.216  26.889  -6.289  0.00  0.00     0.010 A 
HETATM    9  C   UNK N   1      24.930  27.579  -5.099  0.00  0.00     0.040 A 
HETATM   10  C   UNK N   1      26.005  28.068  -4.367  0.00  0.00     0.105 A 
HETATM   11  O   UNK N   1      25.983  28.729  -3.212  0.00  0.00    -0.323 OA
HETATM   12  C   UNK N   1      27.276  27.914  -4.766  0.00  0.00     0.105 A 
HETATM   13  C   UNK N   1      27.301  29.013  -2.841  0.00  0.00     0.352 A 
HETATM   14  O   UNK N   1      28.085  28.474  -3.869  0.00  0.00    -0.323 OA
HETATM   15  C   UNK N   1      27.614  27.246  -5.944  0.00  0.00     0.047 A 
ENDBRANCH   6   7
ENDBRANCH   1   6
BRANCH   1  16
HETATM   16  C   UNK N   1      26.102  23.514  -7.823  0.00  0.00     0.102 C 
BRANCH  16  17
HETATM   17  C   UNK N   1      25.416  22.372  -8.582  0.00  0.00     0.145 C 
HETATM   18  O   UNK N   1      26.039  21.704  -9.388  0.00  0.00    -0.650 OA
BRANCH  17  19
HETATM   19  O   UNK N   1      24.107  22.107  -8.398  0.00  0.00    -0.776 OA
HETATM   20  H   UNK N   1      23.438  22.026  -9.049  0.00  0.00     0.167 HD
ENDBRANCH  17  19
ENDBRANCH  16  17
BRANCH  16  21
HETATM   21  C   UNK N   1      25.758  23.492  -6.316  0.00  0.00     0.054 C 
BRANCH  21  22
HETATM   22  C   UNK N   1      26.873  23.653  -5.315  0.00  0.00    -0.054 A 
HETATM   23  C   UNK N   1      26.548  24.139  -4.026  0.00  0.00     0.010 A 
HETATM   24  C   UNK N   1      27.548  24.292  -3.046  0.00  0.00     0.040 A 
HETATM   25  C   UNK N   1      28.850  23.943  -3.395  0.00  0.00     0.105 A 
HETATM   26  O   UNK N   1      29.946  23.986  -2.643  0.00  0.00    -0.323 OA
HETATM   27  C   UNK N   1      29.164  23.491  -4.613  0.00  0.00     0.105 A 
HETATM   28  C   UNK N   1      31.026  23.533  -3.412  0.00  0.00     0.352 A 
HETATM   29  O   UNK N   1      30.471  23.233  -4.660  0.00  0.00    -0.323 OA
HETATM   30  C   UNK N   1      28.216  23.334  -5.617  0.00  0.00     0.047 A 
ENDBRANCH  21  22
ENDBRANCH  16  21
ENDBRANCH   1  16
TORSDOF 9
ENDMDL
MODEL 5
REMARK VINA RESULT:      -7.3      9.396     12.188
REMARK  9 active torsions:
REMARK  status: ('A' for Active; 'I' for Inactive)
REMARK    1  A    between atoms: C_1  and  C_2 
REMARK    2  A    between atoms: C_1  and  C_5 
REMARK    3  A    between atoms: C_1  and  C_15 
REMARK    4  A    between atoms: C_2  and  O_4 
REMARK    5  A    between atoms: C_5  and  C_6 
REMARK    6  A    between atoms: C_15  and  C_16 
REMARK    7  A    between atoms: C_15  and  C_19 
REMARK    8  A    between atoms: C_16  and  O_18 
REMARK    9  A    between atoms: C_19  and  C_20 
ROOT
HETATM    1  C   UNK N   1      19.507  16.509   5.790  0.00  0.00     0.102 C 
ENDROOT
BRANCH   1   2
HETATM    2  C   UNK N   1      18.317  15.575   5.539  0.00  0.00     0.145 C 
HETATM    3  O   UNK N   1      17.218  15.867   5.986  0.00  0.00    -0.650 OA
BRANCH   2   4
HETATM    4  O   UNK N   1      18.444  14.429   4.844  0.00  0.00    -0.776 OA
HETATM    5  H   UNK N   1      17.803  13.952   4.354  0.00  0.00     0.167 HD
ENDBRANCH   2   4
ENDBRANCH   1   2
BRANCH   1   6
HETATM    6  C   UNK N   1      20.752  16.339   4.876  0.00  0.00     0.054 C 
BRANCH   6   7
HETATM    7  C   UNK N   1      21.358  17.553   4.248  0.00  0.00    -0.054 A 
HETATM    8  C   UNK N   1      20.497  18.458   3.585  0.00  0.00     0.010 A 
HETATM    9  C   UNK N   1      21.004  19.641   3.021  0.00  0.00     0.040 A 
HETATM   10  C   UNK N   1      22.366  19.880   3.151  0.00  0.00     0.105 A 
HETATM   11  O   UNK N   1      23.063  20.928   2.720  0.00  0.00    -0.323 OA
HETATM   12  C   UNK N   1      23.191  19.023   3.771  0.00  0.00     0.105 A 
HETATM   13  C   UNK N   1      24.402  20.747   3.082  0.00  0.00     0.352 A 
HETATM   14  O   UNK N   1      24.428  19.515   3.747  0.00  0.00    -0.323 OA
HETATM   15  C   UNK N   1      22.740  17.831   4.339  0.00  0.00     0.047 A 
ENDBRANCH   6   7
ENDBRANCH   1   6
BRANCH   1  16
HETATM   16  C   UNK N   1      19.991  16.402   7.271  0.00  0.00     0.102 C 
BRANCH  16  17
HETATM   17  C   UNK N   1      20.117  17.785   7.920  0.00  0.00     0.145 C 
HETATM   18  O   UNK N   1      20.820  18.643   7.415  0.00  0.00    -0.650 OA
BRANCH  17  19
HETATM   19  O   UNK N   1      19.479  18.069   9.073  0.00  0.00    -0.776 OA
HETATM   20  H   UNK N   1      18.798  17.579   9.491  0.00  0.00     0.167 HD
ENDBRANCH  17  19
ENDBRANCH  16  17
BRANCH  16  21
HETATM   21  C   UNK N   1      21.322  15.618   7.324  0.00  0.00     0.054 C 
BRANCH  21  22
HETATM   22  C   UNK N   1      21.552  14.653   8.459  0.00  0.00    -0.054 A 
HETATM   23  C   UNK N   1      20.439  14.266   9.242  0.00  0.00     0.010 A 
HETATM   24  C   UNK N   1      20.594  13.353  10.303  0.00  0.00     0.040 A 
HETATM   25  C   UNK N   1      21.870  12.851  10.539  0.00  0.00     0.105 A 
HETATM   26  O   UNK N   1      22.257  11.975  11.463  0.00  0.00    -0.323 OA
HETATM   27  C   UNK N   1      22.927  13.218   9.807  0.00  0.00     0.105 A 
HETATM   28  C   UNK N   1      23.633  11.760  11.319  0.00  0.00     0.352 A 
HETATM   29  O   UNK N   1      24.009  12.579  10.250  0.00  0.00    -0.323 OA
HETATM   30  C   UNK N   1      22.828  14.124   8.759  0.00  0.00     0.047 A 
ENDBRANCH  21  22
ENDBRANCH  16  21
ENDBRANCH   1  16
TORSDOF 9
ENDMDL
MODEL 6
REMARK VINA RESULT:      -7.3      2.567      5.936
REMARK  9 active torsions:
REMARK  status: ('A' for Active; 'I' for Inactive)
REMARK    1  A    between atoms: C_1  and  C_2 
REMARK    2  A    between atoms: C_1  and  C_5 
REMARK    3  A    between atoms: C_1  and  C_15 
REMARK    4  A    between atoms: C_2  and  O_4 
REMARK    5  A    between atoms: C_5  and  C_6 
REMARK    6  A    between atoms: C_15  and  C_16 
REMARK    7  A    between atoms: C_15  and  C_19 
REMARK    8  A    between atoms: C_16  and  O_18 
REMARK    9  A    between atoms: C_19  and  C_20 
ROOT
HETATM    1  C   UNK N   1      32.979  17.535   8.492  0.00  0.00     0.102 C 
ENDROOT
BRANCH   1   2
HETATM    2  C   UNK N   1      34.180  18.213   7.821  0.00  0.00     0.145 C 
HETATM    3  O   UNK N   1      34.786  19.090   8.418  0.00  0.00    -0.650 OA
BRANCH   2   4
HETATM    4  O   UNK N   1      34.588  17.879   6.583  0.00  0.00    -0.776 OA
HETATM    5  H   UNK N   1      34.229  17.254   5.984  0.00  0.00     0.167 HD
ENDBRANCH   2   4
ENDBRANCH   1   2
BRANCH   1   6
HETATM    6  C   UNK N   1      33.156  16.060   8.947  0.00  0.00     0.054 C 
BRANCH   6   7
HETATM    7  C   UNK N   1      34.532  15.558   9.250  0.00  0.00    -0.054 A 
HETATM    8  C   UNK N   1      35.125  15.943  10.475  0.00  0.00     0.010 A 
HETATM    9  C   UNK N   1      36.394  15.461  10.835  0.00  0.00     0.040 A 
HETATM   10  C   UNK N   1      37.026  14.596   9.949  0.00  0.00     0.105 A 
HETATM   11  O   UNK N   1      38.209  14.002  10.081  0.00  0.00    -0.323 OA
HETATM   12  C   UNK N   1      36.474  14.232   8.783  0.00  0.00     0.105 A 
HETATM   13  C   UNK N   1      38.435  13.212   8.949  0.00  0.00     0.352 A 
HETATM   14  O   UNK N   1      37.298  13.397   8.153  0.00  0.00    -0.323 OA
HETATM   15  C   UNK N   1      35.221  14.691   8.374  0.00  0.00     0.047 A 
ENDBRANCH   6   7
ENDBRANCH   1   6
BRANCH   1  16
HETATM   16  C   UNK N   1      31.722  17.594   7.565  0.00  0.00     0.102 C 
BRANCH  16  17
HETATM   17  C   UNK N   1      30.471  18.008   8.348  0.00  0.00     0.145 C 
HETATM   18  O   UNK N   1      29.390  18.084   7.790  0.00  0.00    -0.650 OA
BRANCH  17  19
HETATM   19  O   UNK N   1      30.546  18.325   9.656  0.00  0.00    -0.776 OA
HETATM   20  H   UNK N   1      29.928  18.130  10.333  0.00  0.00     0.167 HD
ENDBRANCH  17  19
ENDBRANCH  16  17
BRANCH  16  21
HETATM   21  C   UNK N   1      31.537  16.232   6.859  0.00  0.00     0.054 C 
BRANCH  21  22
HETATM   22  C   UNK N   1      32.171  16.023   5.508  0.00  0.00    -0.054 A 
HETATM   23  C   UNK N   1      31.986  17.020   4.521  0.00  0.00     0.010 A 
HETATM   24  C   UNK N   1      32.572  16.884   3.248  0.00  0.00     0.040 A 
HETATM   25  C   UNK N   1      33.335  15.745   3.009  0.00  0.00     0.105 A 
HETATM   26  O   UNK N   1      33.991  15.407   1.902  0.00  0.00    -0.323 OA
HETATM   27  C   UNK N   1      33.507  14.795   3.934  0.00  0.00     0.105 A 
HETATM   28  C   UNK N   1      34.626  14.178   2.124  0.00  0.00     0.352 A 
HETATM   29  O   UNK N   1      34.282  13.833   3.434  0.00  0.00    -0.323 OA
HETATM   30  C   UNK N   1      32.941  14.878   5.200  0.00  0.00     0.047 A 
ENDBRANCH  21  22
ENDBRANCH  16  21
ENDBRANCH   1  16
TORSDOF 9
ENDMDL
MODEL 7
REMARK VINA RESULT:      -7.3      2.057      5.298
REMARK  9 active torsions:
REMARK  status: ('A' for Active; 'I' for Inactive)
REMARK    1  A    between atoms: C_1  and  C_2 
REMARK    2  A    between atoms: C_1  and  C_5 
REMARK    3  A    between atoms: C_1  and  C_15 
REMARK    4  A    between atoms: C_2  and  O_4 
REMARK    5  A    between atoms: C_5  and  C_6 
REMARK    6  A    between atoms: C_15  and  C_16 
REMARK    7  A    between atoms: C_15  and  C_19 
REMARK    8  A    between atoms: C_16  and  O_18 
REMARK    9  A    between atoms: C_19  and  C_20 
ROOT
HETATM    1  C   UNK N   1      29.497  17.576   6.944  0.00  0.00     0.102 C 
ENDROOT
BRANCH   1   2
HETATM    2  C   UNK N   1      28.193  18.378   7.039  0.00  0.00     0.145 C 
HETATM    3  O   UNK N   1      28.239  19.574   7.279  0.00  0.00    -0.650 OA
BRANCH   2   4
HETATM    4  O   UNK N   1      26.988  17.801   6.875  0.00  0.00    -0.776 OA
HETATM    5  H   UNK N   1      26.387  17.476   7.517  0.00  0.00     0.167 HD
ENDBRANCH   2   4
ENDBRANCH   1   2
BRANCH   1   6
HETATM    6  C   UNK N   1      29.510  16.347   5.993  0.00  0.00     0.054 C 
BRANCH   6   7
HETATM    7  C   UNK N   1      30.626  16.210   5.007  0.00  0.00    -0.054 A 
HETATM    8  C   UNK N   1      31.146  17.388   4.423  0.00  0.00     0.010 A 
HETATM    9  C   UNK N   1      32.228  17.324   3.529  0.00  0.00     0.040 A 
HETATM   10  C   UNK N   1      32.759  16.069   3.256  0.00  0.00     0.105 A 
HETATM   11  O   UNK N   1      33.785  15.763   2.466  0.00  0.00    -0.323 OA
HETATM   12  C   UNK N   1      32.268  14.946   3.800  0.00  0.00     0.105 A 
HETATM   13  C   UNK N   1      33.972  14.378   2.502  0.00  0.00     0.352 A 
HETATM   14  O   UNK N   1      32.976  13.906   3.365  0.00  0.00    -0.323 OA
HETATM   15  C   UNK N   1      31.189  14.955   4.685  0.00  0.00     0.047 A 
ENDBRANCH   6   7
ENDBRANCH   1   6
BRANCH   1  16
HETATM   16  C   UNK N   1      29.948  17.083   8.357  0.00  0.00     0.102 C 
BRANCH  16  17
HETATM   17  C   UNK N   1      29.104  17.721   9.466  0.00  0.00     0.145 C 
HETATM   18  O   UNK N   1      28.023  17.247   9.771  0.00  0.00    -0.650 OA
BRANCH  17  19
HETATM   19  O   UNK N   1      29.524  18.833  10.102  0.00  0.00    -0.776 OA
HETATM   20  H   UNK N   1      29.177  19.216  10.884  0.00  0.00     0.167 HD
ENDBRANCH  17  19
ENDBRANCH  16  17
BRANCH  16  21
HETATM   21  C   UNK N   1      31.455  17.365   8.545  0.00  0.00     0.054 C 
BRANCH  21  22
HETATM   22  C   UNK N   1      32.453  16.378   7.993  0.00  0.00    -0.054 A 
HETATM   23  C   UNK N   1      32.294  15.012   8.326  0.00  0.00     0.010 A 
HETATM   24  C   UNK N   1      33.186  14.045   7.823  0.00  0.00     0.040 A 
HETATM   25  C   UNK N   1      34.212  14.486   6.992  0.00  0.00     0.105 A 
HETATM   26  O   UNK N   1      35.156  13.767   6.390  0.00  0.00    -0.323 OA
HETATM   27  C   UNK N   1      34.371  15.777   6.680  0.00  0.00     0.105 A 
HETATM   28  C   UNK N   1      35.965  14.635   5.647  0.00  0.00     0.352 A 
HETATM   29  O   UNK N   1      35.421  15.904   5.869  0.00  0.00    -0.323 OA
HETATM   30  C   UNK N   1      33.525  16.769   7.160  0.00  0.00     0.047 A 
ENDBRANCH  21  22
ENDBRANCH  16  21
ENDBRANCH   1  16
TORSDOF 9
ENDMDL
MODEL 8
REMARK VINA RESULT:      -7.3      2.453      6.010
REMARK  9 active torsions:
REMARK  status: ('A' for Active; 'I' for Inactive)
REMARK    1  A    between atoms: C_1  and  C_2 
REMARK    2  A    between atoms: C_1  and  C_5 
REMARK    3  A    between atoms: C_1  and  C_15 
REMARK    4  A    between atoms: C_2  and  O_4 
REMARK    5  A    between atoms: C_5  and  C_6 
REMARK    6  A    between atoms: C_15  and  C_16 
REMARK    7  A    between atoms: C_15  and  C_19 
REMARK    8  A    between atoms: C_16  and  O_18 
REMARK    9  A    between atoms: C_19  and  C_20 
ROOT
HETATM    1  C   UNK N   1      31.838  17.470   7.832  0.00  0.00     0.102 C 
ENDROOT
BRANCH   1   2
HETATM    2  C   UNK N   1      30.728  17.905   8.797  0.00  0.00     0.145 C 
HETATM    3  O   UNK N   1      30.013  17.059   9.311  0.00  0.00    -0.650 OA
BRANCH   2   4
HETATM    4  O   UNK N   1      30.506  19.199   9.092  0.00  0.00    -0.776 OA
HETATM    5  H   UNK N   1      30.716  19.969   8.600  0.00  0.00     0.167 HD
ENDBRANCH   2   4
ENDBRANCH   1   2
BRANCH   1   6
HETATM    6  C   UNK N   1      31.645  16.123   7.084  0.00  0.00     0.054 C 
BRANCH   6   7
HETATM    7  C   UNK N   1      32.190  15.982   5.698  0.00  0.00    -0.054 A 
HETATM    8  C   UNK N   1      31.972  17.042   4.788  0.00  0.00     0.010 A 
HETATM    9  C   UNK N   1      32.505  16.987   3.489  0.00  0.00     0.040 A 
HETATM   10  C   UNK N   1      33.249  15.864   3.149  0.00  0.00     0.105 A 
HETATM   11  O   UNK N   1      33.862  15.599   1.998  0.00  0.00    -0.323 OA
HETATM   12  C   UNK N   1      33.454  14.851   4.004  0.00  0.00     0.105 A 
HETATM   13  C   UNK N   1      34.498  14.359   2.111  0.00  0.00     0.352 A 
HETATM   14  O   UNK N   1      34.203  13.925   3.409  0.00  0.00    -0.323 OA
HETATM   15  C   UNK N   1      32.939  14.852   5.301  0.00  0.00     0.047 A 
ENDBRANCH   6   7
ENDBRANCH   1   6
BRANCH   1  16
HETATM   16  C   UNK N   1      33.216  17.408   8.567  0.00  0.00     0.102 C 
BRANCH  16  17
HETATM   17  C   UNK N   1      34.281  18.224   7.826  0.00  0.00     0.145 C 
HETATM   18  O   UNK N   1      34.594  17.940   6.683  0.00  0.00    -0.650 OA
BRANCH  17  19
HETATM   19  O   UNK N   1      34.914  19.248   8.433  0.00  0.00    -0.776 OA
HETATM   20  H   UNK N   1      35.059  19.374   9.350  0.00  0.00     0.167 HD
ENDBRANCH  17  19
ENDBRANCH  16  17
BRANCH  16  21
HETATM   21  C   UNK N   1      33.640  15.933   8.744  0.00  0.00     0.054 C 
BRANCH  21  22
HETATM   22  C   UNK N   1      34.380  15.536   9.996  0.00  0.00    -0.054 A 
HETATM   23  C   UNK N   1      35.418  16.381  10.455  0.00  0.00     0.010 A 
HETATM   24  C   UNK N   1      36.129  16.068  11.629  0.00  0.00     0.040 A 
HETATM   25  C   UNK N   1      35.767  14.910  12.311  0.00  0.00     0.105 A 
HETATM   26  O   UNK N   1      36.277  14.421  13.438  0.00  0.00    -0.323 OA
HETATM   27  C   UNK N   1      34.793  14.103  11.879  0.00  0.00     0.105 A 
HETATM   28  C   UNK N   1      35.595  13.240  13.756  0.00  0.00     0.352 A 
HETATM   29  O   UNK N   1      34.661  13.083  12.727  0.00  0.00    -0.323 OA
HETATM   30  C   UNK N   1      34.070  14.363  10.721  0.00  0.00     0.047 A 
ENDBRANCH  21  22
ENDBRANCH  16  21
ENDBRANCH   1  16
TORSDOF 9
ENDMDL
MODEL 9
REMARK VINA RESULT:      -7.2      4.999      8.403
REMARK  9 active torsions:
REMARK  status: ('A' for Active; 'I' for Inactive)
REMARK    1  A    between atoms: C_1  and  C_2 
REMARK    2  A    between atoms: C_1  and  C_5 
REMARK    3  A    between atoms: C_1  and  C_15 
REMARK    4  A    between atoms: C_2  and  O_4 
REMARK    5  A    between atoms: C_5  and  C_6 
REMARK    6  A    between atoms: C_15  and  C_16 
REMARK    7  A    between atoms: C_15  and  C_19 
REMARK    8  A    between atoms: C_16  and  O_18 
REMARK    9  A    between atoms: C_19  and  C_20 
ROOT
HETATM    1  C   UNK N   1      27.782  19.495   5.764  0.00  0.00     0.102 C 
ENDROOT
BRANCH   1   2
HETATM    2  C   UNK N   1      27.111  20.706   6.423  0.00  0.00     0.145 C 
HETATM    3  O   UNK N   1      27.544  21.827   6.204  0.00  0.00    -0.650 OA
BRANCH   2   4
HETATM    4  O   UNK N   1      26.056  20.574   7.248  0.00  0.00    -0.776 OA
HETATM    5  H   UNK N   1      25.166  20.845   7.130  0.00  0.00     0.167 HD
ENDBRANCH   2   4
ENDBRANCH   1   2
BRANCH   1   6
HETATM    6  C   UNK N   1      27.297  19.096   4.343  0.00  0.00     0.054 C 
BRANCH   6   7
HETATM    7  C   UNK N   1      25.835  19.159   4.035  0.00  0.00    -0.054 A 
HETATM    8  C   UNK N   1      25.025  18.067   4.426  0.00  0.00     0.010 A 
HETATM    9  C   UNK N   1      23.638  18.094   4.209  0.00  0.00     0.040 A 
HETATM   10  C   UNK N   1      23.105  19.229   3.609  0.00  0.00     0.105 A 
HETATM   11  O   UNK N   1      21.832  19.489   3.323  0.00  0.00    -0.323 OA
HETATM   12  C   UNK N   1      23.866  20.265   3.229  0.00  0.00     0.105 A 
HETATM   13  C   UNK N   1      21.762  20.755   2.733  0.00  0.00     0.352 A 
HETATM   14  O   UNK N   1      23.088  21.204   2.695  0.00  0.00    -0.323 OA
HETATM   15  C   UNK N   1      25.250  20.284   3.412  0.00  0.00     0.047 A 
ENDBRANCH   6   7
ENDBRANCH   1   6
BRANCH   1  16
HETATM   16  C   UNK N   1      27.662  18.231   6.675  0.00  0.00     0.102 C 
BRANCH  16  17
HETATM   17  C   UNK N   1      28.359  18.447   8.023  0.00  0.00     0.145 C 
HETATM   18  O   UNK N   1      29.575  18.431   8.100  0.00  0.00    -0.650 OA
BRANCH  17  19
HETATM   19  O   UNK N   1      27.643  18.625   9.151  0.00  0.00    -0.776 OA
HETATM   20  H   UNK N   1      27.914  18.473  10.035  0.00  0.00     0.167 HD
ENDBRANCH  17  19
ENDBRANCH  16  17
BRANCH  16  21
HETATM   21  C   UNK N   1      28.221  17.000   5.927  0.00  0.00     0.054 C 
BRANCH  21  22
HETATM   22  C   UNK N   1      27.423  15.721   5.937  0.00  0.00    -0.054 A 
HETATM   23  C   UNK N   1      27.775  14.707   5.015  0.00  0.00     0.010 A 
HETATM   24  C   UNK N   1      27.076  13.485   4.993  0.00  0.00     0.040 A 
HETATM   25  C   UNK N   1      26.041  13.320   5.910  0.00  0.00     0.105 A 
HETATM   26  O   UNK N   1      25.256  12.261   6.088  0.00  0.00    -0.323 OA
HETATM   27  C   UNK N   1      25.698  14.277   6.778  0.00  0.00     0.105 A 
HETATM   28  C   UNK N   1      24.363  12.544   7.129  0.00  0.00     0.352 A 
HETATM   29  O   UNK N   1      24.688  13.843   7.531  0.00  0.00    -0.323 OA
HETATM   30  C   UNK N   1      26.350  15.503   6.831  0.00  0.00     0.047 A 
ENDBRANCH  21  22
ENDBRANCH  16  21
ENDBRANCH   1  16
TORSDOF 9
ENDMDL
