MODEL 1
REMARK VINA RESULT:      -5.3      0.000      0.000
REMARK  2 active torsions:
REMARK  status: ('A' for Active; 'I' for Inactive)
REMARK       I    between atoms: C_1  and  N_3 
REMARK    1  A    between atoms: C_1  and  C_4 
REMARK    2  A    between atoms: C_11  and  O_14 
ROOT
HETATM    1  C   UNK N   1      21.297  14.126   8.950  0.00  0.00     0.115 A 
HETATM    2  C   UNK N   1      20.533  13.592  10.011  0.00  0.00     0.176 A 
HETATM    3  C   UNK N   1      22.662  13.772   8.852  0.00  0.00     0.176 A 
HETATM    4  F   UNK N   1      19.219  13.900  10.152  0.00  0.00    -0.202 F 
HETATM    5  F   UNK N   1      23.438  14.259   7.851  0.00  0.00    -0.202 F 
HETATM    6  C   UNK N   1      21.114  12.731  10.945  0.00  0.00     0.192 A 
HETATM    7  C   UNK N   1      23.239  12.910   9.789  0.00  0.00     0.192 A 
HETATM    8  C   UNK N   1      22.480  12.381  10.841  0.00  0.00     0.152 A 
HETATM    9  F   UNK N   1      20.337  12.245  11.945  0.00  0.00    -0.200 F 
HETATM   10  F   UNK N   1      24.551  12.583   9.676  0.00  0.00    -0.200 F 
ENDROOT
BRANCH   1  11
HETATM   11  C   UNK N   1      20.676  15.048   7.950  0.00  0.00     0.255 C 
HETATM   12  O   UNK N   1      20.042  14.601   7.008  0.00  0.00    -0.268 OA
HETATM   13  N   UNK N   1      20.806  16.385   8.070  0.00  0.00    -0.366 N 
HETATM   14  H   UNK N   1      21.313  16.765   8.823  0.00  0.00     0.159 HD
HETATM   15  H   UNK N   1      20.392  16.982   7.405  0.00  0.00     0.159 HD
ENDBRANCH   1  11
BRANCH   8  16
HETATM   16  O   UNK N   1      23.095  11.548  11.721  0.00  0.00    -0.350 OA
HETATM   17  C   UNK N   1      23.375  11.855  13.033  0.00  0.00     0.210 C 
ENDBRANCH   8  16
TORSDOF 2
ENDMDL
MODEL 2
REMARK VINA RESULT:      -5.3      8.888     10.234
REMARK  2 active torsions:
REMARK  status: ('A' for Active; 'I' for Inactive)
REMARK       I    between atoms: C_1  and  N_3 
REMARK    1  A    between atoms: C_1  and  C_4 
REMARK    2  A    between atoms: C_11  and  O_14 
ROOT
HETATM    1  C   UNK N   1      29.348  17.509   8.159  0.00  0.00     0.115 A 
HETATM    2  C   UNK N   1      29.371  16.665   7.027  0.00  0.00     0.176 A 
HETATM    3  C   UNK N   1      30.567  18.054   8.623  0.00  0.00     0.176 A 
HETATM    4  F   UNK N   1      28.229  16.116   6.541  0.00  0.00    -0.202 F 
HETATM    5  F   UNK N   1      30.598  18.871   9.706  0.00  0.00    -0.202 F 
HETATM    6  C   UNK N   1      30.573  16.373   6.379  0.00  0.00     0.192 A 
HETATM    7  C   UNK N   1      31.768  17.759   7.971  0.00  0.00     0.192 A 
HETATM    8  C   UNK N   1      31.788  16.921   6.849  0.00  0.00     0.152 A 
HETATM    9  F   UNK N   1      30.540  15.556   5.297  0.00  0.00    -0.200 F 
HETATM   10  F   UNK N   1      32.927  18.292   8.433  0.00  0.00    -0.200 F 
ENDROOT
BRANCH   1  11
HETATM   11  C   UNK N   1      28.062  17.823   8.854  0.00  0.00     0.255 C 
HETATM   12  O   UNK N   1      27.544  17.003   9.595  0.00  0.00    -0.268 OA
HETATM   13  N   UNK N   1      27.452  19.013   8.675  0.00  0.00    -0.366 N 
HETATM   14  H   UNK N   1      27.854  19.687   8.081  0.00  0.00     0.159 HD
HETATM   15  H   UNK N   1      26.606  19.207   9.138  0.00  0.00     0.159 HD
ENDBRANCH   1  11
BRANCH   8  16
HETATM   16  O   UNK N   1      32.985  16.670   6.256  0.00  0.00    -0.350 OA
HETATM   17  C   UNK N   1      33.512  17.386   5.206  0.00  0.00     0.210 C 
ENDBRANCH   8  16
TORSDOF 2
ENDMDL
MODEL 3
REMARK VINA RESULT:      -5.3      8.897     10.304
REMARK  2 active torsions:
REMARK  status: ('A' for Active; 'I' for Inactive)
REMARK       I    between atoms: C_1  and  N_3 
REMARK    1  A    between atoms: C_1  and  C_4 
REMARK    2  A    between atoms: C_11  and  O_14 
ROOT
HETATM    1  C   UNK N   1      29.352  17.532   8.160  0.00  0.00     0.115 A 
HETATM    2  C   UNK N   1      30.570  18.081   8.619  0.00  0.00     0.176 A 
HETATM    3  C   UNK N   1      29.376  16.684   7.029  0.00  0.00     0.176 A 
HETATM    4  F   UNK N   1      30.603  18.901   9.700  0.00  0.00    -0.202 F 
HETATM    5  F   UNK N   1      28.233  16.132   6.548  0.00  0.00    -0.202 F 
HETATM    6  C   UNK N   1      31.773  17.791   7.971  0.00  0.00     0.192 A 
HETATM    7  C   UNK N   1      30.582  16.397   6.384  0.00  0.00     0.192 A 
HETATM    8  C   UNK N   1      31.788  16.942   6.842  0.00  0.00     0.152 A 
HETATM    9  F   UNK N   1      32.914  18.344   8.453  0.00  0.00    -0.200 F 
HETATM   10  F   UNK N   1      30.582  15.580   5.300  0.00  0.00    -0.200 F 
ENDROOT
BRANCH   1  11
HETATM   11  C   UNK N   1      28.064  17.841   8.852  0.00  0.00     0.255 C 
HETATM   12  O   UNK N   1      27.552  17.022   9.597  0.00  0.00    -0.268 OA
HETATM   13  N   UNK N   1      27.448  19.026   8.666  0.00  0.00    -0.366 N 
HETATM   14  H   UNK N   1      27.846  19.700   8.069  0.00  0.00     0.159 HD
HETATM   15  H   UNK N   1      26.599  19.218   9.128  0.00  0.00     0.159 HD
ENDBRANCH   1  11
BRANCH   8  16
HETATM   16  O   UNK N   1      32.930  16.627   6.174  0.00  0.00    -0.350 OA
HETATM   17  C   UNK N   1      33.479  17.372   5.155  0.00  0.00     0.210 C 
ENDBRANCH   8  16
TORSDOF 2
ENDMDL
MODEL 4
REMARK VINA RESULT:      -5.1     10.804     12.433
REMARK  2 active torsions:
REMARK  status: ('A' for Active; 'I' for Inactive)
REMARK       I    between atoms: C_1  and  N_3 
REMARK    1  A    between atoms: C_1  and  C_4 
REMARK    2  A    between atoms: C_11  and  O_14 
ROOT
HETATM    1  C   UNK N   1      33.313  17.399   7.672  0.00  0.00     0.115 A 
HETATM    2  C   UNK N   1      33.673  16.588   6.573  0.00  0.00     0.176 A 
HETATM    3  C   UNK N   1      31.943  17.664   7.898  0.00  0.00     0.176 A 
HETATM    4  F   UNK N   1      34.973  16.302   6.311  0.00  0.00    -0.202 F 
HETATM    5  F   UNK N   1      31.546  18.438   8.940  0.00  0.00    -0.202 F 
HETATM    6  C   UNK N   1      32.696  16.058   5.728  0.00  0.00     0.192 A 
HETATM    7  C   UNK N   1      30.969  17.131   7.049  0.00  0.00     0.192 A 
HETATM    8  C   UNK N   1      31.328  16.327   5.960  0.00  0.00     0.152 A 
HETATM    9  F   UNK N   1      33.095  15.284   4.687  0.00  0.00    -0.200 F 
HETATM   10  F   UNK N   1      29.659  17.399   7.284  0.00  0.00    -0.200 F 
ENDROOT
BRANCH   1  11
HETATM   11  C   UNK N   1      34.357  17.968   8.578  0.00  0.00     0.255 C 
HETATM   12  O   UNK N   1      34.947  18.992   8.274  0.00  0.00    -0.268 OA
HETATM   13  N   UNK N   1      34.665  17.361   9.742  0.00  0.00    -0.366 N 
HETATM   14  H   UNK N   1      34.200  16.533  10.004  0.00  0.00     0.159 HD
HETATM   15  H   UNK N   1      35.355  17.745  10.331  0.00  0.00     0.159 HD
ENDBRANCH   1  11
BRANCH   8  16
HETATM   16  O   UNK N   1      30.337  15.837   5.169  0.00  0.00    -0.350 OA
HETATM   17  C   UNK N   1      29.823  14.563   5.246  0.00  0.00     0.210 C 
ENDBRANCH   8  16
TORSDOF 2
ENDMDL
MODEL 5
REMARK VINA RESULT:      -5.1     10.869     12.283
REMARK  2 active torsions:
REMARK  status: ('A' for Active; 'I' for Inactive)
REMARK       I    between atoms: C_1  and  N_3 
REMARK    1  A    between atoms: C_1  and  C_4 
REMARK    2  A    between atoms: C_11  and  O_14 
ROOT
HETATM    1  C   UNK N   1      33.280  17.425   7.612  0.00  0.00     0.115 A 
HETATM    2  C   UNK N   1      31.908  17.662   7.848  0.00  0.00     0.176 A 
HETATM    3  C   UNK N   1      33.651  16.676   6.472  0.00  0.00     0.176 A 
HETATM    4  F   UNK N   1      31.497  18.375   8.927  0.00  0.00    -0.202 F 
HETATM    5  F   UNK N   1      34.957  16.420   6.201  0.00  0.00    -0.202 F 
HETATM    6  C   UNK N   1      30.937  17.167   6.974  0.00  0.00     0.192 A 
HETATM    7  C   UNK N   1      32.676  16.182   5.600  0.00  0.00     0.192 A 
HETATM    8  C   UNK N   1      31.317  16.419   5.836  0.00  0.00     0.152 A 
HETATM    9  F   UNK N   1      29.633  17.423   7.246  0.00  0.00    -0.200 F 
HETATM   10  F   UNK N   1      33.056  15.465   4.512  0.00  0.00    -0.200 F 
ENDROOT
BRANCH   1  11
HETATM   11  C   UNK N   1      34.319  17.954   8.546  0.00  0.00     0.255 C 
HETATM   12  O   UNK N   1      34.942  18.966   8.269  0.00  0.00    -0.268 OA
HETATM   13  N   UNK N   1      34.587  17.324   9.709  0.00  0.00    -0.366 N 
HETATM   14  H   UNK N   1      34.096  16.506   9.950  0.00  0.00     0.159 HD
HETATM   15  H   UNK N   1      35.275  17.683  10.316  0.00  0.00     0.159 HD
ENDBRANCH   1  11
BRANCH   8  16
HETATM   16  O   UNK N   1      30.414  15.914   4.954  0.00  0.00    -0.350 OA
HETATM   17  C   UNK N   1      29.862  16.611   3.904  0.00  0.00     0.210 C 
ENDBRANCH   8  16
TORSDOF 2
ENDMDL
MODEL 6
REMARK VINA RESULT:      -5.0      2.228      4.964
REMARK  2 active torsions:
REMARK  status: ('A' for Active; 'I' for Inactive)
REMARK       I    between atoms: C_1  and  N_3 
REMARK    1  A    between atoms: C_1  and  C_4 
REMARK    2  A    between atoms: C_11  and  O_14 
ROOT
HETATM    1  C   UNK N   1      22.695  13.342   9.232  0.00  0.00     0.115 A 
HETATM    2  C   UNK N   1      22.773  14.141   8.070  0.00  0.00     0.176 A 
HETATM    3  C   UNK N   1      21.495  13.350   9.979  0.00  0.00     0.176 A 
HETATM    4  F   UNK N   1      23.901  14.170   7.316  0.00  0.00    -0.202 F 
HETATM    5  F   UNK N   1      21.369  12.600  11.103  0.00  0.00    -0.202 F 
HETATM    6  C   UNK N   1      21.689  14.923   7.667  0.00  0.00     0.192 A 
HETATM    7  C   UNK N   1      20.412  14.135   9.572  0.00  0.00     0.192 A 
HETATM    8  C   UNK N   1      20.492  14.926   8.420  0.00  0.00     0.152 A 
HETATM    9  F   UNK N   1      21.816  15.673   6.543  0.00  0.00    -0.200 F 
HETATM   10  F   UNK N   1      19.269  14.127  10.305  0.00  0.00    -0.200 F 
ENDROOT
BRANCH   1  11
HETATM   11  C   UNK N   1      23.854  12.504   9.664  0.00  0.00     0.255 C 
HETATM   12  O   UNK N   1      24.115  11.463   9.083  0.00  0.00    -0.268 OA
HETATM   13  N   UNK N   1      24.631  12.882  10.700  0.00  0.00    -0.366 N 
HETATM   14  H   UNK N   1      24.437  13.719  11.181  0.00  0.00     0.159 HD
HETATM   15  H   UNK N   1      25.392  12.322  10.976  0.00  0.00     0.159 HD
ENDBRANCH   1  11
BRANCH   8  16
HETATM   16  O   UNK N   1      19.407  15.668   8.073  0.00  0.00    -0.350 OA
HETATM   17  C   UNK N   1      19.134  16.933   8.541  0.00  0.00     0.210 C 
ENDBRANCH   8  16
TORSDOF 2
ENDMDL
MODEL 7
REMARK VINA RESULT:      -5.0     15.336     16.080
REMARK  2 active torsions:
REMARK  status: ('A' for Active; 'I' for Inactive)
REMARK       I    between atoms: C_1  and  N_3 
REMARK    1  A    between atoms: C_1  and  C_4 
REMARK    2  A    between atoms: C_11  and  O_14 
ROOT
HETATM    1  C   UNK N   1      35.696  12.570  16.751  0.00  0.00     0.115 A 
HETATM    2  C   UNK N   1      35.224  13.244  17.898  0.00  0.00     0.176 A 
HETATM    3  C   UNK N   1      36.043  11.204  16.862  0.00  0.00     0.176 A 
HETATM    4  F   UNK N   1      34.877  14.555  17.846  0.00  0.00    -0.202 F 
HETATM    5  F   UNK N   1      36.503  10.513  15.788  0.00  0.00    -0.202 F 
HETATM    6  C   UNK N   1      35.101  12.575  19.118  0.00  0.00     0.192 A 
HETATM    7  C   UNK N   1      35.919  10.539  18.085  0.00  0.00     0.192 A 
HETATM    8  C   UNK N   1      35.450  11.210  19.222  0.00  0.00     0.152 A 
HETATM    9  F   UNK N   1      34.642  13.268  20.190  0.00  0.00    -0.200 F 
HETATM   10  F   UNK N   1      36.258   9.228  18.169  0.00  0.00    -0.200 F 
ENDROOT
BRANCH   1  11
HETATM   11  C   UNK N   1      35.828  13.285  15.444  0.00  0.00     0.255 C 
HETATM   12  O   UNK N   1      34.869  13.388  14.697  0.00  0.00    -0.268 OA
HETATM   13  N   UNK N   1      37.006  13.825  15.069  0.00  0.00    -0.366 N 
HETATM   14  H   UNK N   1      37.791  13.752  15.658  0.00  0.00     0.159 HD
HETATM   15  H   UNK N   1      37.080  14.293  14.205  0.00  0.00     0.159 HD
ENDBRANCH   1  11
BRANCH   8  16
HETATM   16  O   UNK N   1      35.350  10.511  20.384  0.00  0.00    -0.350 OA
HETATM   17  C   UNK N   1      34.207   9.893  20.837  0.00  0.00     0.210 C 
ENDBRANCH   8  16
TORSDOF 2
ENDMDL
MODEL 8
REMARK VINA RESULT:      -4.9     13.533     14.369
REMARK  2 active torsions:
REMARK  status: ('A' for Active; 'I' for Inactive)
REMARK       I    between atoms: C_1  and  N_3 
REMARK    1  A    between atoms: C_1  and  C_4 
REMARK    2  A    between atoms: C_11  and  O_14 
ROOT
HETATM    1  C   UNK N   1      35.245  12.919  13.277  0.00  0.00     0.115 A 
HETATM    2  C   UNK N   1      34.518  11.784  13.698  0.00  0.00     0.176 A 
HETATM    3  C   UNK N   1      35.875  13.721  14.256  0.00  0.00     0.176 A 
HETATM    4  F   UNK N   1      33.895  10.980  12.799  0.00  0.00    -0.202 F 
HETATM    5  F   UNK N   1      36.586  14.822  13.902  0.00  0.00    -0.202 F 
HETATM    6  C   UNK N   1      34.423  11.460  15.053  0.00  0.00     0.192 A 
HETATM    7  C   UNK N   1      35.777  13.392  15.611  0.00  0.00     0.192 A 
HETATM    8  C   UNK N   1      35.055  12.266  16.026  0.00  0.00     0.152 A 
HETATM    9  F   UNK N   1      33.712  10.359  15.404  0.00  0.00    -0.200 F 
HETATM   10  F   UNK N   1      36.390  14.176  16.534  0.00  0.00    -0.200 F 
ENDROOT
BRANCH   1  11
HETATM   11  C   UNK N   1      35.348  13.267  11.827  0.00  0.00     0.255 C 
HETATM   12  O   UNK N   1      36.381  13.053  11.212  0.00  0.00    -0.268 OA
HETATM   13  N   UNK N   1      34.306  13.822  11.175  0.00  0.00    -0.366 N 
HETATM   14  H   UNK N   1      33.466  14.003  11.654  0.00  0.00     0.159 HD
HETATM   15  H   UNK N   1      34.387  14.048  10.219  0.00  0.00     0.159 HD
ENDBRANCH   1  11
BRANCH   8  16
HETATM   16  O   UNK N   1      34.995  11.997  17.357  0.00  0.00    -0.350 OA
HETATM   17  C   UNK N   1      35.682  10.986  17.989  0.00  0.00     0.210 C 
ENDBRANCH   8  16
TORSDOF 2
ENDMDL
MODEL 9
REMARK VINA RESULT:      -4.8     13.536     15.042
REMARK  2 active torsions:
REMARK  status: ('A' for Active; 'I' for Inactive)
REMARK       I    between atoms: C_1  and  N_3 
REMARK    1  A    between atoms: C_1  and  C_4 
REMARK    2  A    between atoms: C_11  and  O_14 
ROOT
HETATM    1  C   UNK N   1      35.288  12.440  15.993  0.00  0.00     0.115 A 
HETATM    2  C   UNK N   1      34.581  11.614  15.092  0.00  0.00     0.176 A 
HETATM    3  C   UNK N   1      35.999  13.549  15.480  0.00  0.00     0.176 A 
HETATM    4  F   UNK N   1      33.883  10.537  15.531  0.00  0.00    -0.202 F 
HETATM    5  F   UNK N   1      36.694  14.373  16.305  0.00  0.00    -0.202 F 
HETATM    6  C   UNK N   1      34.585  11.886  13.722  0.00  0.00     0.192 A 
HETATM    7  C   UNK N   1      36.000  13.817  14.108  0.00  0.00     0.192 A 
HETATM    8  C   UNK N   1      35.298  12.996  13.217  0.00  0.00     0.152 A 
HETATM    9  F   UNK N   1      33.890  11.060  12.899  0.00  0.00    -0.200 F 
HETATM   10  F   UNK N   1      36.689  14.887  13.638  0.00  0.00    -0.200 F 
ENDROOT
BRANCH   1  11
HETATM   11  C   UNK N   1      35.285  12.150  17.459  0.00  0.00     0.255 C 
HETATM   12  O   UNK N   1      34.851  12.972  18.251  0.00  0.00    -0.268 OA
HETATM   13  N   UNK N   1      35.760  10.980  17.933  0.00  0.00    -0.366 N 
HETATM   14  H   UNK N   1      36.114  10.305  17.310  0.00  0.00     0.159 HD
HETATM   15  H   UNK N   1      35.753  10.801  18.901  0.00  0.00     0.159 HD
ENDBRANCH   1  11
BRANCH   8  16
HETATM   16  O   UNK N   1      35.335  13.306  11.893  0.00  0.00    -0.350 OA
HETATM   17  C   UNK N   1      34.561  14.268  11.287  0.00  0.00     0.210 C 
ENDBRANCH   8  16
TORSDOF 2
ENDMDL
