MODEL 1
REMARK VINA RESULT:      -6.7      0.000      0.000
REMARK  4 active torsions:
REMARK  status: ('A' for Active; 'I' for Inactive)
REMARK    1  A    between atoms: C_5  and  C_6 
REMARK    2  A    between atoms: C_5  and  C_9 
REMARK    3  A    between atoms: C_6  and  O_16 
REMARK    4  A    between atoms: C_12  and  C_13 
ROOT
HETATM    1  C   UNK N   1      36.361  13.898  15.234  0.00  0.00     0.013 A 
HETATM    2  C   UNK N   1      36.391  14.283  13.888  0.00  0.00     0.009 A 
HETATM    3  C   UNK N   1      35.614  13.601  12.936  0.00  0.00    -0.044 A 
HETATM    4  C   UNK N   1      34.813  12.528  13.356  0.00  0.00     0.009 A 
HETATM    5  C   UNK N   1      34.770  12.158  14.698  0.00  0.00     0.013 A 
HETATM    6  C   UNK N   1      35.538  12.840  15.651  0.00  0.00    -0.026 A 
ENDROOT
BRANCH   3   7
HETATM    7  C   UNK N   1      35.613  14.068  11.493  0.00  0.00     0.112 C 
HETATM    8  C   UNK N   1      35.317  12.890  10.569  0.00  0.00     0.026 C 
BRANCH   7   9
HETATM    9  C   UNK N   1      34.646  15.203  11.217  0.00  0.00     0.148 C 
HETATM   10  O   UNK N   1      35.077  16.333  11.011  0.00  0.00    -0.649 OA
BRANCH   9  11
HETATM   11  O   UNK N   1      33.318  14.991  11.178  0.00  0.00    -0.776 OA
HETATM   12  H   UNK N   1      32.707  14.316  10.956  0.00  0.00     0.167 HD
ENDBRANCH   9  11
ENDBRANCH   7   9
ENDBRANCH   3   7
BRANCH   6  13
HETATM   13  C   UNK N   1      35.460  12.451  17.079  0.00  0.00    -0.026 A 
HETATM   14  C   UNK N   1      35.202  13.408  18.073  0.00  0.00     0.012 A 
HETATM   15  C   UNK N   1      35.130  13.028  19.417  0.00  0.00     0.001 A 
HETATM   16  C   UNK N   1      35.302  11.689  19.777  0.00  0.00     0.000 A 
HETATM   17  C   UNK N   1      35.551  10.729  18.796  0.00  0.00     0.001 A 
HETATM   18  C   UNK N   1      35.634  11.107  17.454  0.00  0.00     0.012 A 
ENDBRANCH   6  13
TORSDOF 4
ENDMDL
MODEL 2
REMARK VINA RESULT:      -6.4      1.401      2.148
REMARK  4 active torsions:
REMARK  status: ('A' for Active; 'I' for Inactive)
REMARK    1  A    between atoms: C_5  and  C_6 
REMARK    2  A    between atoms: C_5  and  C_9 
REMARK    3  A    between atoms: C_6  and  O_16 
REMARK    4  A    between atoms: C_12  and  C_13 
ROOT
HETATM    1  C   UNK N   1      36.428  13.930  15.323  0.00  0.00     0.013 A 
HETATM    2  C   UNK N   1      36.493  14.361  13.992  0.00  0.00     0.009 A 
HETATM    3  C   UNK N   1      35.747  13.710  12.996  0.00  0.00    -0.044 A 
HETATM    4  C   UNK N   1      34.940  12.619  13.356  0.00  0.00     0.009 A 
HETATM    5  C   UNK N   1      34.861  12.202  14.683  0.00  0.00     0.013 A 
HETATM    6  C   UNK N   1      35.599  12.855  15.681  0.00  0.00    -0.026 A 
ENDROOT
BRANCH   3   7
HETATM    7  C   UNK N   1      35.783  14.227  11.571  0.00  0.00     0.112 C 
HETATM    8  C   UNK N   1      35.372  15.696  11.544  0.00  0.00     0.026 C 
BRANCH   7   9
HETATM    9  C   UNK N   1      37.126  14.049  10.889  0.00  0.00     0.148 C 
HETATM   10  O   UNK N   1      37.698  12.964  10.946  0.00  0.00    -0.649 OA
BRANCH   9  11
HETATM   11  O   UNK N   1      37.699  15.056  10.207  0.00  0.00    -0.776 OA
HETATM   12  H   UNK N   1      37.770  15.991  10.234  0.00  0.00     0.167 HD
ENDBRANCH   9  11
ENDBRANCH   7   9
ENDBRANCH   3   7
BRANCH   6  13
HETATM   13  C   UNK N   1      35.484  12.416  17.091  0.00  0.00    -0.026 A 
HETATM   14  C   UNK N   1      35.675  11.071  17.445  0.00  0.00     0.012 A 
HETATM   15  C   UNK N   1      35.566  10.670  18.781  0.00  0.00     0.001 A 
HETATM   16  C   UNK N   1      35.277  11.610  19.773  0.00  0.00     0.000 A 
HETATM   17  C   UNK N   1      35.092  12.951  19.432  0.00  0.00     0.001 A 
HETATM   18  C   UNK N   1      35.191  13.352  18.098  0.00  0.00     0.012 A 
ENDBRANCH   6  13
TORSDOF 4
ENDMDL
MODEL 3
REMARK VINA RESULT:      -6.0     13.901     15.680
REMARK  4 active torsions:
REMARK  status: ('A' for Active; 'I' for Inactive)
REMARK    1  A    between atoms: C_5  and  C_6 
REMARK    2  A    between atoms: C_5  and  C_9 
REMARK    3  A    between atoms: C_6  and  O_16 
REMARK    4  A    between atoms: C_12  and  C_13 
ROOT
HETATM    1  C   UNK N   1      20.888  14.983   9.082  0.00  0.00     0.013 A 
HETATM    2  C   UNK N   1      20.250  15.726   8.081  0.00  0.00     0.009 A 
HETATM    3  C   UNK N   1      20.698  15.659   6.751  0.00  0.00    -0.044 A 
HETATM    4  C   UNK N   1      21.796  14.839   6.445  0.00  0.00     0.009 A 
HETATM    5  C   UNK N   1      22.418  14.087   7.438  0.00  0.00     0.013 A 
HETATM    6  C   UNK N   1      21.970  14.146   8.765  0.00  0.00    -0.026 A 
ENDROOT
BRANCH   3   7
HETATM    7  C   UNK N   1      19.959  16.423   5.670  0.00  0.00     0.112 C 
HETATM    8  C   UNK N   1      20.902  16.710   4.504  0.00  0.00     0.026 C 
BRANCH   7   9
HETATM    9  C   UNK N   1      18.711  15.724   5.170  0.00  0.00     0.148 C 
HETATM   10  O   UNK N   1      17.654  15.854   5.781  0.00  0.00    -0.649 OA
BRANCH   9  11
HETATM   11  O   UNK N   1      18.733  14.972   4.054  0.00  0.00    -0.776 OA
HETATM   12  H   UNK N   1      19.316  14.743   3.357  0.00  0.00     0.167 HD
ENDBRANCH   9  11
ENDBRANCH   7   9
ENDBRANCH   3   7
BRANCH   6  13
HETATM   13  C   UNK N   1      22.625  13.319   9.805  0.00  0.00    -0.026 A 
HETATM   14  C   UNK N   1      21.882  12.762  10.857  0.00  0.00     0.012 A 
HETATM   15  C   UNK N   1      22.512  11.981  11.831  0.00  0.00     0.001 A 
HETATM   16  C   UNK N   1      23.886  11.741  11.756  0.00  0.00     0.000 A 
HETATM   17  C   UNK N   1      24.633  12.285  10.710  0.00  0.00     0.001 A 
HETATM   18  C   UNK N   1      24.008  13.073   9.741  0.00  0.00     0.012 A 
ENDBRANCH   6  13
TORSDOF 4
ENDMDL
MODEL 4
REMARK VINA RESULT:      -5.9      8.807     12.621
REMARK  4 active torsions:
REMARK  status: ('A' for Active; 'I' for Inactive)
REMARK    1  A    between atoms: C_5  and  C_6 
REMARK    2  A    between atoms: C_5  and  C_9 
REMARK    3  A    between atoms: C_6  and  O_16 
REMARK    4  A    between atoms: C_12  and  C_13 
ROOT
HETATM    1  C   UNK N   1      29.734  17.317   6.687  0.00  0.00     0.013 A 
HETATM    2  C   UNK N   1      30.940  16.896   7.261  0.00  0.00     0.009 A 
HETATM    3  C   UNK N   1      32.114  16.838   6.491  0.00  0.00    -0.044 A 
HETATM    4  C   UNK N   1      32.055  17.205   5.137  0.00  0.00     0.009 A 
HETATM    5  C   UNK N   1      30.860  17.641   4.570  0.00  0.00     0.013 A 
HETATM    6  C   UNK N   1      29.689  17.707   5.338  0.00  0.00    -0.026 A 
ENDROOT
BRANCH   3   7
HETATM    7  C   UNK N   1      33.422  16.437   7.144  0.00  0.00     0.112 C 
HETATM    8  C   UNK N   1      34.410  15.972   6.077  0.00  0.00     0.026 C 
BRANCH   7   9
HETATM    9  C   UNK N   1      34.045  17.531   7.989  0.00  0.00     0.148 C 
HETATM   10  O   UNK N   1      34.689  18.426   7.449  0.00  0.00    -0.649 OA
BRANCH   9  11
HETATM   11  O   UNK N   1      33.893  17.550   9.326  0.00  0.00    -0.776 OA
HETATM   12  H   UNK N   1      34.412  17.528  10.106  0.00  0.00     0.167 HD
ENDBRANCH   9  11
ENDBRANCH   7   9
ENDBRANCH   3   7
BRANCH   6  13
HETATM   13  C   UNK N   1      28.431  18.198   4.728  0.00  0.00    -0.026 A 
HETATM   14  C   UNK N   1      27.465  17.301   4.248  0.00  0.00     0.012 A 
HETATM   15  C   UNK N   1      26.281  17.776   3.676  0.00  0.00     0.001 A 
HETATM   16  C   UNK N   1      26.048  19.151   3.589  0.00  0.00     0.000 A 
HETATM   17  C   UNK N   1      26.999  20.052   4.070  0.00  0.00     0.001 A 
HETATM   18  C   UNK N   1      28.187  19.580   4.633  0.00  0.00     0.012 A 
ENDBRANCH   6  13
TORSDOF 4
ENDMDL
MODEL 5
REMARK VINA RESULT:      -5.9      2.524      4.562
REMARK  4 active torsions:
REMARK  status: ('A' for Active; 'I' for Inactive)
REMARK    1  A    between atoms: C_5  and  C_6 
REMARK    2  A    between atoms: C_5  and  C_9 
REMARK    3  A    between atoms: C_6  and  O_16 
REMARK    4  A    between atoms: C_12  and  C_13 
ROOT
HETATM    1  C   UNK N   1      34.685  13.956  10.732  0.00  0.00     0.013 A 
HETATM    2  C   UNK N   1      34.479  14.651   9.535  0.00  0.00     0.009 A 
HETATM    3  C   UNK N   1      34.886  15.990   9.409  0.00  0.00    -0.044 A 
HETATM    4  C   UNK N   1      35.498  16.618  10.505  0.00  0.00     0.009 A 
HETATM    5  C   UNK N   1      35.719  15.921  11.691  0.00  0.00     0.013 A 
HETATM    6  C   UNK N   1      35.321  14.583  11.816  0.00  0.00    -0.026 A 
ENDROOT
BRANCH   3   7
HETATM    7  C   UNK N   1      34.709  16.709   8.086  0.00  0.00     0.112 C 
HETATM    8  C   UNK N   1      33.703  15.955   7.220  0.00  0.00     0.026 C 
BRANCH   7   9
HETATM    9  C   UNK N   1      34.290  18.159   8.228  0.00  0.00     0.148 C 
HETATM   10  O   UNK N   1      33.098  18.453   8.205  0.00  0.00    -0.649 OA
BRANCH   9  11
HETATM   11  O   UNK N   1      35.201  19.134   8.397  0.00  0.00    -0.776 OA
HETATM   12  H   UNK N   1      36.131  19.249   8.412  0.00  0.00     0.167 HD
ENDBRANCH   9  11
ENDBRANCH   7   9
ENDBRANCH   3   7
BRANCH   6  13
HETATM   13  C   UNK N   1      35.588  13.847  13.075  0.00  0.00    -0.026 A 
HETATM   14  C   UNK N   1      36.472  14.361  14.036  0.00  0.00     0.012 A 
HETATM   15  C   UNK N   1      36.714  13.658  15.220  0.00  0.00     0.001 A 
HETATM   16  C   UNK N   1      36.066  12.444  15.460  0.00  0.00     0.000 A 
HETATM   17  C   UNK N   1      35.178  11.929  14.514  0.00  0.00     0.001 A 
HETATM   18  C   UNK N   1      34.943  12.624  13.325  0.00  0.00     0.012 A 
ENDBRANCH   6  13
TORSDOF 4
ENDMDL
MODEL 6
REMARK VINA RESULT:      -5.9     14.397     16.496
REMARK  4 active torsions:
REMARK  status: ('A' for Active; 'I' for Inactive)
REMARK    1  A    between atoms: C_5  and  C_6 
REMARK    2  A    between atoms: C_5  and  C_9 
REMARK    3  A    between atoms: C_6  and  O_16 
REMARK    4  A    between atoms: C_12  and  C_13 
ROOT
HETATM    1  C   UNK N   1      20.118  14.304   9.532  0.00  0.00     0.013 A 
HETATM    2  C   UNK N   1      19.294  15.430   9.647  0.00  0.00     0.009 A 
HETATM    3  C   UNK N   1      19.510  16.557   8.837  0.00  0.00    -0.044 A 
HETATM    4  C   UNK N   1      20.568  16.535   7.914  0.00  0.00     0.009 A 
HETATM    5  C   UNK N   1      21.376  15.408   7.786  0.00  0.00     0.013 A 
HETATM    6  C   UNK N   1      21.158  14.280   8.588  0.00  0.00    -0.026 A 
ENDROOT
BRANCH   3   7
HETATM    7  C   UNK N   1      18.572  17.744   8.934  0.00  0.00     0.112 C 
HETATM    8  C   UNK N   1      17.173  17.267   9.315  0.00  0.00     0.026 C 
BRANCH   7   9
HETATM    9  C   UNK N   1      19.038  18.815   9.900  0.00  0.00     0.148 C 
HETATM   10  O   UNK N   1      20.182  19.255   9.816  0.00  0.00    -0.649 OA
BRANCH   9  11
HETATM   11  O   UNK N   1      18.215  19.309  10.843  0.00  0.00    -0.776 OA
HETATM   12  H   UNK N   1      18.250  19.654  11.714  0.00  0.00     0.167 HD
ENDBRANCH   9  11
ENDBRANCH   7   9
ENDBRANCH   3   7
BRANCH   6  13
HETATM   13  C   UNK N   1      22.009  13.079   8.422  0.00  0.00    -0.026 A 
HETATM   14  C   UNK N   1      22.604  12.458   9.532  0.00  0.00     0.012 A 
HETATM   15  C   UNK N   1      23.404  11.323   9.362  0.00  0.00     0.001 A 
HETATM   16  C   UNK N   1      23.606  10.793   8.085  0.00  0.00     0.000 A 
HETATM   17  C   UNK N   1      23.013  11.399   6.976  0.00  0.00     0.001 A 
HETATM   18  C   UNK N   1      22.223  12.538   7.142  0.00  0.00     0.012 A 
ENDBRANCH   6  13
TORSDOF 4
ENDMDL
MODEL 7
REMARK VINA RESULT:      -5.6      7.769     12.297
REMARK  4 active torsions:
REMARK  status: ('A' for Active; 'I' for Inactive)
REMARK    1  A    between atoms: C_5  and  C_6 
REMARK    2  A    between atoms: C_5  and  C_9 
REMARK    3  A    between atoms: C_6  and  O_16 
REMARK    4  A    between atoms: C_12  and  C_13 
ROOT
HETATM    1  C   UNK N   1      30.055  17.274   5.328  0.00  0.00     0.013 A 
HETATM    2  C   UNK N   1      30.988  16.376   5.861  0.00  0.00     0.009 A 
HETATM    3  C   UNK N   1      31.104  16.212   7.251  0.00  0.00    -0.044 A 
HETATM    4  C   UNK N   1      30.274  16.967   8.095  0.00  0.00     0.009 A 
HETATM    5  C   UNK N   1      29.334  17.847   7.564  0.00  0.00     0.013 A 
HETATM    6  C   UNK N   1      29.210  18.007   6.177  0.00  0.00    -0.026 A 
ENDROOT
BRANCH   3   7
HETATM    7  C   UNK N   1      32.078  15.193   7.810  0.00  0.00     0.112 C 
HETATM    8  C   UNK N   1      33.167  14.901   6.781  0.00  0.00     0.026 C 
BRANCH   7   9
HETATM    9  C   UNK N   1      32.703  15.602   9.129  0.00  0.00     0.148 C 
HETATM   10  O   UNK N   1      33.625  16.413   9.139  0.00  0.00    -0.649 OA
BRANCH   9  11
HETATM   11  O   UNK N   1      32.257  15.104  10.296  0.00  0.00    -0.776 OA
HETATM   12  H   UNK N   1      32.562  14.936  11.166  0.00  0.00     0.167 HD
ENDBRANCH   9  11
ENDBRANCH   7   9
ENDBRANCH   3   7
BRANCH   6  13
HETATM   13  C   UNK N   1      28.187  18.927   5.627  0.00  0.00    -0.026 A 
HETATM   14  C   UNK N   1      27.758  18.813   4.295  0.00  0.00     0.012 A 
HETATM   15  C   UNK N   1      26.790  19.686   3.788  0.00  0.00     0.001 A 
HETATM   16  C   UNK N   1      26.235  20.670   4.610  0.00  0.00     0.000 A 
HETATM   17  C   UNK N   1      26.649  20.786   5.937  0.00  0.00     0.001 A 
HETATM   18  C   UNK N   1      27.623  19.922   6.443  0.00  0.00     0.012 A 
ENDBRANCH   6  13
TORSDOF 4
ENDMDL
MODEL 8
REMARK VINA RESULT:      -5.6      4.090      7.217
REMARK  4 active torsions:
REMARK  status: ('A' for Active; 'I' for Inactive)
REMARK    1  A    between atoms: C_5  and  C_6 
REMARK    2  A    between atoms: C_5  and  C_9 
REMARK    3  A    between atoms: C_6  and  O_16 
REMARK    4  A    between atoms: C_12  and  C_13 
ROOT
HETATM    1  C   UNK N   1      35.303  13.314  17.262  0.00  0.00     0.013 A 
HETATM    2  C   UNK N   1      35.264  12.805  18.566  0.00  0.00     0.009 A 
HETATM    3  C   UNK N   1      35.314  11.420  18.791  0.00  0.00    -0.044 A 
HETATM    4  C   UNK N   1      35.400  10.556  17.688  0.00  0.00     0.009 A 
HETATM    5  C   UNK N   1      35.457  11.063  16.392  0.00  0.00     0.013 A 
HETATM    6  C   UNK N   1      35.415  12.445  16.165  0.00  0.00    -0.026 A 
ENDROOT
BRANCH   3   7
HETATM    7  C   UNK N   1      35.330  10.889  20.212  0.00  0.00     0.112 C 
HETATM    8  C   UNK N   1      34.435   9.657  20.313  0.00  0.00     0.026 C 
BRANCH   7   9
HETATM    9  C   UNK N   1      36.718  10.568  20.730  0.00  0.00     0.148 C 
HETATM   10  O   UNK N   1      37.380   9.687  20.189  0.00  0.00    -0.649 OA
BRANCH   9  11
HETATM   11  O   UNK N   1      37.249  11.244  21.765  0.00  0.00    -0.776 OA
HETATM   12  H   UNK N   1      37.083  12.009  22.280  0.00  0.00     0.167 HD
ENDBRANCH   9  11
ENDBRANCH   7   9
ENDBRANCH   3   7
BRANCH   6  13
HETATM   13  C   UNK N   1      35.504  12.970  14.782  0.00  0.00    -0.026 A 
HETATM   14  C   UNK N   1      34.860  12.315  13.720  0.00  0.00     0.012 A 
HETATM   15  C   UNK N   1      34.950  12.822  12.420  0.00  0.00     0.001 A 
HETATM   16  C   UNK N   1      35.672  13.991  12.171  0.00  0.00     0.000 A 
HETATM   17  C   UNK N   1      36.310  14.654  13.221  0.00  0.00     0.001 A 
HETATM   18  C   UNK N   1      36.230  14.145  14.519  0.00  0.00     0.012 A 
ENDBRANCH   6  13
TORSDOF 4
ENDMDL
MODEL 9
REMARK VINA RESULT:      -5.6      1.829      2.064
REMARK  4 active torsions:
REMARK  status: ('A' for Active; 'I' for Inactive)
REMARK    1  A    between atoms: C_5  and  C_6 
REMARK    2  A    between atoms: C_5  and  C_9 
REMARK    3  A    between atoms: C_6  and  O_16 
REMARK    4  A    between atoms: C_12  and  C_13 
ROOT
HETATM    1  C   UNK N   1      36.916  11.705  14.290  0.00  0.00     0.013 A 
HETATM    2  C   UNK N   1      37.238  11.990  12.958  0.00  0.00     0.009 A 
HETATM    3  C   UNK N   1      36.807  13.186  12.361  0.00  0.00    -0.044 A 
HETATM    4  C   UNK N   1      36.046  14.087  13.121  0.00  0.00     0.009 A 
HETATM    5  C   UNK N   1      35.741  13.812  14.452  0.00  0.00     0.013 A 
HETATM    6  C   UNK N   1      36.176  12.623  15.053  0.00  0.00    -0.026 A 
ENDROOT
BRANCH   3   7
HETATM    7  C   UNK N   1      37.215  13.505  10.936  0.00  0.00     0.112 C 
HETATM    8  C   UNK N   1      38.466  12.711  10.567  0.00  0.00     0.026 C 
BRANCH   7   9
HETATM    9  C   UNK N   1      36.122  13.257   9.916  0.00  0.00     0.148 C 
HETATM   10  O   UNK N   1      35.412  14.188   9.545  0.00  0.00    -0.649 OA
BRANCH   9  11
HETATM   11  O   UNK N   1      35.921  12.034   9.393  0.00  0.00    -0.776 OA
HETATM   12  H   UNK N   1      35.295  11.572   8.871  0.00  0.00     0.167 HD
ENDBRANCH   9  11
ENDBRANCH   7   9
ENDBRANCH   3   7
BRANCH   6  13
HETATM   13  C   UNK N   1      35.866  12.357  16.477  0.00  0.00    -0.026 A 
HETATM   14  C   UNK N   1      35.421  13.386  17.321  0.00  0.00     0.012 A 
HETATM   15  C   UNK N   1      35.130  13.123  18.664  0.00  0.00     0.001 A 
HETATM   16  C   UNK N   1      35.269  11.828  19.169  0.00  0.00     0.000 A 
HETATM   17  C   UNK N   1      35.703  10.796  18.336  0.00  0.00     0.001 A 
HETATM   18  C   UNK N   1      36.004  11.059  16.998  0.00  0.00     0.012 A 
ENDBRANCH   6  13
TORSDOF 4
ENDMDL
