MODEL 1
REMARK VINA RESULT:      -5.8      0.000      0.000
REMARK  13 active torsions:
REMARK  status: ('A' for Active; 'I' for Inactive)
REMARK    1  A    between atoms: C_1  and  O_2 
REMARK    2  A    between atoms: C_3  and  O_4 
REMARK    3  A    between atoms: O_4  and  C_13 
REMARK    4  A    between atoms: C_5  and  O_6 
REMARK    5  A    between atoms: C_7  and  O_8 
REMARK    6  A    between atoms: C_9  and  C_11 
REMARK    7  A    between atoms: C_11  and  O_12 
REMARK    8  A    between atoms: C_13  and  C_14 
REMARK    9  A    between atoms: C_14  and  C_15 
REMARK   10  A    between atoms: C_15  and  C_16 
REMARK   11  A    between atoms: C_16  and  C_17 
REMARK   12  A    between atoms: C_17  and  C_18 
REMARK   13  A    between atoms: C_18  and  C_19 
ROOT
HETATM    1  C   UNK N   1      35.844  15.702  10.562  0.00  0.00     0.288 C 
HETATM    2  C   UNK N   1      34.517  15.242  11.200  0.00  0.00     0.207 C 
HETATM    3  C   UNK N   1      33.447  14.934  10.115  0.00  0.00     0.183 C 
HETATM    4  C   UNK N   1      33.596  15.886   8.903  0.00  0.00     0.180 C 
HETATM    5  C   UNK N   1      34.366  17.161   9.316  0.00  0.00     0.179 C 
HETATM    6  O   UNK N   1      35.703  16.856   9.720  0.00  0.00    -0.349 OA
ENDROOT
BRANCH   2   7
HETATM    7  O   UNK N   1      34.677  14.240  12.193  0.00  0.00    -0.378 OA
BRANCH   7   8
HETATM    8  C   UNK N   1      35.050  13.014  11.619  0.00  0.00     0.168 C 
BRANCH   8   9
HETATM    9  C   UNK N   1      36.194  12.406  12.418  0.00  0.00     0.026 C 
BRANCH   9  10
HETATM   10  C   UNK N   1      36.563  13.308  13.587  0.00  0.00     0.002 C 
BRANCH  10  11
HETATM   11  C   UNK N   1      36.659  12.523  14.883  0.00  0.00     0.000 C 
BRANCH  11  12
HETATM   12  C   UNK N   1      35.381  12.656  15.690  0.00  0.00     0.000 C 
BRANCH  12  13
HETATM   13  C   UNK N   1      35.069  11.353  16.395  0.00  0.00    -0.000 C 
BRANCH  13  14
HETATM   14  C   UNK N   1      34.719  10.299  15.366  0.00  0.00    -0.005 C 
HETATM   15  C   UNK N   1      33.519  10.756  14.566  0.00  0.00     0.005 C 
ENDBRANCH  13  14
ENDBRANCH  12  13
ENDBRANCH  11  12
ENDBRANCH  10  11
ENDBRANCH   9  10
ENDBRANCH   8   9
ENDBRANCH   7   8
ENDBRANCH   2   7
BRANCH   1  16
HETATM   16  O   UNK N   1      36.748  16.014  11.578  0.00  0.00    -0.369 OA
HETATM   17  H   UNK N   1      37.582  15.526  11.659  0.00  0.00     0.212 HD
ENDBRANCH   1  16
BRANCH   3  18
HETATM   18  O   UNK N   1      32.182  15.076  10.691  0.00  0.00    -0.390 OA
HETATM   19  H   UNK N   1      31.218  15.177  10.695  0.00  0.00     0.210 HD
ENDBRANCH   3  18
BRANCH   4  20
HETATM   20  O   UNK N   1      34.321  15.238   7.897  0.00  0.00    -0.390 OA
HETATM   21  H   UNK N   1      34.966  14.905   7.253  0.00  0.00     0.210 HD
ENDBRANCH   4  20
BRANCH   5  22
HETATM   22  C   UNK N   1      34.408  18.181   8.179  0.00  0.00     0.198 C 
BRANCH  22  23
HETATM   23  O   UNK N   1      35.299  19.221   8.454  0.00  0.00    -0.398 OA
HETATM   24  H   UNK N   1      35.780  19.991   8.796  0.00  0.00     0.209 HD
ENDBRANCH  22  23
ENDBRANCH   5  22
TORSDOF 13
ENDMDL
MODEL 2
REMARK VINA RESULT:      -5.6      1.170      2.185
REMARK  13 active torsions:
REMARK  status: ('A' for Active; 'I' for Inactive)
REMARK    1  A    between atoms: C_1  and  O_2 
REMARK    2  A    between atoms: C_3  and  O_4 
REMARK    3  A    between atoms: O_4  and  C_13 
REMARK    4  A    between atoms: C_5  and  O_6 
REMARK    5  A    between atoms: C_7  and  O_8 
REMARK    6  A    between atoms: C_9  and  C_11 
REMARK    7  A    between atoms: C_11  and  O_12 
REMARK    8  A    between atoms: C_13  and  C_14 
REMARK    9  A    between atoms: C_14  and  C_15 
REMARK   10  A    between atoms: C_15  and  C_16 
REMARK   11  A    between atoms: C_16  and  C_17 
REMARK   12  A    between atoms: C_17  and  C_18 
REMARK   13  A    between atoms: C_18  and  C_19 
ROOT
HETATM    1  C   UNK N   1      33.438  14.576   9.818  0.00  0.00     0.288 C 
HETATM    2  C   UNK N   1      34.734  14.741  10.638  0.00  0.00     0.207 C 
HETATM    3  C   UNK N   1      35.198  16.224  10.664  0.00  0.00     0.183 C 
HETATM    4  C   UNK N   1      34.865  16.934   9.330  0.00  0.00     0.180 C 
HETATM    5  C   UNK N   1      34.671  15.893   8.204  0.00  0.00     0.179 C 
HETATM    6  O   UNK N   1      33.553  15.042   8.466  0.00  0.00    -0.349 OA
ENDROOT
BRANCH   2   7
HETATM    7  O   UNK N   1      34.698  14.095  11.901  0.00  0.00    -0.378 OA
BRANCH   7   8
HETATM    8  C   UNK N   1      35.526  12.961  11.914  0.00  0.00     0.168 C 
BRANCH   8   9
HETATM    9  C   UNK N   1      36.628  13.149  12.948  0.00  0.00     0.026 C 
BRANCH   9  10
HETATM   10  C   UNK N   1      36.177  14.114  14.035  0.00  0.00     0.002 C 
BRANCH  10  11
HETATM   11  C   UNK N   1      36.297  13.491  15.414  0.00  0.00     0.000 C 
BRANCH  11  12
HETATM   12  C   UNK N   1      34.951  12.982  15.895  0.00  0.00     0.000 C 
BRANCH  12  13
HETATM   13  C   UNK N   1      35.086  11.576  16.439  0.00  0.00    -0.000 C 
BRANCH  13  14
HETATM   14  C   UNK N   1      34.937  10.585  15.304  0.00  0.00    -0.005 C 
HETATM   15  C   UNK N   1      33.609  10.808  14.614  0.00  0.00     0.005 C 
ENDBRANCH  13  14
ENDBRANCH  12  13
ENDBRANCH  11  12
ENDBRANCH  10  11
ENDBRANCH   9  10
ENDBRANCH   8   9
ENDBRANCH   7   8
ENDBRANCH   2   7
BRANCH   1  16
HETATM   16  O   UNK N   1      33.096  13.223   9.784  0.00  0.00    -0.369 OA
HETATM   17  H   UNK N   1      33.788  12.544   9.769  0.00  0.00     0.212 HD
ENDBRANCH   1  16
BRANCH   3  18
HETATM   18  O   UNK N   1      36.576  16.251  10.897  0.00  0.00    -0.390 OA
HETATM   19  H   UNK N   1      37.382  16.311  11.433  0.00  0.00     0.210 HD
ENDBRANCH   3  18
BRANCH   4  20
HETATM   20  O   UNK N   1      33.673  17.652   9.477  0.00  0.00    -0.390 OA
HETATM   21  H   UNK N   1      32.862  18.101   9.763  0.00  0.00     0.210 HD
ENDBRANCH   4  20
BRANCH   5  22
HETATM   22  C   UNK N   1      34.479  16.567   6.846  0.00  0.00     0.198 C 
BRANCH  22  23
HETATM   23  O   UNK N   1      34.600  17.955   6.939  0.00  0.00    -0.398 OA
HETATM   24  H   UNK N   1      34.713  18.908   6.795  0.00  0.00     0.209 HD
ENDBRANCH  22  23
ENDBRANCH   5  22
TORSDOF 13
ENDMDL
MODEL 3
REMARK VINA RESULT:      -5.3      2.663      7.834
REMARK  13 active torsions:
REMARK  status: ('A' for Active; 'I' for Inactive)
REMARK    1  A    between atoms: C_1  and  O_2 
REMARK    2  A    between atoms: C_3  and  O_4 
REMARK    3  A    between atoms: O_4  and  C_13 
REMARK    4  A    between atoms: C_5  and  O_6 
REMARK    5  A    between atoms: C_7  and  O_8 
REMARK    6  A    between atoms: C_9  and  C_11 
REMARK    7  A    between atoms: C_11  and  O_12 
REMARK    8  A    between atoms: C_13  and  C_14 
REMARK    9  A    between atoms: C_14  and  C_15 
REMARK   10  A    between atoms: C_15  and  C_16 
REMARK   11  A    between atoms: C_16  and  C_17 
REMARK   12  A    between atoms: C_17  and  C_18 
REMARK   13  A    between atoms: C_18  and  C_19 
ROOT
HETATM    1  C   UNK N   1      34.184  14.423  11.061  0.00  0.00     0.288 C 
HETATM    2  C   UNK N   1      35.259  15.325  10.420  0.00  0.00     0.207 C 
HETATM    3  C   UNK N   1      36.652  14.636  10.430  0.00  0.00     0.183 C 
HETATM    4  C   UNK N   1      36.829  13.762  11.696  0.00  0.00     0.180 C 
HETATM    5  C   UNK N   1      35.853  14.220  12.803  0.00  0.00     0.179 C 
HETATM    6  O   UNK N   1      34.492  14.037  12.408  0.00  0.00    -0.349 OA
ENDROOT
BRANCH   2   7
HETATM    7  O   UNK N   1      34.869  15.882   9.174  0.00  0.00    -0.378 OA
BRANCH   7   8
HETATM    8  C   UNK N   1      34.790  17.282   9.247  0.00  0.00     0.168 C 
BRANCH   8   9
HETATM    9  C   UNK N   1      34.418  17.842   7.881  0.00  0.00     0.026 C 
BRANCH   9  10
HETATM   10  C   UNK N   1      32.908  17.981   7.756  0.00  0.00     0.002 C 
BRANCH  10  11
HETATM   11  C   UNK N   1      32.372  17.175   6.587  0.00  0.00     0.000 C 
BRANCH  11  12
HETATM   12  C   UNK N   1      33.090  17.546   5.302  0.00  0.00     0.000 C 
BRANCH  12  13
HETATM   13  C   UNK N   1      32.214  17.238   4.106  0.00  0.00    -0.000 C 
BRANCH  13  14
HETATM   14  C   UNK N   1      33.058  16.608   3.018  0.00  0.00    -0.005 C 
HETATM   15  C   UNK N   1      33.041  15.103   3.178  0.00  0.00     0.005 C 
ENDBRANCH  13  14
ENDBRANCH  12  13
ENDBRANCH  11  12
ENDBRANCH  10  11
ENDBRANCH   9  10
ENDBRANCH   8   9
ENDBRANCH   7   8
ENDBRANCH   2   7
BRANCH   1  16
HETATM   16  O   UNK N   1      32.969  15.109  11.072  0.00  0.00    -0.369 OA
HETATM   17  H   UNK N   1      32.345  14.988  11.805  0.00  0.00     0.212 HD
ENDBRANCH   1  16
BRANCH   3  18
HETATM   18  O   UNK N   1      37.635  15.629  10.384  0.00  0.00    -0.390 OA
HETATM   19  H   UNK N   1      38.494  16.013  10.151  0.00  0.00     0.210 HD
ENDBRANCH   3  18
BRANCH   4  20
HETATM   20  O   UNK N   1      36.543  12.430  11.378  0.00  0.00    -0.390 OA
HETATM   21  H   UNK N   1      36.408  11.471  11.334  0.00  0.00     0.210 HD
ENDBRANCH   4  20
BRANCH   5  22
HETATM   22  C   UNK N   1      36.100  13.470  14.112  0.00  0.00     0.198 C 
BRANCH  22  23
HETATM   23  O   UNK N   1      37.408  12.989  14.190  0.00  0.00    -0.398 OA
HETATM   24  H   UNK N   1      38.295  12.694  14.450  0.00  0.00     0.209 HD
ENDBRANCH  22  23
ENDBRANCH   5  22
TORSDOF 13
ENDMDL
MODEL 4
REMARK VINA RESULT:      -5.3      3.414      7.980
REMARK  13 active torsions:
REMARK  status: ('A' for Active; 'I' for Inactive)
REMARK    1  A    between atoms: C_1  and  O_2 
REMARK    2  A    between atoms: C_3  and  O_4 
REMARK    3  A    between atoms: O_4  and  C_13 
REMARK    4  A    between atoms: C_5  and  O_6 
REMARK    5  A    between atoms: C_7  and  O_8 
REMARK    6  A    between atoms: C_9  and  C_11 
REMARK    7  A    between atoms: C_11  and  O_12 
REMARK    8  A    between atoms: C_13  and  C_14 
REMARK    9  A    between atoms: C_14  and  C_15 
REMARK   10  A    between atoms: C_15  and  C_16 
REMARK   11  A    between atoms: C_16  and  C_17 
REMARK   12  A    between atoms: C_17  and  C_18 
REMARK   13  A    between atoms: C_18  and  C_19 
ROOT
HETATM    1  C   UNK N   1      34.434  17.921   8.638  0.00  0.00     0.288 C 
HETATM    2  C   UNK N   1      34.603  16.941   7.458  0.00  0.00     0.207 C 
HETATM    3  C   UNK N   1      33.782  15.640   7.685  0.00  0.00     0.183 C 
HETATM    4  C   UNK N   1      33.741  15.264   9.186  0.00  0.00     0.180 C 
HETATM    5  C   UNK N   1      34.914  15.934   9.937  0.00  0.00     0.179 C 
HETATM    6  O   UNK N   1      34.809  17.359   9.904  0.00  0.00    -0.349 OA
ENDROOT
BRANCH   2   7
HETATM    7  O   UNK N   1      34.438  17.546   6.184  0.00  0.00    -0.378 OA
BRANCH   7   8
HETATM    8  C   UNK N   1      33.079  17.672   5.856  0.00  0.00     0.168 C 
BRANCH   8   9
HETATM    9  C   UNK N   1      32.878  17.327   4.387  0.00  0.00     0.026 C 
BRANCH   9  10
HETATM   10  C   UNK N   1      31.498  16.726   4.166  0.00  0.00     0.002 C 
BRANCH  10  11
HETATM   11  C   UNK N   1      30.411  17.600   4.765  0.00  0.00     0.000 C 
BRANCH  11  12
HETATM   12  C   UNK N   1      29.595  16.824   5.784  0.00  0.00     0.000 C 
BRANCH  12  13
HETATM   13  C   UNK N   1      28.187  17.375   5.856  0.00  0.00    -0.000 C 
BRANCH  13  14
HETATM   14  C   UNK N   1      28.109  18.402   6.966  0.00  0.00    -0.005 C 
HETATM   15  C   UNK N   1      28.843  17.883   8.184  0.00  0.00     0.005 C 
ENDBRANCH  13  14
ENDBRANCH  12  13
ENDBRANCH  11  12
ENDBRANCH  10  11
ENDBRANCH   9  10
ENDBRANCH   8   9
ENDBRANCH   7   8
ENDBRANCH   2   7
BRANCH   1  16
HETATM   16  O   UNK N   1      35.230  19.043   8.407  0.00  0.00    -0.369 OA
HETATM   17  H   UNK N   1      35.553  19.575   9.151  0.00  0.00     0.212 HD
ENDBRANCH   1  16
BRANCH   3  18
HETATM   18  O   UNK N   1      34.370  14.612   6.942  0.00  0.00    -0.390 OA
HETATM   19  H   UNK N   1      34.972  13.870   6.781  0.00  0.00     0.210 HD
ENDBRANCH   3  18
BRANCH   4  20
HETATM   20  O   UNK N   1      32.541  15.722   9.742  0.00  0.00    -0.390 OA
HETATM   21  H   UNK N   1      31.644  16.025   9.949  0.00  0.00     0.210 HD
ENDBRANCH   4  20
BRANCH   5  22
HETATM   22  C   UNK N   1      34.983  15.471  11.392  0.00  0.00     0.198 C 
BRANCH  22  23
HETATM   23  O   UNK N   1      34.078  14.439  11.647  0.00  0.00    -0.398 OA
HETATM   24  H   UNK N   1      33.307  13.878  11.824  0.00  0.00     0.209 HD
ENDBRANCH  22  23
ENDBRANCH   5  22
TORSDOF 13
ENDMDL
MODEL 5
REMARK VINA RESULT:      -5.3      1.543      2.064
REMARK  13 active torsions:
REMARK  status: ('A' for Active; 'I' for Inactive)
REMARK    1  A    between atoms: C_1  and  O_2 
REMARK    2  A    between atoms: C_3  and  O_4 
REMARK    3  A    between atoms: O_4  and  C_13 
REMARK    4  A    between atoms: C_5  and  O_6 
REMARK    5  A    between atoms: C_7  and  O_8 
REMARK    6  A    between atoms: C_9  and  C_11 
REMARK    7  A    between atoms: C_11  and  O_12 
REMARK    8  A    between atoms: C_13  and  C_14 
REMARK    9  A    between atoms: C_14  and  C_15 
REMARK   10  A    between atoms: C_15  and  C_16 
REMARK   11  A    between atoms: C_16  and  C_17 
REMARK   12  A    between atoms: C_17  and  C_18 
REMARK   13  A    between atoms: C_18  and  C_19 
ROOT
HETATM    1  C   UNK N   1      34.834  16.349   9.914  0.00  0.00     0.288 C 
HETATM    2  C   UNK N   1      33.872  15.200  10.282  0.00  0.00     0.207 C 
HETATM    3  C   UNK N   1      33.582  14.293   9.053  0.00  0.00     0.183 C 
HETATM    4  C   UNK N   1      33.556  15.123   7.746  0.00  0.00     0.180 C 
HETATM    5  C   UNK N   1      33.295  16.612   8.063  0.00  0.00     0.179 C 
HETATM    6  O   UNK N   1      34.353  17.174   8.842  0.00  0.00    -0.349 OA
ENDROOT
BRANCH   2   7
HETATM    7  O   UNK N   1      34.233  14.512  11.470  0.00  0.00    -0.378 OA
BRANCH   7   8
HETATM    8  C   UNK N   1      35.372  13.715  11.267  0.00  0.00     0.168 C 
BRANCH   8   9
HETATM    9  C   UNK N   1      35.188  12.379  11.974  0.00  0.00     0.026 C 
BRANCH   9  10
HETATM   10  C   UNK N   1      34.940  12.593  13.459  0.00  0.00     0.002 C 
BRANCH  10  11
HETATM   11  C   UNK N   1      36.139  13.235  14.135  0.00  0.00     0.000 C 
BRANCH  11  12
HETATM   12  C   UNK N   1      36.262  12.768  15.573  0.00  0.00     0.000 C 
BRANCH  12  13
HETATM   13  C   UNK N   1      34.909  12.803  16.253  0.00  0.00    -0.000 C 
BRANCH  13  14
HETATM   14  C   UNK N   1      35.105  12.859  17.753  0.00  0.00    -0.005 C 
HETATM   15  C   UNK N   1      35.334  14.294  18.177  0.00  0.00     0.005 C 
ENDBRANCH  13  14
ENDBRANCH  12  13
ENDBRANCH  11  12
ENDBRANCH  10  11
ENDBRANCH   9  10
ENDBRANCH   8   9
ENDBRANCH   7   8
ENDBRANCH   2   7
BRANCH   1  16
HETATM   16  O   UNK N   1      35.018  17.158  11.036  0.00  0.00    -0.369 OA
HETATM   17  H   UNK N   1      35.061  18.123  10.942  0.00  0.00     0.212 HD
ENDBRANCH   1  16
BRANCH   3  18
HETATM   18  O   UNK N   1      32.350  13.662   9.253  0.00  0.00    -0.390 OA
HETATM   19  H   UNK N   1      31.540  13.200   8.989  0.00  0.00     0.210 HD
ENDBRANCH   3  18
BRANCH   4  20
HETATM   20  O   UNK N   1      34.798  15.017   7.111  0.00  0.00    -0.390 OA
HETATM   21  H   UNK N   1      35.578  15.052   6.536  0.00  0.00     0.210 HD
ENDBRANCH   4  20
BRANCH   5  22
HETATM   22  C   UNK N   1      33.125  17.434   6.785  0.00  0.00     0.198 C 
BRANCH  22  23
HETATM   23  O   UNK N   1      34.357  17.819   6.253  0.00  0.00    -0.398 OA
HETATM   24  H   UNK N   1      35.265  18.118   6.085  0.00  0.00     0.209 HD
ENDBRANCH  22  23
ENDBRANCH   5  22
TORSDOF 13
ENDMDL
MODEL 6
REMARK VINA RESULT:      -5.3     13.770     15.876
REMARK  13 active torsions:
REMARK  status: ('A' for Active; 'I' for Inactive)
REMARK    1  A    between atoms: C_1  and  O_2 
REMARK    2  A    between atoms: C_3  and  O_4 
REMARK    3  A    between atoms: O_4  and  C_13 
REMARK    4  A    between atoms: C_5  and  O_6 
REMARK    5  A    between atoms: C_7  and  O_8 
REMARK    6  A    between atoms: C_9  and  C_11 
REMARK    7  A    between atoms: C_11  and  O_12 
REMARK    8  A    between atoms: C_13  and  C_14 
REMARK    9  A    between atoms: C_14  and  C_15 
REMARK   10  A    between atoms: C_15  and  C_16 
REMARK   11  A    between atoms: C_16  and  C_17 
REMARK   12  A    between atoms: C_17  and  C_18 
REMARK   13  A    between atoms: C_18  and  C_19 
ROOT
HETATM    1  C   UNK N   1      19.933  17.597   2.877  0.00  0.00     0.288 C 
HETATM    2  C   UNK N   1      21.357  17.295   3.387  0.00  0.00     0.207 C 
HETATM    3  C   UNK N   1      21.985  18.539   4.075  0.00  0.00     0.183 C 
HETATM    4  C   UNK N   1      21.519  19.847   3.389  0.00  0.00     0.180 C 
HETATM    5  C   UNK N   1      21.026  19.551   1.955  0.00  0.00     0.179 C 
HETATM    6  O   UNK N   1      19.877  18.701   1.961  0.00  0.00    -0.349 OA
ENDROOT
BRANCH   2   7
HETATM    7  O   UNK N   1      21.456  16.084   4.121  0.00  0.00    -0.378 OA
BRANCH   7   8
HETATM    8  C   UNK N   1      20.933  16.233   5.416  0.00  0.00     0.168 C 
BRANCH   8   9
HETATM    9  C   UNK N   1      20.016  15.059   5.731  0.00  0.00     0.026 C 
BRANCH   9  10
HETATM   10  C   UNK N   1      20.644  14.161   6.786  0.00  0.00     0.002 C 
BRANCH  10  11
HETATM   11  C   UNK N   1      21.507  14.958   7.748  0.00  0.00     0.000 C 
BRANCH  11  12
HETATM   12  C   UNK N   1      20.756  15.242   9.037  0.00  0.00     0.000 C 
BRANCH  12  13
HETATM   13  C   UNK N   1      20.559  13.962   9.821  0.00  0.00    -0.000 C 
BRANCH  13  14
HETATM   14  C   UNK N   1      21.910  13.350  10.128  0.00  0.00    -0.005 C 
HETATM   15  C   UNK N   1      21.724  12.146  11.026  0.00  0.00     0.005 C 
ENDBRANCH  13  14
ENDBRANCH  12  13
ENDBRANCH  11  12
ENDBRANCH  10  11
ENDBRANCH   9  10
ENDBRANCH   8   9
ENDBRANCH   7   8
ENDBRANCH   2   7
BRANCH   1  16
HETATM   16  O   UNK N   1      19.439  16.467   2.224  0.00  0.00    -0.369 OA
HETATM   17  H   UNK N   1      19.700  16.276   1.310  0.00  0.00     0.212 HD
ENDBRANCH   1  16
BRANCH   3  18
HETATM   18  O   UNK N   1      23.376  18.425   4.008  0.00  0.00    -0.390 OA
HETATM   19  H   UNK N   1      24.222  17.967   3.883  0.00  0.00     0.210 HD
ENDBRANCH   3  18
BRANCH   4  20
HETATM   20  O   UNK N   1      20.457  20.394   4.117  0.00  0.00    -0.390 OA
HETATM   21  H   UNK N   1      19.626  20.619   4.564  0.00  0.00     0.210 HD
ENDBRANCH   4  20
BRANCH   5  22
HETATM   22  C   UNK N   1      20.691  20.839   1.202  0.00  0.00     0.198 C 
BRANCH  22  23
HETATM   23  O   UNK N   1      20.585  20.618  -0.172  0.00  0.00    -0.398 OA
HETATM   24  H   UNK N   1      20.596  20.278  -1.081  0.00  0.00     0.209 HD
ENDBRANCH  22  23
ENDBRANCH   5  22
TORSDOF 13
ENDMDL
MODEL 7
REMARK VINA RESULT:      -5.2     13.143     14.924
REMARK  13 active torsions:
REMARK  status: ('A' for Active; 'I' for Inactive)
REMARK    1  A    between atoms: C_1  and  O_2 
REMARK    2  A    between atoms: C_3  and  O_4 
REMARK    3  A    between atoms: O_4  and  C_13 
REMARK    4  A    between atoms: C_5  and  O_6 
REMARK    5  A    between atoms: C_7  and  O_8 
REMARK    6  A    between atoms: C_9  and  C_11 
REMARK    7  A    between atoms: C_11  and  O_12 
REMARK    8  A    between atoms: C_13  and  C_14 
REMARK    9  A    between atoms: C_14  and  C_15 
REMARK   10  A    between atoms: C_15  and  C_16 
REMARK   11  A    between atoms: C_16  and  C_17 
REMARK   12  A    between atoms: C_17  and  C_18 
REMARK   13  A    between atoms: C_18  and  C_19 
ROOT
HETATM    1  C   UNK N   1      22.011  17.526   5.101  0.00  0.00     0.288 C 
HETATM    2  C   UNK N   1      20.680  16.836   5.463  0.00  0.00     0.207 C 
HETATM    3  C   UNK N   1      19.885  16.439   4.187  0.00  0.00     0.183 C 
HETATM    4  C   UNK N   1      20.099  17.474   3.056  0.00  0.00     0.180 C 
HETATM    5  C   UNK N   1      20.571  18.822   3.647  0.00  0.00     0.179 C 
HETATM    6  O   UNK N   1      21.844  18.695   4.285  0.00  0.00    -0.349 OA
ENDROOT
BRANCH   2   7
HETATM    7  O   UNK N   1      20.814  15.810   6.436  0.00  0.00    -0.378 OA
BRANCH   7   8
HETATM    8  C   UNK N   1      19.927  16.009   7.506  0.00  0.00     0.168 C 
BRANCH   8   9
HETATM    9  C   UNK N   1      20.682  15.875   8.822  0.00  0.00     0.026 C 
BRANCH   9  10
HETATM   10  C   UNK N   1      20.407  14.520   9.457  0.00  0.00     0.002 C 
BRANCH  10  11
HETATM   11  C   UNK N   1      21.696  13.769   9.736  0.00  0.00     0.000 C 
BRANCH  11  12
HETATM   12  C   UNK N   1      21.431  12.541  10.589  0.00  0.00     0.000 C 
BRANCH  12  13
HETATM   13  C   UNK N   1      22.624  11.609  10.551  0.00  0.00    -0.000 C 
BRANCH  13  14
HETATM   14  C   UNK N   1      23.660  12.083  11.548  0.00  0.00    -0.005 C 
HETATM   15  C   UNK N   1      23.154  11.837  12.953  0.00  0.00     0.005 C 
ENDBRANCH  13  14
ENDBRANCH  12  13
ENDBRANCH  11  12
ENDBRANCH  10  11
ENDBRANCH   9  10
ENDBRANCH   8   9
ENDBRANCH   7   8
ENDBRANCH   2   7
BRANCH   1  16
HETATM   16  O   UNK N   1      22.656  17.907   6.278  0.00  0.00    -0.369 OA
HETATM   17  H   UNK N   1      22.195  17.848   7.130  0.00  0.00     0.212 HD
ENDBRANCH   1  16
BRANCH   3  18
HETATM   18  O   UNK N   1      18.530  16.355   4.520  0.00  0.00    -0.390 OA
HETATM   19  H   UNK N   1      17.621  16.026   4.452  0.00  0.00     0.210 HD
ENDBRANCH   3  18
BRANCH   4  20
HETATM   20  O   UNK N   1      21.086  17.004   2.184  0.00  0.00    -0.390 OA
HETATM   21  H   UNK N   1      21.875  16.658   1.737  0.00  0.00     0.210 HD
ENDBRANCH   4  20
BRANCH   5  22
HETATM   22  C   UNK N   1      20.656  19.905   2.572  0.00  0.00     0.198 C 
BRANCH  22  23
HETATM   23  O   UNK N   1      20.100  19.476   1.365  0.00  0.00    -0.398 OA
HETATM   24  H   UNK N   1      19.897  19.076   0.505  0.00  0.00     0.209 HD
ENDBRANCH  22  23
ENDBRANCH   5  22
TORSDOF 13
ENDMDL
MODEL 8
REMARK VINA RESULT:      -5.1      2.630      7.133
REMARK  13 active torsions:
REMARK  status: ('A' for Active; 'I' for Inactive)
REMARK    1  A    between atoms: C_1  and  O_2 
REMARK    2  A    between atoms: C_3  and  O_4 
REMARK    3  A    between atoms: O_4  and  C_13 
REMARK    4  A    between atoms: C_5  and  O_6 
REMARK    5  A    between atoms: C_7  and  O_8 
REMARK    6  A    between atoms: C_9  and  C_11 
REMARK    7  A    between atoms: C_11  and  O_12 
REMARK    8  A    between atoms: C_13  and  C_14 
REMARK    9  A    between atoms: C_14  and  C_15 
REMARK   10  A    between atoms: C_15  and  C_16 
REMARK   11  A    between atoms: C_16  and  C_17 
REMARK   12  A    between atoms: C_17  and  C_18 
REMARK   13  A    between atoms: C_18  and  C_19 
ROOT
HETATM    1  C   UNK N   1      34.266  14.398  11.068  0.00  0.00     0.288 C 
HETATM    2  C   UNK N   1      35.348  15.268  10.395  0.00  0.00     0.207 C 
HETATM    3  C   UNK N   1      36.735  14.565  10.423  0.00  0.00     0.183 C 
HETATM    4  C   UNK N   1      36.907  13.731  11.717  0.00  0.00     0.180 C 
HETATM    5  C   UNK N   1      35.940  14.235  12.811  0.00  0.00     0.179 C 
HETATM    6  O   UNK N   1      34.575  14.053  12.426  0.00  0.00    -0.349 OA
ENDROOT
BRANCH   2   7
HETATM    7  O   UNK N   1      34.959  15.788   9.133  0.00  0.00    -0.378 OA
BRANCH   7   8
HETATM    8  C   UNK N   1      34.794  17.182   9.189  0.00  0.00     0.168 C 
BRANCH   8   9
HETATM    9  C   UNK N   1      34.125  17.665   7.909  0.00  0.00     0.026 C 
BRANCH   9  10
HETATM   10  C   UNK N   1      32.891  16.828   7.607  0.00  0.00     0.002 C 
BRANCH  10  11
HETATM   11  C   UNK N   1      31.632  17.676   7.607  0.00  0.00     0.000 C 
BRANCH  11  12
HETATM   12  C   UNK N   1      30.785  17.384   8.832  0.00  0.00     0.000 C 
BRANCH  12  13
HETATM   13  C   UNK N   1      30.071  18.639   9.287  0.00  0.00    -0.000 C 
BRANCH  13  14
HETATM   14  C   UNK N   1      28.643  18.612   8.785  0.00  0.00    -0.005 C 
HETATM   15  C   UNK N   1      27.982  17.323   9.222  0.00  0.00     0.005 C 
ENDBRANCH  13  14
ENDBRANCH  12  13
ENDBRANCH  11  12
ENDBRANCH  10  11
ENDBRANCH   9  10
ENDBRANCH   8   9
ENDBRANCH   7   8
ENDBRANCH   2   7
BRANCH   1  16
HETATM   16  O   UNK N   1      33.059  15.096  11.061  0.00  0.00    -0.369 OA
HETATM   17  H   UNK N   1      32.984  15.940  10.589  0.00  0.00     0.212 HD
ENDBRANCH   1  16
BRANCH   3  18
HETATM   18  O   UNK N   1      37.727  15.546  10.342  0.00  0.00    -0.390 OA
HETATM   19  H   UNK N   1      38.279  16.212   9.904  0.00  0.00     0.210 HD
ENDBRANCH   3  18
BRANCH   4  20
HETATM   20  O   UNK N   1      36.606  12.392  11.443  0.00  0.00    -0.390 OA
HETATM   21  H   UNK N   1      36.539  11.427  11.375  0.00  0.00     0.210 HD
ENDBRANCH   4  20
BRANCH   5  22
HETATM   22  C   UNK N   1      36.183  13.524  14.142  0.00  0.00     0.198 C 
BRANCH  22  23
HETATM   23  O   UNK N   1      35.478  12.322  14.220  0.00  0.00    -0.398 OA
HETATM   24  H   UNK N   1      34.943  11.526  14.072  0.00  0.00     0.209 HD
ENDBRANCH  22  23
ENDBRANCH   5  22
TORSDOF 13
ENDMDL
MODEL 9
REMARK VINA RESULT:      -5.1      2.664      7.623
REMARK  13 active torsions:
REMARK  status: ('A' for Active; 'I' for Inactive)
REMARK    1  A    between atoms: C_1  and  O_2 
REMARK    2  A    between atoms: C_3  and  O_4 
REMARK    3  A    between atoms: O_4  and  C_13 
REMARK    4  A    between atoms: C_5  and  O_6 
REMARK    5  A    between atoms: C_7  and  O_8 
REMARK    6  A    between atoms: C_9  and  C_11 
REMARK    7  A    between atoms: C_11  and  O_12 
REMARK    8  A    between atoms: C_13  and  C_14 
REMARK    9  A    between atoms: C_14  and  C_15 
REMARK   10  A    between atoms: C_15  and  C_16 
REMARK   11  A    between atoms: C_16  and  C_17 
REMARK   12  A    between atoms: C_17  and  C_18 
REMARK   13  A    between atoms: C_18  and  C_19 
ROOT
HETATM    1  C   UNK N   1      34.459  13.690  10.022  0.00  0.00     0.288 C 
HETATM    2  C   UNK N   1      34.213  15.202   9.839  0.00  0.00     0.207 C 
HETATM    3  C   UNK N   1      35.452  16.031  10.281  0.00  0.00     0.183 C 
HETATM    4  C   UNK N   1      36.169  15.360  11.478  0.00  0.00     0.180 C 
HETATM    5  C   UNK N   1      35.204  14.403  12.213  0.00  0.00     0.179 C 
HETATM    6  O   UNK N   1      34.794  13.325  11.369  0.00  0.00    -0.349 OA
ENDROOT
BRANCH   2   7
HETATM    7  O   UNK N   1      33.678  15.544   8.570  0.00  0.00    -0.378 OA
BRANCH   7   8
HETATM    8  C   UNK N   1      32.571  16.398   8.701  0.00  0.00     0.168 C 
BRANCH   8   9
HETATM    9  C   UNK N   1      32.796  17.653   7.868  0.00  0.00     0.026 C 
BRANCH   9  10
HETATM   10  C   UNK N   1      33.918  17.430   6.865  0.00  0.00     0.002 C 
BRANCH  10  11
HETATM   11  C   UNK N   1      33.422  17.577   5.438  0.00  0.00     0.000 C 
BRANCH  11  12
HETATM   12  C   UNK N   1      32.182  16.733   5.208  0.00  0.00     0.000 C 
BRANCH  12  13
HETATM   13  C   UNK N   1      31.276  17.398   4.193  0.00  0.00    -0.000 C 
BRANCH  13  14
HETATM   14  C   UNK N   1      29.910  17.615   4.809  0.00  0.00    -0.005 C 
HETATM   15  C   UNK N   1      29.763  16.732   6.029  0.00  0.00     0.005 C 
ENDBRANCH  13  14
ENDBRANCH  12  13
ENDBRANCH  11  12
ENDBRANCH  10  11
ENDBRANCH   9  10
ENDBRANCH   8   9
ENDBRANCH   7   8
ENDBRANCH   2   7
BRANCH   1  16
HETATM   16  O   UNK N   1      33.301  12.999   9.661  0.00  0.00    -0.369 OA
HETATM   17  H   UNK N   1      32.564  12.918  10.286  0.00  0.00     0.212 HD
ENDBRANCH   1  16
BRANCH   3  18
HETATM   18  O   UNK N   1      35.021  17.314  10.630  0.00  0.00    -0.390 OA
HETATM   19  H   UNK N   1      34.762  18.235  10.471  0.00  0.00     0.210 HD
ENDBRANCH   3  18
BRANCH   4  20
HETATM   20  O   UNK N   1      37.255  14.615  11.004  0.00  0.00    -0.390 OA
HETATM   21  H   UNK N   1      38.083  14.136  10.845  0.00  0.00     0.210 HD
ENDBRANCH   4  20
BRANCH   5  22
HETATM   22  C   UNK N   1      35.839  13.833  13.481  0.00  0.00     0.198 C 
BRANCH  22  23
HETATM   23  O   UNK N   1      36.867  14.651  13.954  0.00  0.00    -0.398 OA
HETATM   24  H   UNK N   1      37.703  15.056  14.232  0.00  0.00     0.209 HD
ENDBRANCH  22  23
ENDBRANCH   5  22
TORSDOF 13
ENDMDL
