REMARK  13 active torsions:
REMARK  status: ('A' for Active; 'I' for Inactive)
REMARK    1  A    between atoms: C_1  and  O_2 
REMARK    2  A    between atoms: C_3  and  O_4 
REMARK    3  A    between atoms: O_4  and  C_13 
REMARK    4  A    between atoms: C_5  and  O_6 
REMARK    5  A    between atoms: C_7  and  O_8 
REMARK    6  A    between atoms: C_9  and  C_11 
REMARK    7  A    between atoms: C_11  and  O_12 
REMARK    8  A    between atoms: C_13  and  C_14 
REMARK    9  A    between atoms: C_14  and  C_15 
REMARK   10  A    between atoms: C_15  and  C_16 
REMARK   11  A    between atoms: C_16  and  C_17 
REMARK   12  A    between atoms: C_17  and  C_18 
REMARK   13  A    between atoms: C_18  and  C_19 
ROOT
HETATM    1  C   UNK N   1      -3.239   1.300  -0.807  0.00  0.00     0.288 C 
HETATM    2  C   UNK N   1      -2.235   0.931   0.305  0.00  0.00     0.207 C 
HETATM    3  C   UNK N   1      -1.841  -0.571   0.232  0.00  0.00     0.183 C 
HETATM    4  C   UNK N   1      -3.034  -1.435  -0.245  0.00  0.00     0.180 C 
HETATM    5  C   UNK N   1      -4.365  -0.688  -0.005  0.00  0.00     0.179 C 
HETATM    6  O   UNK N   1      -4.438   0.512  -0.778  0.00  0.00    -0.349 OA
ENDROOT
BRANCH   2   7
HETATM    7  O   UNK N   1      -1.148   1.837   0.417  0.00  0.00    -0.378 OA
BRANCH   7   8
HETATM    8  C   UNK N   1      -0.216   1.639  -0.615  0.00  0.00     0.168 C 
BRANCH   8   9
HETATM    9  C   UNK N   1       1.187   1.578  -0.026  0.00  0.00     0.026 C 
BRANCH   9  10
HETATM   10  C   UNK N   1       1.295   0.435   0.972  0.00  0.00     0.002 C 
BRANCH  10  11
HETATM   11  C   UNK N   1       2.610   0.483   1.729  0.00  0.00     0.000 C 
BRANCH  11  12
HETATM   12  C   UNK N   1       3.702  -0.238   0.960  0.00  0.00     0.000 C 
BRANCH  12  13
HETATM   13  C   UNK N   1       4.404   0.722   0.023  0.00  0.00    -0.000 C 
BRANCH  13  14
HETATM   14  C   UNK N   1       5.498  -0.015  -0.720  0.00  0.00    -0.005 C 
HETATM   15  C   UNK N   1       6.275   0.965  -1.572  0.00  0.00     0.005 C 
ENDBRANCH  13  14
ENDBRANCH  12  13
ENDBRANCH  11  12
ENDBRANCH  10  11
ENDBRANCH   9  10
ENDBRANCH   8   9
ENDBRANCH   7   8
ENDBRANCH   2   7
BRANCH   1  16
HETATM   16  O   UNK N   1      -3.597   2.641  -0.663  0.00  0.00    -0.369 OA
HETATM   17  H   UNK N   1      -2.914   3.322  -0.562  0.00  0.00     0.212 HD
ENDBRANCH   1  16
BRANCH   3  18
HETATM   18  O   UNK N   1      -1.423  -0.979   1.502  0.00  0.00    -0.390 OA
HETATM   19  H   UNK N   1      -1.523  -1.371   2.383  0.00  0.00     0.210 HD
ENDBRANCH   3  18
BRANCH   4  20
HETATM   20  O   UNK N   1      -2.905  -1.678  -1.617  0.00  0.00    -0.390 OA
HETATM   21  H   UNK N   1      -3.006  -1.840  -2.568  0.00  0.00     0.210 HD
ENDBRANCH   4  20
BRANCH   5  22
HETATM   22  C   UNK N   1      -5.569  -1.570  -0.336  0.00  0.00     0.198 C 
BRANCH  22  23
HETATM   23  O   UNK N   1      -5.630  -1.866  -1.699  0.00  0.00    -0.398 OA
HETATM   24  H   UNK N   1      -5.830  -1.932  -2.646  0.00  0.00     0.209 HD
ENDBRANCH  22  23
ENDBRANCH   5  22
TORSDOF 13
