MODEL 1
REMARK VINA RESULT:      -6.0      0.000      0.000
REMARK  12 active torsions:
REMARK  status: ('A' for Active; 'I' for Inactive)
REMARK    1  A    between atoms: C_8  and  C_10 
REMARK    2  A    between atoms: C_10  and  C_11 
REMARK    3  A    between atoms: C_11  and  C_12 
REMARK    4  A    between atoms: C_12  and  C_13 
REMARK    5  A    between atoms: C_13  and  C_14 
REMARK       I    between atoms: C_14  and  N_16 
REMARK    6  A    between atoms: N_16  and  C_17 
REMARK    7  A    between atoms: C_17  and  C_18 
REMARK    8  A    between atoms: C_18  and  C_19 
REMARK    9  A    between atoms: C_19  and  C_20 
REMARK   10  A    between atoms: C_20  and  C_21 
REMARK   11  A    between atoms: C_21  and  C_22 
REMARK   12  A    between atoms: C_22  and  O_23 
ROOT
HETATM    1  C   UNK N   1      28.264  17.745   6.235  0.00  0.00     0.009 C 
ENDROOT
BRANCH   1   2
HETATM    2  C   UNK N   1      29.751  17.477   6.069  0.00  0.00     0.002 C 
BRANCH   2   3
HETATM    3  C   UNK N   1      30.397  17.542   7.430  0.00  0.00     0.017 C 
BRANCH   3   4
HETATM    4  C   UNK N   1      31.208  16.282   7.735  0.00  0.00     0.072 C 
HETATM    5  C   UNK N   1      32.470  16.617   8.534  0.00  0.00     0.123 C 
HETATM    6  C   UNK N   1      33.689  15.862   7.949  0.00  0.00     0.119 C 
HETATM    7  N   UNK N   1      32.896  17.999   8.495  0.00  0.00    -0.335 N 
HETATM    8  N   UNK N   1      34.742  16.849   8.008  0.00  0.00    -0.336 N 
HETATM    9  C   UNK N   1      33.418  15.613   6.475  0.00  0.00     0.101 C 
HETATM   10  C   UNK N   1      34.203  18.041   8.261  0.00  0.00     0.316 C 
HETATM   11  H   UNK N   1      35.702  16.670   7.880  0.00  0.00     0.164 HD
HETATM   12  O   UNK N   1      34.846  19.078   8.272  0.00  0.00    -0.247 OA
HETATM   13  S   UNK N   1      31.639  15.397   6.205  0.00  0.00    -0.160 SA
HETATM   14  H   UNK N   1      32.312  18.781   8.623  0.00  0.00     0.164 HD
ENDBRANCH   3   4
ENDBRANCH   2   3
ENDBRANCH   1   2
BRANCH   1  15
HETATM   15  C   UNK N   1      28.041  19.105   6.872  0.00  0.00     0.103 C 
BRANCH  15  16
HETATM   16  C   UNK N   1      27.609  20.081   5.835  0.00  0.00     0.217 C 
HETATM   17  O   UNK N   1      27.682  21.279   6.066  0.00  0.00    -0.274 OA
HETATM   18  N   UNK N   1      27.180  19.628   4.632  0.00  0.00    -0.361 N 
HETATM   19  H   UNK N   1      27.128  18.657   4.482  0.00  0.00     0.162 HD
BRANCH  18  20
HETATM   20  C   UNK N   1      26.796  20.520   3.563  0.00  0.00     0.122 C 
BRANCH  20  21
HETATM   21  C   UNK N   1      25.454  20.115   2.973  0.00  0.00     0.020 C 
BRANCH  21  22
HETATM   22  C   UNK N   1      24.704  19.211   3.936  0.00  0.00     0.002 C 
BRANCH  22  23
HETATM   23  C   UNK N   1      23.209  19.299   3.717  0.00  0.00     0.010 C 
BRANCH  23  24
HETATM   24  C   UNK N   1      22.894  20.425   2.747  0.00  0.00     0.110 C 
BRANCH  24  25
HETATM   25  C   UNK N   1      21.450  20.796   2.813  0.00  0.00     0.139 C 
HETATM   26  O   UNK N   1      20.747  20.386   3.722  0.00  0.00    -0.650 OA
BRANCH  25  27
HETATM   27  O   UNK N   1      20.918  21.575   1.855  0.00  0.00    -0.776 OA
HETATM   28  H   UNK N   1      20.570  22.422   2.055  0.00  0.00     0.167 HD
ENDBRANCH  25  27
ENDBRANCH  24  25
ENDBRANCH  23  24
ENDBRANCH  22  23
ENDBRANCH  21  22
ENDBRANCH  20  21
ENDBRANCH  18  20
ENDBRANCH  15  16
ENDBRANCH   1  15
TORSDOF 12
ENDMDL
MODEL 2
REMARK VINA RESULT:      -5.9      2.021      2.619
REMARK  12 active torsions:
REMARK  status: ('A' for Active; 'I' for Inactive)
REMARK    1  A    between atoms: C_8  and  C_10 
REMARK    2  A    between atoms: C_10  and  C_11 
REMARK    3  A    between atoms: C_11  and  C_12 
REMARK    4  A    between atoms: C_12  and  C_13 
REMARK    5  A    between atoms: C_13  and  C_14 
REMARK       I    between atoms: C_14  and  N_16 
REMARK    6  A    between atoms: N_16  and  C_17 
REMARK    7  A    between atoms: C_17  and  C_18 
REMARK    8  A    between atoms: C_18  and  C_19 
REMARK    9  A    between atoms: C_19  and  C_20 
REMARK   10  A    between atoms: C_20  and  C_21 
REMARK   11  A    between atoms: C_21  and  C_22 
REMARK   12  A    between atoms: C_22  and  O_23 
ROOT
HETATM    1  C   UNK N   1      29.740  16.935   6.580  0.00  0.00     0.009 C 
ENDROOT
BRANCH   1   2
HETATM    2  C   UNK N   1      31.212  17.107   6.922  0.00  0.00     0.002 C 
BRANCH   2   3
HETATM    3  C   UNK N   1      31.482  16.387   8.219  0.00  0.00     0.017 C 
BRANCH   3   4
HETATM    4  C   UNK N   1      32.374  15.163   8.014  0.00  0.00     0.072 C 
HETATM    5  C   UNK N   1      33.368  15.003   9.167  0.00  0.00     0.123 C 
HETATM    6  C   UNK N   1      34.779  14.686   8.616  0.00  0.00     0.119 C 
HETATM    7  N   UNK N   1      33.594  16.181   9.977  0.00  0.00    -0.335 N 
HETATM    8  N   UNK N   1      35.644  15.477   9.460  0.00  0.00    -0.336 N 
HETATM    9  C   UNK N   1      34.880  15.282   7.223  0.00  0.00     0.101 C 
HETATM   10  C   UNK N   1      34.901  16.340  10.152  0.00  0.00     0.316 C 
HETATM   11  H   UNK N   1      36.625  15.393   9.514  0.00  0.00     0.164 HD
HETATM   12  O   UNK N   1      35.373  17.200  10.876  0.00  0.00    -0.247 OA
HETATM   13  S   UNK N   1      33.254  15.254   6.424  0.00  0.00    -0.160 SA
HETATM   14  H   UNK N   1      32.892  16.769  10.339  0.00  0.00     0.164 HD
ENDBRANCH   3   4
ENDBRANCH   2   3
ENDBRANCH   1   2
BRANCH   1  15
HETATM   15  C   UNK N   1      28.896  16.991   7.840  0.00  0.00     0.103 C 
BRANCH  15  16
HETATM   16  C   UNK N   1      28.251  18.328   7.954  0.00  0.00     0.217 C 
HETATM   17  O   UNK N   1      27.848  18.712   9.042  0.00  0.00    -0.274 OA
HETATM   18  N   UNK N   1      28.158  19.118   6.858  0.00  0.00    -0.361 N 
HETATM   19  H   UNK N   1      28.488  18.774   5.996  0.00  0.00     0.162 HD
BRANCH  18  20
HETATM   20  C   UNK N   1      27.593  20.446   6.907  0.00  0.00     0.122 C 
BRANCH  20  21
HETATM   21  C   UNK N   1      26.654  20.681   5.735  0.00  0.00     0.020 C 
BRANCH  21  22
HETATM   22  C   UNK N   1      27.323  20.279   4.432  0.00  0.00     0.002 C 
BRANCH  22  23
HETATM   23  C   UNK N   1      26.364  19.526   3.534  0.00  0.00     0.010 C 
BRANCH  23  24
HETATM   24  C   UNK N   1      24.931  19.858   3.914  0.00  0.00     0.110 C 
BRANCH  24  25
HETATM   25  C   UNK N   1      24.257  20.627   2.828  0.00  0.00     0.139 C 
HETATM   26  O   UNK N   1      23.247  21.270   3.060  0.00  0.00    -0.650 OA
BRANCH  25  27
HETATM   27  O   UNK N   1      24.759  20.596   1.581  0.00  0.00    -0.776 OA
HETATM   28  H   UNK N   1      25.661  20.394   1.425  0.00  0.00     0.167 HD
ENDBRANCH  25  27
ENDBRANCH  24  25
ENDBRANCH  23  24
ENDBRANCH  22  23
ENDBRANCH  21  22
ENDBRANCH  20  21
ENDBRANCH  18  20
ENDBRANCH  15  16
ENDBRANCH   1  15
TORSDOF 12
ENDMDL
MODEL 3
REMARK VINA RESULT:      -5.8      4.313      5.689
REMARK  12 active torsions:
REMARK  status: ('A' for Active; 'I' for Inactive)
REMARK    1  A    between atoms: C_8  and  C_10 
REMARK    2  A    between atoms: C_10  and  C_11 
REMARK    3  A    between atoms: C_11  and  C_12 
REMARK    4  A    between atoms: C_12  and  C_13 
REMARK    5  A    between atoms: C_13  and  C_14 
REMARK       I    between atoms: C_14  and  N_16 
REMARK    6  A    between atoms: N_16  and  C_17 
REMARK    7  A    between atoms: C_17  and  C_18 
REMARK    8  A    between atoms: C_18  and  C_19 
REMARK    9  A    between atoms: C_19  and  C_20 
REMARK   10  A    between atoms: C_20  and  C_21 
REMARK   11  A    between atoms: C_21  and  C_22 
REMARK   12  A    between atoms: C_22  and  O_23 
ROOT
HETATM    1  C   UNK N   1      32.577  17.700   4.287  0.00  0.00     0.009 C 
ENDROOT
BRANCH   1   2
HETATM    2  C   UNK N   1      33.531  17.292   5.397  0.00  0.00     0.002 C 
BRANCH   2   3
HETATM    3  C   UNK N   1      32.712  16.866   6.590  0.00  0.00     0.017 C 
BRANCH   3   4
HETATM    4  C   UNK N   1      33.099  15.469   7.076  0.00  0.00     0.072 C 
HETATM    5  C   UNK N   1      33.497  15.489   8.554  0.00  0.00     0.123 C 
HETATM    6  C   UNK N   1      34.788  14.661   8.771  0.00  0.00     0.119 C 
HETATM    7  N   UNK N   1      33.847  16.783   9.099  0.00  0.00    -0.335 N 
HETATM    8  N   UNK N   1      35.534  15.462   9.714  0.00  0.00    -0.336 N 
HETATM    9  C   UNK N   1      35.578  14.683   7.474  0.00  0.00     0.101 C 
HETATM   10  C   UNK N   1      34.972  16.667   9.796  0.00  0.00     0.316 C 
HETATM   11  H   UNK N   1      36.329  15.165  10.214  0.00  0.00     0.164 HD
HETATM   12  O   UNK N   1      35.446  17.584  10.447  0.00  0.00    -0.247 OA
HETATM   13  S   UNK N   1      34.442  14.775   6.064  0.00  0.00    -0.160 SA
HETATM   14  H   UNK N   1      33.334  17.613   8.974  0.00  0.00     0.164 HD
ENDBRANCH   3   4
ENDBRANCH   2   3
ENDBRANCH   1   2
BRANCH   1  15
HETATM   15  C   UNK N   1      31.823  16.489   3.768  0.00  0.00     0.103 C 
BRANCH  15  16
HETATM   16  C   UNK N   1      30.378  16.819   3.628  0.00  0.00     0.217 C 
HETATM   17  O   UNK N   1      29.698  16.213   2.812  0.00  0.00    -0.274 OA
HETATM   18  N   UNK N   1      29.827  17.756   4.437  0.00  0.00    -0.361 N 
HETATM   19  H   UNK N   1      30.405  18.227   5.078  0.00  0.00     0.162 HD
BRANCH  18  20
HETATM   20  C   UNK N   1      28.422  18.086   4.391  0.00  0.00     0.122 C 
BRANCH  20  21
HETATM   21  C   UNK N   1      27.904  18.448   5.774  0.00  0.00     0.020 C 
BRANCH  21  22
HETATM   22  C   UNK N   1      27.510  17.194   6.536  0.00  0.00     0.002 C 
BRANCH  22  23
HETATM   23  C   UNK N   1      28.093  17.198   7.933  0.00  0.00     0.010 C 
BRANCH  23  24
HETATM   24  C   UNK N   1      29.168  18.266   8.043  0.00  0.00     0.110 C 
BRANCH  24  25
HETATM   25  C   UNK N   1      29.877  18.174   9.353  0.00  0.00     0.139 C 
HETATM   26  O   UNK N   1      29.618  18.956  10.253  0.00  0.00    -0.650 OA
BRANCH  25  27
HETATM   27  O   UNK N   1      30.820  17.233   9.535  0.00  0.00    -0.776 OA
HETATM   28  H   UNK N   1      30.593  16.326   9.605  0.00  0.00     0.167 HD
ENDBRANCH  25  27
ENDBRANCH  24  25
ENDBRANCH  23  24
ENDBRANCH  22  23
ENDBRANCH  21  22
ENDBRANCH  20  21
ENDBRANCH  18  20
ENDBRANCH  15  16
ENDBRANCH   1  15
TORSDOF 12
ENDMDL
MODEL 4
REMARK VINA RESULT:      -5.8      5.301      8.719
REMARK  12 active torsions:
REMARK  status: ('A' for Active; 'I' for Inactive)
REMARK    1  A    between atoms: C_8  and  C_10 
REMARK    2  A    between atoms: C_10  and  C_11 
REMARK    3  A    between atoms: C_11  and  C_12 
REMARK    4  A    between atoms: C_12  and  C_13 
REMARK    5  A    between atoms: C_13  and  C_14 
REMARK       I    between atoms: C_14  and  N_16 
REMARK    6  A    between atoms: N_16  and  C_17 
REMARK    7  A    between atoms: C_17  and  C_18 
REMARK    8  A    between atoms: C_18  and  C_19 
REMARK    9  A    between atoms: C_19  and  C_20 
REMARK   10  A    between atoms: C_20  and  C_21 
REMARK   11  A    between atoms: C_21  and  C_22 
REMARK   12  A    between atoms: C_22  and  O_23 
ROOT
HETATM    1  C   UNK N   1      35.782  14.935  12.597  0.00  0.00     0.009 C 
ENDROOT
BRANCH   1   2
HETATM    2  C   UNK N   1      35.517  13.716  13.467  0.00  0.00     0.002 C 
BRANCH   2   3
HETATM    3  C   UNK N   1      36.806  12.946  13.604  0.00  0.00     0.017 C 
BRANCH   3   4
HETATM    4  C   UNK N   1      36.820  11.698  12.721  0.00  0.00     0.072 C 
HETATM    5  C   UNK N   1      37.829  11.840  11.579  0.00  0.00     0.123 C 
HETATM    6  C   UNK N   1      37.199  11.365  10.247  0.00  0.00     0.119 C 
HETATM    7  N   UNK N   1      38.255  13.189  11.273  0.00  0.00    -0.335 N 
HETATM    8  N   UNK N   1      37.676  12.341   9.295  0.00  0.00    -0.336 N 
HETATM    9  C   UNK N   1      35.697  11.563  10.346  0.00  0.00     0.101 C 
HETATM   10  C   UNK N   1      38.204  13.370   9.958  0.00  0.00     0.316 C 
HETATM   11  H   UNK N   1      37.619  12.261   8.314  0.00  0.00     0.164 HD
HETATM   12  O   UNK N   1      38.600  14.386   9.412  0.00  0.00    -0.247 OA
HETATM   13  S   UNK N   1      35.160  11.345  12.063  0.00  0.00    -0.160 SA
HETATM   14  H   UNK N   1      38.537  13.863  11.933  0.00  0.00     0.164 HD
ENDBRANCH   3   4
ENDBRANCH   2   3
ENDBRANCH   1   2
BRANCH   1  15
HETATM   15  C   UNK N   1      34.763  15.015  11.476  0.00  0.00     0.103 C 
BRANCH  15  16
HETATM   16  C   UNK N   1      35.120  16.124  10.550  0.00  0.00     0.217 C 
HETATM   17  O   UNK N   1      36.235  16.621  10.607  0.00  0.00    -0.274 OA
HETATM   18  N   UNK N   1      34.218  16.539   9.628  0.00  0.00    -0.361 N 
HETATM   19  H   UNK N   1      33.328  16.121   9.615  0.00  0.00     0.162 HD
BRANCH  18  20
HETATM   20  C   UNK N   1      34.517  17.573   8.665  0.00  0.00     0.122 C 
BRANCH  20  21
HETATM   21  C   UNK N   1      33.298  18.444   8.408  0.00  0.00     0.020 C 
BRANCH  21  22
HETATM   22  C   UNK N   1      32.086  17.582   8.100  0.00  0.00     0.002 C 
BRANCH  22  23
HETATM   23  C   UNK N   1      30.831  18.161   8.717  0.00  0.00     0.010 C 
BRANCH  23  24
HETATM   24  C   UNK N   1      29.603  17.545   8.069  0.00  0.00     0.110 C 
BRANCH  24  25
HETATM   25  C   UNK N   1      28.396  18.391   8.302  0.00  0.00     0.139 C 
HETATM   26  O   UNK N   1      28.118  19.297   7.534  0.00  0.00    -0.650 OA
BRANCH  25  27
HETATM   27  O   UNK N   1      27.621  18.162   9.377  0.00  0.00    -0.776 OA
HETATM   28  H   UNK N   1      26.694  18.298   9.344  0.00  0.00     0.167 HD
ENDBRANCH  25  27
ENDBRANCH  24  25
ENDBRANCH  23  24
ENDBRANCH  22  23
ENDBRANCH  21  22
ENDBRANCH  20  21
ENDBRANCH  18  20
ENDBRANCH  15  16
ENDBRANCH   1  15
TORSDOF 12
ENDMDL
MODEL 5
REMARK VINA RESULT:      -5.8      3.089      4.011
REMARK  12 active torsions:
REMARK  status: ('A' for Active; 'I' for Inactive)
REMARK    1  A    between atoms: C_8  and  C_10 
REMARK    2  A    between atoms: C_10  and  C_11 
REMARK    3  A    between atoms: C_11  and  C_12 
REMARK    4  A    between atoms: C_12  and  C_13 
REMARK    5  A    between atoms: C_13  and  C_14 
REMARK       I    between atoms: C_14  and  N_16 
REMARK    6  A    between atoms: N_16  and  C_17 
REMARK    7  A    between atoms: C_17  and  C_18 
REMARK    8  A    between atoms: C_18  and  C_19 
REMARK    9  A    between atoms: C_19  and  C_20 
REMARK   10  A    between atoms: C_20  and  C_21 
REMARK   11  A    between atoms: C_21  and  C_22 
REMARK   12  A    between atoms: C_22  and  O_23 
ROOT
HETATM    1  C   UNK N   1      32.294  17.775   4.160  0.00  0.00     0.009 C 
ENDROOT
BRANCH   1   2
HETATM    2  C   UNK N   1      33.422  17.075   4.900  0.00  0.00     0.002 C 
BRANCH   2   3
HETATM    3  C   UNK N   1      33.403  17.536   6.336  0.00  0.00     0.017 C 
BRANCH   3   4
HETATM    4  C   UNK N   1      32.582  16.600   7.223  0.00  0.00     0.072 C 
HETATM    5  C   UNK N   1      32.895  16.827   8.704  0.00  0.00     0.123 C 
HETATM    6  C   UNK N   1      33.079  15.469   9.426  0.00  0.00     0.119 C 
HETATM    7  N   UNK N   1      34.134  17.517   8.992  0.00  0.00    -0.335 N 
HETATM    8  N   UNK N   1      34.199  15.716  10.304  0.00  0.00    -0.336 N 
HETATM    9  C   UNK N   1      33.556  14.457   8.398  0.00  0.00     0.101 C 
HETATM   10  C   UNK N   1      34.778  16.863   9.952  0.00  0.00     0.316 C 
HETATM   11  H   UNK N   1      34.488  15.130  11.041  0.00  0.00     0.164 HD
HETATM   12  O   UNK N   1      35.807  17.276  10.461  0.00  0.00    -0.247 OA
HETATM   13  S   UNK N   1      32.864  14.860   6.772  0.00  0.00    -0.160 SA
HETATM   14  H   UNK N   1      34.448  18.338   8.548  0.00  0.00     0.164 HD
ENDBRANCH   3   4
ENDBRANCH   2   3
ENDBRANCH   1   2
BRANCH   1  15
HETATM   15  C   UNK N   1      31.247  16.769   3.719  0.00  0.00     0.103 C 
BRANCH  15  16
HETATM   16  C   UNK N   1      29.947  17.076   4.376  0.00  0.00     0.217 C 
HETATM   17  O   UNK N   1      29.912  17.876   5.299  0.00  0.00    -0.274 OA
HETATM   18  N   UNK N   1      28.813  16.496   3.913  0.00  0.00    -0.361 N 
HETATM   19  H   UNK N   1      28.880  15.852   3.172  0.00  0.00     0.162 HD
BRANCH  18  20
HETATM   20  C   UNK N   1      27.513  16.789   4.467  0.00  0.00     0.122 C 
BRANCH  20  21
HETATM   21  C   UNK N   1      26.497  17.041   3.365  0.00  0.00     0.020 C 
BRANCH  21  22
HETATM   22  C   UNK N   1      25.813  18.381   3.571  0.00  0.00     0.002 C 
BRANCH  22  23
HETATM   23  C   UNK N   1      26.819  19.465   3.891  0.00  0.00     0.010 C 
BRANCH  23  24
HETATM   24  C   UNK N   1      26.271  20.376   4.977  0.00  0.00     0.110 C 
BRANCH  24  25
HETATM   25  C   UNK N   1      27.287  20.601   6.046  0.00  0.00     0.139 C 
HETATM   26  O   UNK N   1      27.567  21.732   6.406  0.00  0.00    -0.650 OA
BRANCH  25  27
HETATM   27  O   UNK N   1      27.910  19.548   6.604  0.00  0.00    -0.776 OA
HETATM   28  H   UNK N   1      27.488  18.713   6.669  0.00  0.00     0.167 HD
ENDBRANCH  25  27
ENDBRANCH  24  25
ENDBRANCH  23  24
ENDBRANCH  22  23
ENDBRANCH  21  22
ENDBRANCH  20  21
ENDBRANCH  18  20
ENDBRANCH  15  16
ENDBRANCH   1  15
TORSDOF 12
ENDMDL
MODEL 6
REMARK VINA RESULT:      -5.7      3.621     10.724
REMARK  12 active torsions:
REMARK  status: ('A' for Active; 'I' for Inactive)
REMARK    1  A    between atoms: C_8  and  C_10 
REMARK    2  A    between atoms: C_10  and  C_11 
REMARK    3  A    between atoms: C_11  and  C_12 
REMARK    4  A    between atoms: C_12  and  C_13 
REMARK    5  A    between atoms: C_13  and  C_14 
REMARK       I    between atoms: C_14  and  N_16 
REMARK    6  A    between atoms: N_16  and  C_17 
REMARK    7  A    between atoms: C_17  and  C_18 
REMARK    8  A    between atoms: C_18  and  C_19 
REMARK    9  A    between atoms: C_19  and  C_20 
REMARK   10  A    between atoms: C_20  and  C_21 
REMARK   11  A    between atoms: C_21  and  C_22 
REMARK   12  A    between atoms: C_22  and  O_23 
ROOT
HETATM    1  C   UNK N   1      25.338  17.621   4.692  0.00  0.00     0.009 C 
ENDROOT
BRANCH   1   2
HETATM    2  C   UNK N   1      24.418  16.626   5.382  0.00  0.00     0.002 C 
BRANCH   2   3
HETATM    3  C   UNK N   1      23.015  17.174   5.340  0.00  0.00     0.017 C 
BRANCH   3   4
HETATM    4  C   UNK N   1      22.215  16.604   4.168  0.00  0.00     0.072 C 
HETATM    5  C   UNK N   1      21.720  17.718   3.243  0.00  0.00     0.123 C 
HETATM    6  C   UNK N   1      20.237  17.480   2.867  0.00  0.00     0.119 C 
HETATM    7  N   UNK N   1      21.702  19.050   3.807  0.00  0.00    -0.335 N 
HETATM    8  N   UNK N   1      19.670  18.808   2.924  0.00  0.00    -0.336 N 
HETATM    9  C   UNK N   1      19.592  16.692   3.994  0.00  0.00     0.101 C 
HETATM   10  C   UNK N   1      20.537  19.622   3.525  0.00  0.00     0.316 C 
HETATM   11  H   UNK N   1      18.786  19.068   2.576  0.00  0.00     0.164 HD
HETATM   12  O   UNK N   1      20.286  20.785   3.795  0.00  0.00    -0.247 OA
HETATM   13  S   UNK N   1      20.818  15.599   4.758  0.00  0.00    -0.160 SA
HETATM   14  H   UNK N   1      22.435  19.464   4.317  0.00  0.00     0.164 HD
ENDBRANCH   3   4
ENDBRANCH   2   3
ENDBRANCH   1   2
BRANCH   1  15
HETATM   15  C   UNK N   1      26.783  17.171   4.806  0.00  0.00     0.103 C 
BRANCH  15  16
HETATM   16  C   UNK N   1      27.521  18.079   5.725  0.00  0.00     0.217 C 
HETATM   17  O   UNK N   1      27.857  19.188   5.335  0.00  0.00    -0.274 OA
HETATM   18  N   UNK N   1      27.771  17.682   6.996  0.00  0.00    -0.361 N 
HETATM   19  H   UNK N   1      27.491  16.781   7.275  0.00  0.00     0.162 HD
BRANCH  18  20
HETATM   20  C   UNK N   1      28.435  18.533   7.956  0.00  0.00     0.122 C 
BRANCH  20  21
HETATM   21  C   UNK N   1      29.360  17.724   8.850  0.00  0.00     0.020 C 
BRANCH  21  22
HETATM   22  C   UNK N   1      30.729  18.377   8.925  0.00  0.00     0.002 C 
BRANCH  22  23
HETATM   23  C   UNK N   1      31.698  17.729   7.959  0.00  0.00     0.010 C 
BRANCH  23  24
HETATM   24  C   UNK N   1      33.063  17.591   8.610  0.00  0.00     0.110 C 
BRANCH  24  25
HETATM   25  C   UNK N   1      34.115  18.260   7.790  0.00  0.00     0.139 C 
HETATM   26  O   UNK N   1      34.175  18.069   6.586  0.00  0.00    -0.650 OA
BRANCH  25  27
HETATM   27  O   UNK N   1      35.012  19.065   8.386  0.00  0.00    -0.776 OA
HETATM   28  H   UNK N   1      35.859  19.209   8.011  0.00  0.00     0.167 HD
ENDBRANCH  25  27
ENDBRANCH  24  25
ENDBRANCH  23  24
ENDBRANCH  22  23
ENDBRANCH  21  22
ENDBRANCH  20  21
ENDBRANCH  18  20
ENDBRANCH  15  16
ENDBRANCH   1  15
TORSDOF 12
ENDMDL
MODEL 7
REMARK VINA RESULT:      -5.7      2.505      4.131
REMARK  12 active torsions:
REMARK  status: ('A' for Active; 'I' for Inactive)
REMARK    1  A    between atoms: C_8  and  C_10 
REMARK    2  A    between atoms: C_10  and  C_11 
REMARK    3  A    between atoms: C_11  and  C_12 
REMARK    4  A    between atoms: C_12  and  C_13 
REMARK    5  A    between atoms: C_13  and  C_14 
REMARK       I    between atoms: C_14  and  N_16 
REMARK    6  A    between atoms: N_16  and  C_17 
REMARK    7  A    between atoms: C_17  and  C_18 
REMARK    8  A    between atoms: C_18  and  C_19 
REMARK    9  A    between atoms: C_19  and  C_20 
REMARK   10  A    between atoms: C_20  and  C_21 
REMARK   11  A    between atoms: C_21  and  C_22 
REMARK   12  A    between atoms: C_22  and  O_23 
ROOT
HETATM    1  C   UNK N   1      33.047  16.109   3.128  0.00  0.00     0.009 C 
ENDROOT
BRANCH   1   2
HETATM    2  C   UNK N   1      33.665  15.129   4.112  0.00  0.00     0.002 C 
BRANCH   2   3
HETATM    3  C   UNK N   1      34.163  15.908   5.303  0.00  0.00     0.017 C 
BRANCH   3   4
HETATM    4  C   UNK N   1      33.510  15.438   6.603  0.00  0.00     0.072 C 
HETATM    5  C   UNK N   1      33.299  16.606   7.570  0.00  0.00     0.123 C 
HETATM    6  C   UNK N   1      33.738  16.203   8.999  0.00  0.00     0.119 C 
HETATM    7  N   UNK N   1      34.085  17.793   7.312  0.00  0.00    -0.335 N 
HETATM    8  N   UNK N   1      34.410  17.389   9.479  0.00  0.00    -0.336 N 
HETATM    9  C   UNK N   1      34.805  15.130   8.872  0.00  0.00     0.101 C 
HETATM   10  C   UNK N   1      34.623  18.210   8.452  0.00  0.00     0.316 C 
HETATM   11  H   UNK N   1      34.668  17.561  10.414  0.00  0.00     0.164 HD
HETATM   12  O   UNK N   1      35.257  19.248   8.546  0.00  0.00    -0.247 OA
HETATM   13  S   UNK N   1      34.498  14.129   7.393  0.00  0.00    -0.160 SA
HETATM   14  H   UNK N   1      34.201  18.221   6.433  0.00  0.00     0.164 HD
ENDBRANCH   3   4
ENDBRANCH   2   3
ENDBRANCH   1   2
BRANCH   1  15
HETATM   15  C   UNK N   1      32.526  17.333   3.859  0.00  0.00     0.103 C 
BRANCH  15  16
HETATM   16  C   UNK N   1      31.049  17.233   4.016  0.00  0.00     0.217 C 
HETATM   17  O   UNK N   1      30.397  16.604   3.196  0.00  0.00    -0.274 OA
HETATM   18  N   UNK N   1      30.453  17.805   5.091  0.00  0.00    -0.361 N 
HETATM   19  H   UNK N   1      31.009  18.309   5.728  0.00  0.00     0.162 HD
BRANCH  18  20
HETATM   20  C   UNK N   1      29.034  17.702   5.333  0.00  0.00     0.122 C 
BRANCH  20  21
HETATM   21  C   UNK N   1      28.703  18.045   6.777  0.00  0.00     0.020 C 
BRANCH  21  22
HETATM   22  C   UNK N   1      27.954  19.363   6.850  0.00  0.00     0.002 C 
BRANCH  22  23
HETATM   23  C   UNK N   1      27.813  19.990   5.480  0.00  0.00     0.010 C 
BRANCH  23  24
HETATM   24  C   UNK N   1      26.449  20.644   5.347  0.00  0.00     0.110 C 
BRANCH  24  25
HETATM   25  C   UNK N   1      25.474  19.716   4.702  0.00  0.00     0.139 C 
HETATM   26  O   UNK N   1      25.341  19.703   3.490  0.00  0.00    -0.650 OA
BRANCH  25  27
HETATM   27  O   UNK N   1      24.726  18.901   5.467  0.00  0.00    -0.776 OA
HETATM   28  H   UNK N   1      24.155  18.264   5.083  0.00  0.00     0.167 HD
ENDBRANCH  25  27
ENDBRANCH  24  25
ENDBRANCH  23  24
ENDBRANCH  22  23
ENDBRANCH  21  22
ENDBRANCH  20  21
ENDBRANCH  18  20
ENDBRANCH  15  16
ENDBRANCH   1  15
TORSDOF 12
ENDMDL
MODEL 8
REMARK VINA RESULT:      -5.7      3.026      3.950
REMARK  12 active torsions:
REMARK  status: ('A' for Active; 'I' for Inactive)
REMARK    1  A    between atoms: C_8  and  C_10 
REMARK    2  A    between atoms: C_10  and  C_11 
REMARK    3  A    between atoms: C_11  and  C_12 
REMARK    4  A    between atoms: C_12  and  C_13 
REMARK    5  A    between atoms: C_13  and  C_14 
REMARK       I    between atoms: C_14  and  N_16 
REMARK    6  A    between atoms: N_16  and  C_17 
REMARK    7  A    between atoms: C_17  and  C_18 
REMARK    8  A    between atoms: C_18  and  C_19 
REMARK    9  A    between atoms: C_19  and  C_20 
REMARK   10  A    between atoms: C_20  and  C_21 
REMARK   11  A    between atoms: C_21  and  C_22 
REMARK   12  A    between atoms: C_22  and  O_23 
ROOT
HETATM    1  C   UNK N   1      31.285  15.649   7.202  0.00  0.00     0.009 C 
ENDROOT
BRANCH   1   2
HETATM    2  C   UNK N   1      31.906  15.867   8.573  0.00  0.00     0.002 C 
BRANCH   2   3
HETATM    3  C   UNK N   1      32.909  14.768   8.816  0.00  0.00     0.017 C 
BRANCH   3   4
HETATM    4  C   UNK N   1      34.345  15.290   8.786  0.00  0.00     0.072 C 
HETATM    5  C   UNK N   1      35.221  14.561   9.808  0.00  0.00     0.123 C 
HETATM    6  C   UNK N   1      36.093  15.577  10.585  0.00  0.00     0.119 C 
HETATM    7  N   UNK N   1      34.517  13.864  10.863  0.00  0.00    -0.335 N 
HETATM    8  N   UNK N   1      36.046  15.077  11.940  0.00  0.00    -0.336 N 
HETATM    9  C   UNK N   1      35.362  16.907  10.594  0.00  0.00     0.101 C 
HETATM   10  C   UNK N   1      35.087  14.156  12.027  0.00  0.00     0.316 C 
HETATM   11  H   UNK N   1      36.627  15.371  12.679  0.00  0.00     0.164 HD
HETATM   12  O   UNK N   1      34.758  13.630  13.077  0.00  0.00    -0.247 OA
HETATM   13  S   UNK N   1      34.392  17.086   9.074  0.00  0.00    -0.160 SA
HETATM   14  H   UNK N   1      33.742  13.270  10.738  0.00  0.00     0.164 HD
ENDBRANCH   3   4
ENDBRANCH   2   3
ENDBRANCH   1   2
BRANCH   1  15
HETATM   15  C   UNK N   1      31.271  16.948   6.417  0.00  0.00     0.103 C 
BRANCH  15  16
HETATM   16  C   UNK N   1      29.896  17.517   6.413  0.00  0.00     0.217 C 
HETATM   17  O   UNK N   1      29.332  17.739   7.475  0.00  0.00    -0.274 OA
HETATM   18  N   UNK N   1      29.304  17.822   5.233  0.00  0.00    -0.361 N 
HETATM   19  H   UNK N   1      29.785  17.624   4.397  0.00  0.00     0.162 HD
BRANCH  18  20
HETATM   20  C   UNK N   1      27.994  18.425   5.158  0.00  0.00     0.122 C 
BRANCH  20  21
HETATM   21  C   UNK N   1      28.095  19.897   4.791  0.00  0.00     0.020 C 
BRANCH  21  22
HETATM   22  C   UNK N   1      26.957  20.291   3.865  0.00  0.00     0.002 C 
BRANCH  22  23
HETATM   23  C   UNK N   1      25.984  19.147   3.676  0.00  0.00     0.010 C 
BRANCH  23  24
HETATM   24  C   UNK N   1      24.566  19.627   3.931  0.00  0.00     0.110 C 
BRANCH  24  25
HETATM   25  C   UNK N   1      24.104  20.529   2.835  0.00  0.00     0.139 C 
HETATM   26  O   UNK N   1      24.848  20.809   1.909  0.00  0.00    -0.650 OA
BRANCH  25  27
HETATM   27  O   UNK N   1      22.865  21.050   2.880  0.00  0.00    -0.776 OA
HETATM   28  H   UNK N   1      22.133  20.538   3.163  0.00  0.00     0.167 HD
ENDBRANCH  25  27
ENDBRANCH  24  25
ENDBRANCH  23  24
ENDBRANCH  22  23
ENDBRANCH  21  22
ENDBRANCH  20  21
ENDBRANCH  18  20
ENDBRANCH  15  16
ENDBRANCH   1  15
TORSDOF 12
ENDMDL
MODEL 9
REMARK VINA RESULT:      -5.6      8.530     11.863
REMARK  12 active torsions:
REMARK  status: ('A' for Active; 'I' for Inactive)
REMARK    1  A    between atoms: C_8  and  C_10 
REMARK    2  A    between atoms: C_10  and  C_11 
REMARK    3  A    between atoms: C_11  and  C_12 
REMARK    4  A    between atoms: C_12  and  C_13 
REMARK    5  A    between atoms: C_13  and  C_14 
REMARK       I    between atoms: C_14  and  N_16 
REMARK    6  A    between atoms: N_16  and  C_17 
REMARK    7  A    between atoms: C_17  and  C_18 
REMARK    8  A    between atoms: C_18  and  C_19 
REMARK    9  A    between atoms: C_19  and  C_20 
REMARK   10  A    between atoms: C_20  and  C_21 
REMARK   11  A    between atoms: C_21  and  C_22 
REMARK   12  A    between atoms: C_22  and  O_23 
ROOT
HETATM    1  C   UNK N   1      20.472  14.171   2.027  0.00  0.00     0.009 C 
ENDROOT
BRANCH   1   2
HETATM    2  C   UNK N   1      21.132  15.481   2.427  0.00  0.00     0.002 C 
BRANCH   2   3
HETATM    3  C   UNK N   1      20.250  16.613   1.963  0.00  0.00     0.017 C 
BRANCH   3   4
HETATM    4  C   UNK N   1      19.979  17.618   3.083  0.00  0.00     0.072 C 
HETATM    5  C   UNK N   1      19.746  19.023   2.521  0.00  0.00     0.123 C 
HETATM    6  C   UNK N   1      20.536  20.067   3.347  0.00  0.00     0.119 C 
HETATM    7  N   UNK N   1      20.218  19.252   1.173  0.00  0.00    -0.335 N 
HETATM    8  N   UNK N   1      21.048  20.963   2.336  0.00  0.00    -0.336 N 
HETATM    9  C   UNK N   1      21.742  19.368   3.949  0.00  0.00     0.101 C 
HETATM   10  C   UNK N   1      20.885  20.400   1.139  0.00  0.00     0.316 C 
HETATM   11  H   UNK N   1      21.453  21.845   2.505  0.00  0.00     0.164 HD
HETATM   12  O   UNK N   1      21.312  20.890   0.106  0.00  0.00    -0.247 OA
HETATM   13  S   UNK N   1      21.341  17.634   4.290  0.00  0.00    -0.160 SA
HETATM   14  H   UNK N   1      20.068  18.654   0.405  0.00  0.00     0.164 HD
ENDBRANCH   3   4
ENDBRANCH   2   3
ENDBRANCH   1   2
BRANCH   1  15
HETATM   15  C   UNK N   1      19.462  13.747   3.078  0.00  0.00     0.103 C 
BRANCH  15  16
HETATM   16  C   UNK N   1      20.172  13.320   4.314  0.00  0.00     0.217 C 
HETATM   17  O   UNK N   1      20.997  12.419   4.255  0.00  0.00    -0.274 OA
HETATM   18  N   UNK N   1      19.927  13.965   5.480  0.00  0.00    -0.361 N 
HETATM   19  H   UNK N   1      19.253  14.682   5.492  0.00  0.00     0.162 HD
BRANCH  18  20
HETATM   20  C   UNK N   1      20.618  13.638   6.705  0.00  0.00     0.122 C 
BRANCH  20  21
HETATM   21  C   UNK N   1      21.913  14.427   6.825  0.00  0.00     0.020 C 
BRANCH  21  22
HETATM   22  C   UNK N   1      22.768  13.873   7.951  0.00  0.00     0.002 C 
BRANCH  22  23
HETATM   23  C   UNK N   1      22.023  12.812   8.733  0.00  0.00     0.010 C 
BRANCH  23  24
HETATM   24  C   UNK N   1      21.915  13.223  10.191  0.00  0.00     0.110 C 
BRANCH  24  25
HETATM   25  C   UNK N   1      22.755  12.344  11.056  0.00  0.00     0.139 C 
HETATM   26  O   UNK N   1      23.955  12.244  10.857  0.00  0.00    -0.650 OA
BRANCH  25  27
HETATM   27  O   UNK N   1      22.181  11.644  12.050  0.00  0.00    -0.776 OA
HETATM   28  H   UNK N   1      22.685  11.069  12.592  0.00  0.00     0.167 HD
ENDBRANCH  25  27
ENDBRANCH  24  25
ENDBRANCH  23  24
ENDBRANCH  22  23
ENDBRANCH  21  22
ENDBRANCH  20  21
ENDBRANCH  18  20
ENDBRANCH  15  16
ENDBRANCH   1  15
TORSDOF 12
ENDMDL
