REMARK  12 active torsions:
REMARK  status: ('A' for Active; 'I' for Inactive)
REMARK    1  A    between atoms: C_8  and  C_10 
REMARK    2  A    between atoms: C_10  and  C_11 
REMARK    3  A    between atoms: C_11  and  C_12 
REMARK    4  A    between atoms: C_12  and  C_13 
REMARK    5  A    between atoms: C_13  and  C_14 
REMARK       I    between atoms: C_14  and  N_16 
REMARK    6  A    between atoms: N_16  and  C_17 
REMARK    7  A    between atoms: C_17  and  C_18 
REMARK    8  A    between atoms: C_18  and  C_19 
REMARK    9  A    between atoms: C_19  and  C_20 
REMARK   10  A    between atoms: C_20  and  C_21 
REMARK   11  A    between atoms: C_21  and  C_22 
REMARK   12  A    between atoms: C_22  and  O_23 
ROOT
HETATM    1  C   UNK N   1      -1.139   1.284  -0.078  0.00  0.00     0.009 C 
ENDROOT
BRANCH   1   2
HETATM    2  C   UNK N   1      -1.466   0.370   1.092  0.00  0.00     0.002 C 
BRANCH   2   3
HETATM    3  C   UNK N   1      -2.966   0.292   1.224  0.00  0.00     0.017 C 
BRANCH   3   4
HETATM    4  C   UNK N   1      -3.585  -0.609   0.155  0.00  0.00     0.072 C 
HETATM    5  C   UNK N   1      -4.869   0.004  -0.409  0.00  0.00     0.123 C 
HETATM    6  C   UNK N   1      -5.977  -1.073  -0.507  0.00  0.00     0.119 C 
HETATM    7  N   UNK N   1      -5.488   1.033   0.398  0.00  0.00    -0.335 N 
HETATM    8  N   UNK N   1      -7.159  -0.365  -0.073  0.00  0.00    -0.336 N 
HETATM    9  C   UNK N   1      -5.697  -2.126   0.551  0.00  0.00     0.101 C 
HETATM   10  C   UNK N   1      -6.791   0.789   0.483  0.00  0.00     0.316 C 
HETATM   11  H   UNK N   1      -8.086  -0.684  -0.171  0.00  0.00     0.164 HD
HETATM   12  O   UNK N   1      -7.575   1.551   1.024  0.00  0.00    -0.247 OA
HETATM   13  S   UNK N   1      -3.910  -2.274   0.813  0.00  0.00    -0.160 SA
HETATM   14  H   UNK N   1      -5.019   1.791   0.816  0.00  0.00     0.164 HD
ENDBRANCH   3   4
ENDBRANCH   2   3
ENDBRANCH   1   2
BRANCH   1  15
HETATM   15  C   UNK N   1      -0.088   0.646  -0.968  0.00  0.00     0.103 C 
BRANCH  15  16
HETATM   16  C   UNK N   1       1.185   0.493  -0.212  0.00  0.00     0.217 C 
HETATM   17  O   UNK N   1       1.736   1.483   0.247  0.00  0.00    -0.274 OA
HETATM   18  N   UNK N   1       1.693  -0.746  -0.006  0.00  0.00    -0.361 N 
HETATM   19  H   UNK N   1       1.226  -1.520  -0.395  0.00  0.00     0.162 HD
BRANCH  18  20
HETATM   20  C   UNK N   1       2.894  -0.971   0.763  0.00  0.00     0.122 C 
BRANCH  20  21
HETATM   21  C   UNK N   1       4.133  -0.792  -0.100  0.00  0.00     0.020 C 
BRANCH  21  22
HETATM   22  C   UNK N   1       4.399   0.683  -0.345  0.00  0.00     0.002 C 
BRANCH  22  23
HETATM   23  C   UNK N   1       5.761   0.897  -0.970  0.00  0.00     0.010 C 
BRANCH  23  24
HETATM   24  C   UNK N   1       6.825   0.948   0.113  0.00  0.00     0.110 C 
BRANCH  24  25
HETATM   25  C   UNK N   1       7.618  -0.316   0.140  0.00  0.00     0.139 C 
HETATM   26  O   UNK N   1       7.079  -1.379   0.400  0.00  0.00    -0.650 OA
BRANCH  25  27
HETATM   27  O   UNK N   1       8.939  -0.278  -0.108  0.00  0.00    -0.776 OA
HETATM   28  H   UNK N   1       9.423  -1.062  -0.281  0.00  0.00     0.167 HD
ENDBRANCH  25  27
ENDBRANCH  24  25
ENDBRANCH  23  24
ENDBRANCH  22  23
ENDBRANCH  21  22
ENDBRANCH  20  21
ENDBRANCH  18  20
ENDBRANCH  15  16
ENDBRANCH   1  15
TORSDOF 12
