REMARK  6 active torsions:
REMARK  status: ('A' for Active; 'I' for Inactive)
REMARK    1  A    between atoms: N_2  and  C_3 
REMARK    2  A    between atoms: C_3  and  C_4 
REMARK    3  A    between atoms: C_4  and  C_5 
REMARK    4  A    between atoms: C_5  and  N_6 
REMARK    5  A    between atoms: C_14  and  C_15 
REMARK    6  A    between atoms: C_21  and  C_22 
ROOT
HETATM    1  C   UNK N   1       0.139   1.916   0.294  0.00  0.00     0.061 A 
HETATM    2  C   UNK N   1       0.133   3.392   0.356  0.00  0.00     0.260 A 
HETATM    3  O   UNK N   1      -0.842   4.108   0.525  0.00  0.00    -0.267 OA
HETATM    4  N   UNK N   1       1.374   3.882   0.237  0.00  0.00    -0.289 N 
HETATM    5  C   UNK N   1       2.202   2.835   0.105  0.00  0.00     0.260 A 
HETATM    6  O   UNK N   1       3.402   2.974  -0.067  0.00  0.00    -0.267 OA
HETATM    7  C   UNK N   1       1.456   1.555   0.146  0.00  0.00     0.061 A 
HETATM    8  H   UNK N   1       1.630   4.833   0.246  0.00  0.00     0.172 HD
ENDROOT
BRANCH   1   9
HETATM    9  C   UNK N   1      -1.086   1.047   0.332  0.00  0.00     0.009 A 
HETATM   10  C   UNK N   1      -1.096  -0.322   0.541  0.00  0.00     0.104 A 
HETATM   11  N   UNK N   1      -2.328  -0.816   0.354  0.00  0.00    -0.355 N 
HETATM   12  C   UNK N   1      -3.128   0.218   0.052  0.00  0.00     0.045 A 
HETATM   13  C   UNK N   1      -4.479   0.175  -0.284  0.00  0.00     0.030 A 
HETATM   14  C   UNK N   1      -2.406   1.387   0.043  0.00  0.00     0.003 A 
HETATM   15  C   UNK N   1      -5.107   1.384  -0.626  0.00  0.00     0.002 A 
HETATM   16  C   UNK N   1      -4.373   2.590  -0.636  0.00  0.00     0.001 A 
HETATM   17  C   UNK N   1      -3.005   2.596  -0.309  0.00  0.00     0.014 A 
BRANCH  11  18
HETATM   18  C   UNK N   1      -2.622  -2.240   0.330  0.00  0.00     0.130 C 
BRANCH  18  19
HETATM   19  C   UNK N   1      -3.740  -2.620   1.271  0.00  0.00     0.039 C 
BRANCH  19  20
HETATM   20  C   UNK N   1      -4.506  -3.772   0.647  0.00  0.00     0.112 C 
BRANCH  20  21
HETATM   21  N   UNK N   1      -5.237  -3.300  -0.519  0.00  0.00    -0.430 N 
HETATM   22  H   UNK N   1      -5.207  -2.690  -1.336  0.00  0.00     0.149 HD
HETATM   23  H   UNK N   1      -6.145  -3.765  -0.519  0.00  0.00     0.149 HD
ENDBRANCH  20  21
ENDBRANCH  19  20
ENDBRANCH  18  19
ENDBRANCH  11  18
ENDBRANCH   1   9
BRANCH   7  24
HETATM   24  C   UNK N   1       2.071   0.176  -0.016  0.00  0.00     0.009 A 
HETATM   25  C   UNK N   1       3.416  -0.189  -0.130  0.00  0.00     0.003 A 
HETATM   26  C   UNK N   1       4.594   0.554  -0.133  0.00  0.00     0.014 A 
HETATM   27  C   UNK N   1       3.453  -1.558  -0.247  0.00  0.00     0.045 A 
HETATM   28  C   UNK N   1       5.817  -0.132  -0.263  0.00  0.00     0.001 A 
HETATM   29  C   UNK N   1       5.841  -1.538  -0.382  0.00  0.00     0.002 A 
HETATM   30  C   UNK N   1       4.644  -2.268  -0.373  0.00  0.00     0.030 A 
HETATM   31  N   UNK N   1       2.217  -2.060  -0.218  0.00  0.00    -0.360 N 
HETATM   32  C   UNK N   1       1.826  -3.457  -0.303  0.00  0.00     0.156 C 
HETATM   33  C   UNK N   1       1.370  -1.026  -0.085  0.00  0.00     0.104 A 
ENDBRANCH   7  24
TORSDOF 6
