MODEL 1
REMARK VINA RESULT:      -7.6      0.000      0.000
REMARK  6 active torsions:
REMARK  status: ('A' for Active; 'I' for Inactive)
REMARK    1  A    between atoms: N_2  and  C_3 
REMARK    2  A    between atoms: C_3  and  C_4 
REMARK    3  A    between atoms: C_4  and  C_5 
REMARK    4  A    between atoms: C_5  and  N_6 
REMARK    5  A    between atoms: C_14  and  C_15 
REMARK    6  A    between atoms: C_21  and  C_22 
ROOT
HETATM    1  C   UNK N   1      20.697  16.103   5.145  0.00  0.00     0.061 A 
HETATM    2  C   UNK N   1      20.284  15.578   6.463  0.00  0.00     0.260 A 
HETATM    3  O   UNK N   1      19.952  14.430   6.716  0.00  0.00    -0.267 OA
HETATM    4  N   UNK N   1      20.349  16.532   7.401  0.00  0.00    -0.289 N 
HETATM    5  C   UNK N   1      20.781  17.650   6.799  0.00  0.00     0.260 A 
HETATM    6  O   UNK N   1      20.898  18.706   7.399  0.00  0.00    -0.267 OA
HETATM    7  C   UNK N   1      21.026  17.420   5.356  0.00  0.00     0.061 A 
HETATM    8  H   UNK N   1      20.124  16.430   8.354  0.00  0.00     0.172 HD
ENDROOT
BRANCH   1   9
HETATM    9  C   UNK N   1      20.682  15.321   3.863  0.00  0.00     0.009 A 
HETATM   10  C   UNK N   1      19.596  14.630   3.353  0.00  0.00     0.104 A 
HETATM   11  N   UNK N   1      19.958  13.908   2.283  0.00  0.00    -0.355 N 
HETATM   12  C   UNK N   1      21.263  14.140   2.072  0.00  0.00     0.045 A 
HETATM   13  C   UNK N   1      22.082  13.558   1.109  0.00  0.00     0.030 A 
HETATM   14  C   UNK N   1      21.745  15.017   3.014  0.00  0.00     0.003 A 
HETATM   15  C   UNK N   1      23.443  13.907   1.110  0.00  0.00     0.002 A 
HETATM   16  C   UNK N   1      23.947  14.808   2.072  0.00  0.00     0.001 A 
HETATM   17  C   UNK N   1      23.095  15.365   3.044  0.00  0.00     0.014 A 
BRANCH  11  18
HETATM   18  C   UNK N   1      19.082  12.944   1.636  0.00  0.00     0.130 C 
BRANCH  18  19
HETATM   19  C   UNK N   1      18.880  13.235   0.169  0.00  0.00     0.039 C 
BRANCH  19  20
HETATM   20  C   UNK N   1      17.662  14.130   0.032  0.00  0.00     0.112 C 
BRANCH  20  21
HETATM   21  N   UNK N   1      18.082  15.478  -0.318  0.00  0.00    -0.430 N 
HETATM   22  H   UNK N   1      18.880  16.100  -0.448  0.00  0.00     0.149 HD
HETATM   23  H   UNK N   1      17.239  16.021  -0.508  0.00  0.00     0.149 HD
ENDBRANCH  20  21
ENDBRANCH  19  20
ENDBRANCH  18  19
ENDBRANCH  11  18
ENDBRANCH   1   9
BRANCH   7  24
HETATM   24  C   UNK N   1      21.479  18.477   4.364  0.00  0.00     0.009 A 
HETATM   25  C   UNK N   1      22.768  18.946   4.093  0.00  0.00     0.003 A 
HETATM   26  C   UNK N   1      24.017  18.619   4.616  0.00  0.00     0.014 A 
HETATM   27  C   UNK N   1      22.651  19.896   3.106  0.00  0.00     0.045 A 
HETATM   28  C   UNK N   1      25.149  19.287   4.113  0.00  0.00     0.001 A 
HETATM   29  C   UNK N   1      25.015  20.260   3.099  0.00  0.00     0.002 A 
HETATM   30  C   UNK N   1      23.750  20.573   2.583  0.00  0.00     0.030 A 
HETATM   31  N   UNK N   1      21.373  20.046   2.755  0.00  0.00    -0.360 N 
HETATM   32  C   UNK N   1      20.830  20.940   1.746  0.00  0.00     0.156 C 
HETATM   33  C   UNK N   1      20.651  19.201   3.509  0.00  0.00     0.104 A 
ENDBRANCH   7  24
TORSDOF 6
ENDMDL
MODEL 2
REMARK VINA RESULT:      -7.6      2.914      5.601
REMARK  6 active torsions:
REMARK  status: ('A' for Active; 'I' for Inactive)
REMARK    1  A    between atoms: N_2  and  C_3 
REMARK    2  A    between atoms: C_3  and  C_4 
REMARK    3  A    between atoms: C_4  and  C_5 
REMARK    4  A    between atoms: C_5  and  N_6 
REMARK    5  A    between atoms: C_14  and  C_15 
REMARK    6  A    between atoms: C_21  and  C_22 
ROOT
HETATM    1  C   UNK N   1      22.143  18.948   4.035  0.00  0.00     0.061 A 
HETATM    2  C   UNK N   1      21.328  19.875   3.224  0.00  0.00     0.260 A 
HETATM    3  O   UNK N   1      20.108  19.928   3.187  0.00  0.00    -0.267 OA
HETATM    4  N   UNK N   1      22.106  20.715   2.528  0.00  0.00    -0.289 N 
HETATM    5  C   UNK N   1      23.378  20.412   2.824  0.00  0.00     0.260 A 
HETATM    6  O   UNK N   1      24.320  20.986   2.302  0.00  0.00    -0.267 OA
HETATM    7  C   UNK N   1      23.450  19.293   3.793  0.00  0.00     0.061 A 
HETATM    8  H   UNK N   1      21.800  21.422   1.915  0.00  0.00     0.172 HD
ENDROOT
BRANCH   1   9
HETATM    9  C   UNK N   1      21.595  17.837   4.885  0.00  0.00     0.009 A 
HETATM   10  C   UNK N   1      21.180  17.960   6.201  0.00  0.00     0.104 A 
HETATM   11  N   UNK N   1      20.900  16.755   6.719  0.00  0.00    -0.355 N 
HETATM   12  C   UNK N   1      21.102  15.850   5.749  0.00  0.00     0.045 A 
HETATM   13  C   UNK N   1      20.997  14.465   5.846  0.00  0.00     0.030 A 
HETATM   14  C   UNK N   1      21.516  16.476   4.598  0.00  0.00     0.003 A 
HETATM   15  C   UNK N   1      21.317  13.703   4.711  0.00  0.00     0.002 A 
HETATM   16  C   UNK N   1      21.741  14.338   3.523  0.00  0.00     0.001 A 
HETATM   17  C   UNK N   1      21.854  15.739   3.463  0.00  0.00     0.014 A 
BRANCH  11  18
HETATM   18  C   UNK N   1      20.608  16.540   8.127  0.00  0.00     0.130 C 
BRANCH  18  19
HETATM   19  C   UNK N   1      19.721  17.614   8.709  0.00  0.00     0.039 C 
BRANCH  19  20
HETATM   20  C   UNK N   1      18.369  16.993   9.009  0.00  0.00     0.112 C 
BRANCH  20  21
HETATM   21  N   UNK N   1      17.494  17.989   9.608  0.00  0.00    -0.430 N 
HETATM   22  H   UNK N   1      16.824  18.175  10.354  0.00  0.00     0.149 HD
HETATM   23  H   UNK N   1      17.586  18.845   9.060  0.00  0.00     0.149 HD
ENDBRANCH  20  21
ENDBRANCH  19  20
ENDBRANCH  18  19
ENDBRANCH  11  18
ENDBRANCH   1   9
BRANCH   7  24
HETATM   24  C   UNK N   1      24.731  18.666   4.315  0.00  0.00     0.009 A 
HETATM   25  C   UNK N   1      25.745  19.232   5.094  0.00  0.00     0.003 A 
HETATM   26  C   UNK N   1      25.915  20.504   5.633  0.00  0.00     0.014 A 
HETATM   27  C   UNK N   1      26.684  18.251   5.308  0.00  0.00     0.045 A 
HETATM   28  C   UNK N   1      27.072  20.759   6.395  0.00  0.00     0.001 A 
HETATM   29  C   UNK N   1      28.028  19.743   6.606  0.00  0.00     0.002 A 
HETATM   30  C   UNK N   1      27.836  18.466   6.058  0.00  0.00     0.030 A 
HETATM   31  N   UNK N   1      26.317  17.118   4.705  0.00  0.00    -0.360 N 
HETATM   32  C   UNK N   1      27.026  15.849   4.697  0.00  0.00     0.156 C 
HETATM   33  C   UNK N   1      25.143  17.353   4.096  0.00  0.00     0.104 A 
ENDBRANCH   7  24
TORSDOF 6
ENDMDL
MODEL 3
REMARK VINA RESULT:      -7.5      3.163      7.263
REMARK  6 active torsions:
REMARK  status: ('A' for Active; 'I' for Inactive)
REMARK    1  A    between atoms: N_2  and  C_3 
REMARK    2  A    between atoms: C_3  and  C_4 
REMARK    3  A    between atoms: C_4  and  C_5 
REMARK    4  A    between atoms: C_5  and  N_6 
REMARK    5  A    between atoms: C_14  and  C_15 
REMARK    6  A    between atoms: C_21  and  C_22 
ROOT
HETATM    1  C   UNK N   1      23.732  19.188   3.703  0.00  0.00     0.061 A 
HETATM    2  C   UNK N   1      23.543  20.362   2.826  0.00  0.00     0.260 A 
HETATM    3  O   UNK N   1      24.423  21.005   2.274  0.00  0.00    -0.267 OA
HETATM    4  N   UNK N   1      22.242  20.636   2.665  0.00  0.00    -0.289 N 
HETATM    5  C   UNK N   1      21.555  19.725   3.370  0.00  0.00     0.260 A 
HETATM    6  O   UNK N   1      20.338  19.748   3.449  0.00  0.00    -0.267 OA
HETATM    7  C   UNK N   1      22.468  18.771   4.043  0.00  0.00     0.061 A 
HETATM    8  H   UNK N   1      21.861  21.370   2.129  0.00  0.00     0.172 HD
ENDROOT
BRANCH   1   9
HETATM    9  C   UNK N   1      25.062  18.647   4.143  0.00  0.00     0.009 A 
HETATM   10  C   UNK N   1      25.911  19.243   5.060  0.00  0.00     0.104 A 
HETATM   11  N   UNK N   1      27.082  18.592   5.108  0.00  0.00    -0.355 N 
HETATM   12  C   UNK N   1      26.998  17.562   4.253  0.00  0.00     0.045 A 
HETATM   13  C   UNK N   1      27.996  16.648   3.925  0.00  0.00     0.030 A 
HETATM   14  C   UNK N   1      25.764  17.549   3.648  0.00  0.00     0.003 A 
HETATM   15  C   UNK N   1      27.703  15.680   2.950  0.00  0.00     0.002 A 
HETATM   16  C   UNK N   1      26.437  15.659   2.325  0.00  0.00     0.001 A 
HETATM   17  C   UNK N   1      25.457  16.608   2.667  0.00  0.00     0.014 A 
BRANCH  11  18
HETATM   18  C   UNK N   1      28.237  19.080   5.845  0.00  0.00     0.130 C 
BRANCH  18  19
HETATM   19  C   UNK N   1      27.881  19.571   7.228  0.00  0.00     0.039 C 
BRANCH  19  20
HETATM   20  C   UNK N   1      28.598  18.692   8.236  0.00  0.00     0.112 C 
BRANCH  20  21
HETATM   21  N   UNK N   1      27.651  18.214   9.231  0.00  0.00    -0.430 N 
HETATM   22  H   UNK N   1      26.696  18.288   9.582  0.00  0.00     0.149 HD
HETATM   23  H   UNK N   1      28.137  17.530   9.811  0.00  0.00     0.149 HD
ENDBRANCH  20  21
ENDBRANCH  19  20
ENDBRANCH  18  19
ENDBRANCH  11  18
ENDBRANCH   1   9
BRANCH   7  24
HETATM   24  C   UNK N   1      22.034  17.638   4.956  0.00  0.00     0.009 A 
HETATM   25  C   UNK N   1      22.002  16.262   4.711  0.00  0.00     0.003 A 
HETATM   26  C   UNK N   1      22.341  15.498   3.596  0.00  0.00     0.014 A 
HETATM   27  C   UNK N   1      21.540  15.659   5.856  0.00  0.00     0.045 A 
HETATM   28  C   UNK N   1      22.195  14.100   3.674  0.00  0.00     0.001 A 
HETATM   29  C   UNK N   1      21.720  13.494   4.856  0.00  0.00     0.002 A 
HETATM   30  C   UNK N   1      21.387  14.280   5.969  0.00  0.00     0.030 A 
HETATM   31  N   UNK N   1      21.281  16.575   6.791  0.00  0.00    -0.360 N 
HETATM   32  C   UNK N   1      20.788  16.351   8.139  0.00  0.00     0.156 C 
HETATM   33  C   UNK N   1      21.568  17.776   6.262  0.00  0.00     0.104 A 
ENDBRANCH   7  24
TORSDOF 6
ENDMDL
MODEL 4
REMARK VINA RESULT:      -7.4      3.132      6.894
REMARK  6 active torsions:
REMARK  status: ('A' for Active; 'I' for Inactive)
REMARK    1  A    between atoms: N_2  and  C_3 
REMARK    2  A    between atoms: C_3  and  C_4 
REMARK    3  A    between atoms: C_4  and  C_5 
REMARK    4  A    between atoms: C_5  and  N_6 
REMARK    5  A    between atoms: C_14  and  C_15 
REMARK    6  A    between atoms: C_21  and  C_22 
ROOT
HETATM    1  C   UNK N   1      23.689  19.276   3.716  0.00  0.00     0.061 A 
HETATM    2  C   UNK N   1      23.507  20.412   2.790  0.00  0.00     0.260 A 
HETATM    3  O   UNK N   1      24.390  21.028   2.213  0.00  0.00    -0.267 OA
HETATM    4  N   UNK N   1      22.207  20.685   2.616  0.00  0.00    -0.289 N 
HETATM    5  C   UNK N   1      21.515  19.807   3.357  0.00  0.00     0.260 A 
HETATM    6  O   UNK N   1      20.298  19.838   3.433  0.00  0.00    -0.267 OA
HETATM    7  C   UNK N   1      22.423  18.878   4.071  0.00  0.00     0.061 A 
HETATM    8  H   UNK N   1      21.830  21.397   2.049  0.00  0.00     0.172 HD
ENDROOT
BRANCH   1   9
HETATM    9  C   UNK N   1      25.016  18.747   4.181  0.00  0.00     0.009 A 
HETATM   10  C   UNK N   1      25.520  17.485   3.911  0.00  0.00     0.104 A 
HETATM   11  N   UNK N   1      26.648  17.273   4.603  0.00  0.00    -0.355 N 
HETATM   12  C   UNK N   1      26.901  18.391   5.301  0.00  0.00     0.045 A 
HETATM   13  C   UNK N   1      27.936  18.608   6.208  0.00  0.00     0.030 A 
HETATM   14  C   UNK N   1      25.929  19.330   5.057  0.00  0.00     0.003 A 
HETATM   15  C   UNK N   1      27.973  19.844   6.874  0.00  0.00     0.002 A 
HETATM   16  C   UNK N   1      26.978  20.816   6.629  0.00  0.00     0.001 A 
HETATM   17  C   UNK N   1      25.937  20.558   5.719  0.00  0.00     0.014 A 
BRANCH  11  18
HETATM   18  C   UNK N   1      27.315  15.982   4.666  0.00  0.00     0.130 C 
BRANCH  18  19
HETATM   19  C   UNK N   1      26.357  14.844   4.925  0.00  0.00     0.039 C 
BRANCH  19  20
HETATM   20  C   UNK N   1      26.191  14.703   6.427  0.00  0.00     0.112 C 
BRANCH  20  21
HETATM   21  N   UNK N   1      24.993  15.409   6.856  0.00  0.00    -0.430 N 
HETATM   22  H   UNK N   1      24.113  15.331   7.365  0.00  0.00     0.149 HD
HETATM   23  H   UNK N   1      25.060  16.364   6.505  0.00  0.00     0.149 HD
ENDBRANCH  20  21
ENDBRANCH  19  20
ENDBRANCH  18  19
ENDBRANCH  11  18
ENDBRANCH   1   9
BRANCH   7  24
HETATM   24  C   UNK N   1      21.983  17.786   5.030  0.00  0.00     0.009 A 
HETATM   25  C   UNK N   1      22.070  16.397   4.894  0.00  0.00     0.003 A 
HETATM   26  C   UNK N   1      22.567  15.581   3.881  0.00  0.00     0.014 A 
HETATM   27  C   UNK N   1      21.543  15.847   6.039  0.00  0.00     0.045 A 
HETATM   28  C   UNK N   1      22.511  14.185   4.058  0.00  0.00     0.001 A 
HETATM   29  C   UNK N   1      21.967  13.634   5.238  0.00  0.00     0.002 A 
HETATM   30  C   UNK N   1      21.476  14.472   6.248  0.00  0.00     0.030 A 
HETATM   31  N   UNK N   1      21.132  16.808   6.869  0.00  0.00    -0.360 N 
HETATM   32  C   UNK N   1      20.528  16.646   8.181  0.00  0.00     0.156 C 
HETATM   33  C   UNK N   1      21.385  17.984   6.272  0.00  0.00     0.104 A 
ENDBRANCH   7  24
TORSDOF 6
ENDMDL
MODEL 5
REMARK VINA RESULT:      -7.3     11.950     15.249
REMARK  6 active torsions:
REMARK  status: ('A' for Active; 'I' for Inactive)
REMARK    1  A    between atoms: N_2  and  C_3 
REMARK    2  A    between atoms: C_3  and  C_4 
REMARK    3  A    between atoms: C_4  and  C_5 
REMARK    4  A    between atoms: C_5  and  N_6 
REMARK    5  A    between atoms: C_14  and  C_15 
REMARK    6  A    between atoms: C_21  and  C_22 
ROOT
HETATM    1  C   UNK N   1      28.661  24.395  -3.804  0.00  0.00     0.061 A 
HETATM    2  C   UNK N   1      27.826  23.761  -2.763  0.00  0.00     0.260 A 
HETATM    3  O   UNK N   1      26.606  23.779  -2.699  0.00  0.00    -0.267 OA
HETATM    4  N   UNK N   1      28.583  23.103  -1.876  0.00  0.00    -0.289 N 
HETATM    5  C   UNK N   1      29.861  23.253  -2.257  0.00  0.00     0.260 A 
HETATM    6  O   UNK N   1      30.789  22.796  -1.611  0.00  0.00    -0.267 OA
HETATM    7  C   UNK N   1      29.958  24.065  -3.493  0.00  0.00     0.061 A 
HETATM    8  H   UNK N   1      28.262  22.602  -1.091  0.00  0.00     0.172 HD
ENDROOT
BRANCH   1   9
HETATM    9  C   UNK N   1      28.141  25.261  -4.916  0.00  0.00     0.009 A 
HETATM   10  C   UNK N   1      27.868  24.838  -6.206  0.00  0.00     0.104 A 
HETATM   11  N   UNK N   1      27.576  25.885  -6.991  0.00  0.00    -0.355 N 
HETATM   12  C   UNK N   1      27.629  26.983  -6.223  0.00  0.00     0.045 A 
HETATM   13  C   UNK N   1      27.459  28.307  -6.623  0.00  0.00     0.030 A 
HETATM   14  C   UNK N   1      27.959  26.643  -4.933  0.00  0.00     0.003 A 
HETATM   15  C   UNK N   1      27.620  29.309  -5.652  0.00  0.00     0.002 A 
HETATM   16  C   UNK N   1      27.957  28.968  -4.325  0.00  0.00     0.001 A 
HETATM   17  C   UNK N   1      28.140  27.623  -3.958  0.00  0.00     0.014 A 
BRANCH  11  18
HETATM   18  C   UNK N   1      27.416  25.781  -8.433  0.00  0.00     0.130 C 
BRANCH  18  19
HETATM   19  C   UNK N   1      25.980  25.937  -8.872  0.00  0.00     0.039 C 
BRANCH  19  20
HETATM   20  C   UNK N   1      25.504  24.596  -9.401  0.00  0.00     0.112 C 
BRANCH  20  21
HETATM   21  N   UNK N   1      25.079  23.755  -8.292  0.00  0.00    -0.430 N 
HETATM   22  H   UNK N   1      24.281  23.422  -7.751  0.00  0.00     0.149 HD
HETATM   23  H   UNK N   1      25.916  23.327  -7.896  0.00  0.00     0.149 HD
ENDBRANCH  20  21
ENDBRANCH  19  20
ENDBRANCH  18  19
ENDBRANCH  11  18
ENDBRANCH   1   9
BRANCH   7  24
HETATM   24  C   UNK N   1      31.251  24.467  -4.179  0.00  0.00     0.009 A 
HETATM   25  C   UNK N   1      31.831  25.733  -4.310  0.00  0.00     0.003 A 
HETATM   26  C   UNK N   1      31.438  26.996  -3.876  0.00  0.00     0.014 A 
HETATM   27  C   UNK N   1      33.004  25.567  -5.007  0.00  0.00     0.045 A 
HETATM   28  C   UNK N   1      32.268  28.094  -4.172  0.00  0.00     0.001 A 
HETATM   29  C   UNK N   1      33.470  27.911  -4.889  0.00  0.00     0.002 A 
HETATM   30  C   UNK N   1      33.850  26.630  -5.314  0.00  0.00     0.030 A 
HETATM   31  N   UNK N   1      33.182  24.282  -5.319  0.00  0.00    -0.360 N 
HETATM   32  C   UNK N   1      34.296  23.692  -6.041  0.00  0.00     0.156 C 
HETATM   33  C   UNK N   1      32.130  23.605  -4.832  0.00  0.00     0.104 A 
ENDBRANCH   7  24
TORSDOF 6
ENDMDL
MODEL 6
REMARK VINA RESULT:      -7.3      2.524      4.316
REMARK  6 active torsions:
REMARK  status: ('A' for Active; 'I' for Inactive)
REMARK    1  A    between atoms: N_2  and  C_3 
REMARK    2  A    between atoms: C_3  and  C_4 
REMARK    3  A    between atoms: C_4  and  C_5 
REMARK    4  A    between atoms: C_5  and  N_6 
REMARK    5  A    between atoms: C_14  and  C_15 
REMARK    6  A    between atoms: C_21  and  C_22 
ROOT
HETATM    1  C   UNK N   1      22.838  15.773   5.562  0.00  0.00     0.061 A 
HETATM    2  C   UNK N   1      22.269  15.090   6.742  0.00  0.00     0.260 A 
HETATM    3  O   UNK N   1      22.472  13.934   7.080  0.00  0.00    -0.267 OA
HETATM    4  N   UNK N   1      21.498  15.924   7.453  0.00  0.00    -0.289 N 
HETATM    5  C   UNK N   1      21.520  17.111   6.831  0.00  0.00     0.260 A 
HETATM    6  O   UNK N   1      20.869  18.064   7.227  0.00  0.00    -0.267 OA
HETATM    7  C   UNK N   1      22.374  17.065   5.620  0.00  0.00     0.061 A 
HETATM    8  H   UNK N   1      21.008  15.705   8.279  0.00  0.00     0.172 HD
ENDROOT
BRANCH   1   9
HETATM    9  C   UNK N   1      23.696  15.118   4.517  0.00  0.00     0.009 A 
HETATM   10  C   UNK N   1      25.059  14.896   4.618  0.00  0.00     0.104 A 
HETATM   11  N   UNK N   1      25.547  14.443   3.455  0.00  0.00    -0.355 N 
HETATM   12  C   UNK N   1      24.514  14.340   2.604  0.00  0.00     0.045 A 
HETATM   13  C   UNK N   1      24.555  13.969   1.262  0.00  0.00     0.030 A 
HETATM   14  C   UNK N   1      23.352  14.731   3.223  0.00  0.00     0.003 A 
HETATM   15  C   UNK N   1      23.349  13.990   0.541  0.00  0.00     0.002 A 
HETATM   16  C   UNK N   1      22.150  14.389   1.170  0.00  0.00     0.001 A 
HETATM   17  C   UNK N   1      22.147  14.775   2.523  0.00  0.00     0.014 A 
BRANCH  11  18
HETATM   18  C   UNK N   1      26.969  14.283   3.193  0.00  0.00     0.130 C 
BRANCH  18  19
HETATM   19  C   UNK N   1      27.599  15.529   2.617  0.00  0.00     0.039 C 
BRANCH  19  20
HETATM   20  C   UNK N   1      28.412  16.193   3.713  0.00  0.00     0.112 C 
BRANCH  20  21
HETATM   21  N   UNK N   1      29.368  17.117   3.122  0.00  0.00    -0.430 N 
HETATM   22  H   UNK N   1      30.119  17.780   3.312  0.00  0.00     0.149 HD
HETATM   23  H   UNK N   1      29.231  17.093   2.111  0.00  0.00     0.149 HD
ENDBRANCH  20  21
ENDBRANCH  19  20
ENDBRANCH  18  19
ENDBRANCH  11  18
ENDBRANCH   1   9
BRANCH   7  24
HETATM   24  C   UNK N   1      22.591  18.217   4.655  0.00  0.00     0.009 A 
HETATM   25  C   UNK N   1      23.785  18.809   4.232  0.00  0.00     0.003 A 
HETATM   26  C   UNK N   1      25.120  18.553   4.538  0.00  0.00     0.014 A 
HETATM   27  C   UNK N   1      23.449  19.807   3.349  0.00  0.00     0.045 A 
HETATM   28  C   UNK N   1      26.110  19.344   3.924  0.00  0.00     0.001 A 
HETATM   29  C   UNK N   1      25.751  20.366   3.019  0.00  0.00     0.002 A 
HETATM   30  C   UNK N   1      24.402  20.605   2.722  0.00  0.00     0.030 A 
HETATM   31  N   UNK N   1      22.125  19.873   3.205  0.00  0.00    -0.360 N 
HETATM   32  C   UNK N   1      21.370  20.782   2.359  0.00  0.00     0.156 C 
HETATM   33  C   UNK N   1      21.590  18.924   3.991  0.00  0.00     0.104 A 
ENDBRANCH   7  24
TORSDOF 6
ENDMDL
MODEL 7
REMARK VINA RESULT:      -7.3      5.463      9.109
REMARK  6 active torsions:
REMARK  status: ('A' for Active; 'I' for Inactive)
REMARK    1  A    between atoms: N_2  and  C_3 
REMARK    2  A    between atoms: C_3  and  C_4 
REMARK    3  A    between atoms: C_4  and  C_5 
REMARK    4  A    between atoms: C_5  and  N_6 
REMARK    5  A    between atoms: C_14  and  C_15 
REMARK    6  A    between atoms: C_21  and  C_22 
ROOT
HETATM    1  C   UNK N   1      27.054  18.931   5.085  0.00  0.00     0.061 A 
HETATM    2  C   UNK N   1      26.649  20.351   5.124  0.00  0.00     0.260 A 
HETATM    3  O   UNK N   1      27.318  21.287   5.536  0.00  0.00    -0.267 OA
HETATM    4  N   UNK N   1      25.426  20.516   4.603  0.00  0.00    -0.289 N 
HETATM    5  C   UNK N   1      24.994  19.306   4.217  0.00  0.00     0.260 A 
HETATM    6  O   UNK N   1      23.884  19.134   3.741  0.00  0.00    -0.267 OA
HETATM    7  C   UNK N   1      26.008  18.262   4.497  0.00  0.00     0.061 A 
HETATM    8  H   UNK N   1      24.936  21.366   4.518  0.00  0.00     0.172 HD
ENDROOT
BRANCH   1   9
HETATM    9  C   UNK N   1      28.337  18.386   5.644  0.00  0.00     0.009 A 
HETATM   10  C   UNK N   1      29.379  17.858   4.900  0.00  0.00     0.104 A 
HETATM   11  N   UNK N   1      30.302  17.313   5.706  0.00  0.00    -0.355 N 
HETATM   12  C   UNK N   1      29.888  17.503   6.968  0.00  0.00     0.045 A 
HETATM   13  C   UNK N   1      30.495  17.051   8.137  0.00  0.00     0.030 A 
HETATM   14  C   UNK N   1      28.689  18.174   6.975  0.00  0.00     0.003 A 
HETATM   15  C   UNK N   1      29.848  17.316   9.355  0.00  0.00     0.002 A 
HETATM   16  C   UNK N   1      28.616  18.006   9.372  0.00  0.00     0.001 A 
HETATM   17  C   UNK N   1      28.021  18.433   8.172  0.00  0.00     0.014 A 
BRANCH  11  18
HETATM   18  C   UNK N   1      31.425  16.528   5.218  0.00  0.00     0.130 C 
BRANCH  18  19
HETATM   19  C   UNK N   1      32.559  17.386   4.711  0.00  0.00     0.039 C 
BRANCH  19  20
HETATM   20  C   UNK N   1      32.936  16.893   3.326  0.00  0.00     0.112 C 
BRANCH  20  21
HETATM   21  N   UNK N   1      31.826  17.106   2.411  0.00  0.00    -0.430 N 
HETATM   22  H   UNK N   1      31.405  16.825   1.525  0.00  0.00     0.149 HD
HETATM   23  H   UNK N   1      31.229  17.827   2.817  0.00  0.00     0.149 HD
ENDBRANCH  20  21
ENDBRANCH  19  20
ENDBRANCH  18  19
ENDBRANCH  11  18
ENDBRANCH   1   9
BRANCH   7  24
HETATM   24  C   UNK N   1      25.836  16.777   4.228  0.00  0.00     0.009 A 
HETATM   25  C   UNK N   1      25.747  15.715   5.133  0.00  0.00     0.003 A 
HETATM   26  C   UNK N   1      25.784  15.661   6.525  0.00  0.00     0.014 A 
HETATM   27  C   UNK N   1      25.588  14.568   4.393  0.00  0.00     0.045 A 
HETATM   28  C   UNK N   1      25.659  14.405   7.148  0.00  0.00     0.001 A 
HETATM   29  C   UNK N   1      25.496  13.234   6.377  0.00  0.00     0.002 A 
HETATM   30  C   UNK N   1      25.458  13.311   4.977  0.00  0.00     0.030 A 
HETATM   31  N   UNK N   1      25.579  14.854   3.090  0.00  0.00    -0.360 N 
HETATM   32  C   UNK N   1      25.424  13.928   1.981  0.00  0.00     0.156 C 
HETATM   33  C   UNK N   1      25.734  16.183   2.972  0.00  0.00     0.104 A 
ENDBRANCH   7  24
TORSDOF 6
ENDMDL
MODEL 8
REMARK VINA RESULT:      -7.3      2.006      6.636
REMARK  6 active torsions:
REMARK  status: ('A' for Active; 'I' for Inactive)
REMARK    1  A    between atoms: N_2  and  C_3 
REMARK    2  A    between atoms: C_3  and  C_4 
REMARK    3  A    between atoms: C_4  and  C_5 
REMARK    4  A    between atoms: C_5  and  N_6 
REMARK    5  A    between atoms: C_14  and  C_15 
REMARK    6  A    between atoms: C_21  and  C_22 
ROOT
HETATM    1  C   UNK N   1      21.451  17.098   5.914  0.00  0.00     0.061 A 
HETATM    2  C   UNK N   1      20.794  17.548   7.159  0.00  0.00     0.260 A 
HETATM    3  O   UNK N   1      20.678  18.701   7.543  0.00  0.00    -0.267 OA
HETATM    4  N   UNK N   1      20.284  16.509   7.834  0.00  0.00    -0.289 N 
HETATM    5  C   UNK N   1      20.553  15.404   7.123  0.00  0.00     0.260 A 
HETATM    6  O   UNK N   1      20.246  14.290   7.514  0.00  0.00    -0.267 OA
HETATM    7  C   UNK N   1      21.290  15.734   5.881  0.00  0.00     0.061 A 
HETATM    8  H   UNK N   1      19.801  16.550   8.692  0.00  0.00     0.172 HD
ENDROOT
BRANCH   1   9
HETATM    9  C   UNK N   1      22.180  17.993   4.953  0.00  0.00     0.009 A 
HETATM   10  C   UNK N   1      23.528  18.306   5.007  0.00  0.00     0.104 A 
HETATM   11  N   UNK N   1      23.826  19.252   4.107  0.00  0.00    -0.355 N 
HETATM   12  C   UNK N   1      22.695  19.542   3.446  0.00  0.00     0.045 A 
HETATM   13  C   UNK N   1      22.512  20.511   2.462  0.00  0.00     0.030 A 
HETATM   14  C   UNK N   1      21.659  18.777   3.925  0.00  0.00     0.003 A 
HETATM   15  C   UNK N   1      21.216  20.684   1.948  0.00  0.00     0.002 A 
HETATM   16  C   UNK N   1      20.147  19.901   2.433  0.00  0.00     0.001 A 
HETATM   17  C   UNK N   1      20.362  18.943   3.440  0.00  0.00     0.014 A 
BRANCH  11  18
HETATM   18  C   UNK N   1      25.121  19.912   4.042  0.00  0.00     0.130 C 
BRANCH  18  19
HETATM   19  C   UNK N   1      26.037  19.510   5.172  0.00  0.00     0.039 C 
BRANCH  19  20
HETATM   20  C   UNK N   1      26.544  20.776   5.837  0.00  0.00     0.112 C 
BRANCH  20  21
HETATM   21  N   UNK N   1      26.216  20.751   7.254  0.00  0.00    -0.430 N 
HETATM   22  H   UNK N   1      26.450  21.122   8.175  0.00  0.00     0.149 HD
HETATM   23  H   UNK N   1      25.441  20.099   7.376  0.00  0.00     0.149 HD
ENDBRANCH  20  21
ENDBRANCH  19  20
ENDBRANCH  18  19
ENDBRANCH  11  18
ENDBRANCH   1   9
BRANCH   7  24
HETATM   24  C   UNK N   1      21.791  14.724   4.863  0.00  0.00     0.009 A 
HETATM   25  C   UNK N   1      21.516  14.629   3.496  0.00  0.00     0.003 A 
HETATM   26  C   UNK N   1      20.726  15.394   2.641  0.00  0.00     0.014 A 
HETATM   27  C   UNK N   1      22.218  13.548   3.018  0.00  0.00     0.045 A 
HETATM   28  C   UNK N   1      20.664  15.030   1.282  0.00  0.00     0.001 A 
HETATM   29  C   UNK N   1      21.390  13.918   0.805  0.00  0.00     0.002 A 
HETATM   30  C   UNK N   1      22.182  13.162   1.681  0.00  0.00     0.030 A 
HETATM   31  N   UNK N   1      22.904  12.967   4.004  0.00  0.00    -0.360 N 
HETATM   32  C   UNK N   1      23.774  11.807   3.914  0.00  0.00     0.156 C 
HETATM   33  C   UNK N   1      22.652  13.661   5.127  0.00  0.00     0.104 A 
ENDBRANCH   7  24
TORSDOF 6
ENDMDL
MODEL 9
REMARK VINA RESULT:      -7.2     12.051     15.363
REMARK  6 active torsions:
REMARK  status: ('A' for Active; 'I' for Inactive)
REMARK    1  A    between atoms: N_2  and  C_3 
REMARK    2  A    between atoms: C_3  and  C_4 
REMARK    3  A    between atoms: C_4  and  C_5 
REMARK    4  A    between atoms: C_5  and  N_6 
REMARK    5  A    between atoms: C_14  and  C_15 
REMARK    6  A    between atoms: C_21  and  C_22 
ROOT
HETATM    1  C   UNK N   1      29.977  23.754  -3.536  0.00  0.00     0.061 A 
HETATM    2  C   UNK N   1      29.726  23.169  -2.203  0.00  0.00     0.260 A 
HETATM    3  O   UNK N   1      30.562  22.700  -1.446  0.00  0.00    -0.267 OA
HETATM    4  N   UNK N   1      28.427  23.244  -1.883  0.00  0.00    -0.289 N 
HETATM    5  C   UNK N   1      27.801  23.841  -2.908  0.00  0.00     0.260 A 
HETATM    6  O   UNK N   1      26.593  24.009  -2.921  0.00  0.00    -0.267 OA
HETATM    7  C   UNK N   1      28.756  24.194  -3.985  0.00  0.00     0.061 A 
HETATM    8  H   UNK N   1      28.011  22.922  -1.050  0.00  0.00     0.172 HD
ENDROOT
BRANCH   1   9
HETATM    9  C   UNK N   1      31.310  23.778  -4.229  0.00  0.00     0.009 A 
HETATM   10  C   UNK N   1      32.091  22.670  -4.512  0.00  0.00     0.104 A 
HETATM   11  N   UNK N   1      33.286  23.047  -4.986  0.00  0.00    -0.355 N 
HETATM   12  C   UNK N   1      33.285  24.388  -5.042  0.00  0.00     0.045 A 
HETATM   13  C   UNK N   1      34.337  25.222  -5.414  0.00  0.00     0.030 A 
HETATM   14  C   UNK N   1      32.080  24.878  -4.599  0.00  0.00     0.003 A 
HETATM   15  C   UNK N   1      34.130  26.609  -5.338  0.00  0.00     0.002 A 
HETATM   16  C   UNK N   1      32.894  27.122  -4.886  0.00  0.00     0.001 A 
HETATM   17  C   UNK N   1      31.858  26.251  -4.501  0.00  0.00     0.014 A 
BRANCH  11  18
HETATM   18  C   UNK N   1      34.385  22.122  -5.209  0.00  0.00     0.130 C 
BRANCH  18  19
HETATM   19  C   UNK N   1      34.627  21.210  -4.030  0.00  0.00     0.039 C 
BRANCH  19  20
HETATM   20  C   UNK N   1      34.573  19.777  -4.528  0.00  0.00     0.112 C 
BRANCH  20  21
HETATM   21  N   UNK N   1      33.552  19.043  -3.797  0.00  0.00    -0.430 N 
HETATM   22  H   UNK N   1      32.604  18.667  -3.831  0.00  0.00     0.149 HD
HETATM   23  H   UNK N   1      33.939  18.811  -2.882  0.00  0.00     0.149 HD
ENDBRANCH  20  21
ENDBRANCH  19  20
ENDBRANCH  18  19
ENDBRANCH  11  18
ENDBRANCH   1   9
BRANCH   7  24
HETATM   24  C   UNK N   1      28.386  24.842  -5.307  0.00  0.00     0.009 A 
HETATM   25  C   UNK N   1      28.232  26.196  -5.621  0.00  0.00     0.003 A 
HETATM   26  C   UNK N   1      28.360  27.357  -4.861  0.00  0.00     0.014 A 
HETATM   27  C   UNK N   1      27.900  26.266  -6.953  0.00  0.00     0.045 A 
HETATM   28  C   UNK N   1      28.138  28.596  -5.492  0.00  0.00     0.001 A 
HETATM   29  C   UNK N   1      27.799  28.654  -6.860  0.00  0.00     0.002 A 
HETATM   30  C   UNK N   1      27.678  27.474  -7.608  0.00  0.00     0.030 A 
HETATM   31  N   UNK N   1      27.835  25.042  -7.480  0.00  0.00    -0.360 N 
HETATM   32  C   UNK N   1      27.526  24.684  -8.854  0.00  0.00     0.156 C 
HETATM   33  C   UNK N   1      28.119  24.170  -6.498  0.00  0.00     0.104 A 
ENDBRANCH   7  24
TORSDOF 6
ENDMDL
