REMARK  9 active torsions:
REMARK  status: ('A' for Active; 'I' for Inactive)
REMARK    1  A    between atoms: N_1  and  C_25 
REMARK    2  A    between atoms: O_4  and  C_26 
REMARK    3  A    between atoms: C_5  and  C_10 
REMARK    4  A    between atoms: C_5  and  C_18 
REMARK    5  A    between atoms: C_6  and  O_8 
REMARK    6  A    between atoms: N_12  and  C_24 
REMARK    7  A    between atoms: C_18  and  C_23 
REMARK    8  A    between atoms: N_19  and  C_23 
REMARK    9  A    between atoms: C_20  and  C_27 
ROOT
HETATM    1  C   UNK N   1       0.526   1.096  -0.594  0.00  0.00     0.280 C 
ENDROOT
BRANCH   1   2
HETATM    2  C   UNK N   1       1.273   2.253  -1.246  0.00  0.00     0.114 C 
BRANCH   2   3
HETATM    3  C   UNK N   1       2.659   2.492  -0.708  0.00  0.00     0.161 C 
HETATM    4  O   UNK N   1       3.004   3.646  -0.501  0.00  0.00    -0.292 OA
BRANCH   3   5
HETATM    5  C   UNK N   1       3.610   1.384  -0.425  0.00  0.00     0.015 A 
HETATM    6  C   UNK N   1       4.916   1.671  -0.016  0.00  0.00     0.054 A 
HETATM    7  C   UNK N   1       5.802   0.639   0.298  0.00  0.00     0.102 A 
HETATM    8  C   UNK N   1       5.384  -0.699   0.233  0.00  0.00     0.132 A 
HETATM    9  C   UNK N   1       4.063  -1.004  -0.170  0.00  0.00     0.139 A 
HETATM   10  C   UNK N   1       3.205   0.046  -0.508  0.00  0.00     0.054 A 
BRANCH   7  11
HETATM   11  O   UNK N   1       7.056   0.939   0.677  0.00  0.00    -0.358 OA
HETATM   12  H   UNK N   1       7.674   0.286   0.941  0.00  0.00     0.217 HD
ENDBRANCH   7  11
BRANCH   8  13
HETATM   13  O   UNK N   1       6.249  -1.675   0.561  0.00  0.00    -0.356 OA
HETATM   14  H   UNK N   1       5.961  -2.537   0.790  0.00  0.00     0.218 HD
ENDBRANCH   8  13
BRANCH   9  15
HETATM   15  N   UNK N   1       3.569  -2.346  -0.216  0.00  0.00    -0.113 N 
HETATM   16  O   UNK N   1       4.263  -3.266   0.089  0.00  0.00    -0.532 OA
HETATM   17  O   UNK N   1       2.313  -2.571  -0.546  0.00  0.00    -0.532 OA
ENDBRANCH   9  15
ENDBRANCH   3   5
ENDBRANCH   2   3
ENDBRANCH   1   2
BRANCH   1  18
HETATM   18  N   UNK N   1       0.624   1.111   0.870  0.00  0.00     0.092 N 
HETATM   19  C   UNK N   1       0.715  -0.250   1.398  0.00  0.00     0.292 C 
HETATM   20  C   UNK N   1      -0.449  -1.139   0.948  0.00  0.00     0.153 C 
HETATM   21  N   UNK N   1      -1.704  -0.419   0.769  0.00  0.00    -0.377 N 
HETATM   22  C   UNK N   1      -1.840   1.015   1.028  0.00  0.00     0.153 C 
HETATM   23  C   UNK N   1      -0.557   1.718   1.464  0.00  0.00     0.292 C 
BRANCH  21  24
HETATM   24  C   UNK N   1      -2.844  -1.113   0.268  0.00  0.00     0.030 A 
HETATM   25  C   UNK N   1      -2.828  -2.500   0.036  0.00  0.00     0.029 A 
HETATM   26  C   UNK N   1      -3.982  -3.147  -0.427  0.00  0.00     0.003 A 
HETATM   27  C   UNK N   1      -5.154  -2.414  -0.660  0.00  0.00     0.016 A 
HETATM   28  C   UNK N   1      -5.166  -1.028  -0.449  0.00  0.00     0.050 A 
HETATM   29  C   UNK N   1      -4.016  -0.398   0.009  0.00  0.00     0.045 A 
BRANCH  28  30
HETATM   30  C   UNK N   1      -6.404  -0.214  -0.679  0.00  0.00     0.417 C 
HETATM   31  F   UNK N   1      -7.381  -0.607   0.215  0.00  0.00    -0.166 F 
HETATM   32  F   UNK N   1      -6.146   1.136  -0.489  0.00  0.00    -0.166 F 
HETATM   33  F   UNK N   1      -6.857  -0.397  -1.971  0.00  0.00    -0.166 F 
ENDBRANCH  28  30
ENDBRANCH  21  24
ENDBRANCH   1  18
TORSDOF 9
