MODEL 1
REMARK VINA RESULT:      -8.4      0.000      0.000
REMARK  9 active torsions:
REMARK  status: ('A' for Active; 'I' for Inactive)
REMARK    1  A    between atoms: N_1  and  C_25 
REMARK    2  A    between atoms: O_4  and  C_26 
REMARK    3  A    between atoms: C_5  and  C_10 
REMARK    4  A    between atoms: C_5  and  C_18 
REMARK    5  A    between atoms: C_6  and  O_8 
REMARK    6  A    between atoms: N_12  and  C_24 
REMARK    7  A    between atoms: C_18  and  C_23 
REMARK    8  A    between atoms: N_19  and  C_23 
REMARK    9  A    between atoms: C_20  and  C_27 
ROOT
HETATM    1  C   UNK N   1      19.581  15.166   5.969  0.00  0.00     0.280 C 
ENDROOT
BRANCH   1   2
HETATM    2  C   UNK N   1      19.295  15.174   4.472  0.00  0.00     0.114 C 
BRANCH   2   3
HETATM    3  C   UNK N   1      20.492  15.458   3.604  0.00  0.00     0.161 C 
HETATM    4  O   UNK N   1      21.431  14.677   3.645  0.00  0.00    -0.292 OA
BRANCH   3   5
HETATM    5  C   UNK N   1      20.568  16.644   2.709  0.00  0.00     0.015 A 
HETATM    6  C   UNK N   1      20.318  16.505   1.341  0.00  0.00     0.054 A 
HETATM    7  C   UNK N   1      20.340  17.619   0.500  0.00  0.00     0.102 A 
HETATM    8  C   UNK N   1      20.588  18.897   1.024  0.00  0.00     0.132 A 
HETATM    9  C   UNK N   1      20.834  19.055   2.408  0.00  0.00     0.139 A 
HETATM   10  C   UNK N   1      20.835  17.919   3.222  0.00  0.00     0.054 A 
BRANCH   7  11
HETATM   11  O   UNK N   1      20.108  17.459  -0.814  0.00  0.00    -0.358 OA
HETATM   12  H   UNK N   1      20.169  16.626  -1.240  0.00  0.00     0.217 HD
ENDBRANCH   7  11
BRANCH   8  13
HETATM   13  O   UNK N   1      20.583  19.959   0.198  0.00  0.00    -0.356 OA
HETATM   14  H   UNK N   1      20.204  19.919  -0.659  0.00  0.00     0.218 HD
ENDBRANCH   8  13
BRANCH   9  15
HETATM   15  N   UNK N   1      21.052  20.337   3.004  0.00  0.00    -0.113 N 
HETATM   16  O   UNK N   1      21.904  21.065   2.598  0.00  0.00    -0.532 OA
HETATM   17  O   UNK N   1      20.267  20.748   3.980  0.00  0.00    -0.532 OA
ENDBRANCH   9  15
ENDBRANCH   3   5
ENDBRANCH   2   3
ENDBRANCH   1   2
BRANCH   1  18
HETATM   18  N   UNK N   1      19.859  16.505   6.501  0.00  0.00     0.092 N 
HETATM   19  C   UNK N   1      21.289  16.675   6.758  0.00  0.00     0.292 C 
HETATM   20  C   UNK N   1      21.854  15.599   7.691  0.00  0.00     0.153 C 
HETATM   21  N   UNK N   1      20.901  15.123   8.686  0.00  0.00    -0.377 N 
HETATM   22  C   UNK N   1      19.540  15.651   8.797  0.00  0.00     0.153 C 
HETATM   23  C   UNK N   1      19.173  16.715   7.766  0.00  0.00     0.292 C 
BRANCH  21  24
HETATM   24  C   UNK N   1      21.273  14.060   9.560  0.00  0.00     0.030 A 
HETATM   25  C   UNK N   1      20.326  13.372  10.339  0.00  0.00     0.029 A 
HETATM   26  C   UNK N   1      20.732  12.311  11.161  0.00  0.00     0.003 A 
HETATM   27  C   UNK N   1      22.081  11.934  11.209  0.00  0.00     0.016 A 
HETATM   28  C   UNK N   1      23.030  12.632  10.448  0.00  0.00     0.050 A 
HETATM   29  C   UNK N   1      22.616  13.682   9.638  0.00  0.00     0.045 A 
BRANCH  28  30
HETATM   30  C   UNK N   1      24.480  12.251  10.467  0.00  0.00     0.417 C 
HETATM   31  F   UNK N   1      24.733  11.369   9.434  0.00  0.00    -0.166 F 
HETATM   32  F   UNK N   1      25.284  13.370  10.302  0.00  0.00    -0.166 F 
HETATM   33  F   UNK N   1      24.796  11.656  11.673  0.00  0.00    -0.166 F 
ENDBRANCH  28  30
ENDBRANCH  21  24
ENDBRANCH   1  18
TORSDOF 9
ENDMDL
MODEL 2
REMARK VINA RESULT:      -8.3     15.630     17.829
REMARK  9 active torsions:
REMARK  status: ('A' for Active; 'I' for Inactive)
REMARK    1  A    between atoms: N_1  and  C_25 
REMARK    2  A    between atoms: O_4  and  C_26 
REMARK    3  A    between atoms: C_5  and  C_10 
REMARK    4  A    between atoms: C_5  and  C_18 
REMARK    5  A    between atoms: C_6  and  O_8 
REMARK    6  A    between atoms: N_12  and  C_24 
REMARK    7  A    between atoms: C_18  and  C_23 
REMARK    8  A    between atoms: N_19  and  C_23 
REMARK    9  A    between atoms: C_20  and  C_27 
ROOT
HETATM    1  C   UNK N   1      27.626  22.623  -7.663  0.00  0.00     0.280 C 
ENDROOT
BRANCH   1   2
HETATM    2  C   UNK N   1      28.321  21.338  -7.231  0.00  0.00     0.114 C 
BRANCH   2   3
HETATM    3  C   UNK N   1      29.813  21.454  -7.061  0.00  0.00     0.161 C 
HETATM    4  O   UNK N   1      30.493  21.626  -8.061  0.00  0.00    -0.292 OA
BRANCH   3   5
HETATM    5  C   UNK N   1      30.476  21.366  -5.733  0.00  0.00     0.015 A 
HETATM    6  C   UNK N   1      31.431  20.374  -5.493  0.00  0.00     0.054 A 
HETATM    7  C   UNK N   1      32.095  20.312  -4.266  0.00  0.00     0.102 A 
HETATM    8  C   UNK N   1      31.830  21.262  -3.268  0.00  0.00     0.132 A 
HETATM    9  C   UNK N   1      30.873  22.277  -3.500  0.00  0.00     0.139 A 
HETATM   10  C   UNK N   1      30.201  22.299  -4.725  0.00  0.00     0.054 A 
BRANCH   7  11
HETATM   11  O   UNK N   1      33.000  19.342  -4.054  0.00  0.00    -0.358 OA
HETATM   12  H   UNK N   1      32.927  18.727  -3.350  0.00  0.00     0.217 HD
ENDBRANCH   7  11
BRANCH   8  13
HETATM   13  O   UNK N   1      32.497  21.195  -2.102  0.00  0.00    -0.356 OA
HETATM   14  H   UNK N   1      32.872  20.394  -1.790  0.00  0.00     0.218 HD
ENDBRANCH   8  13
BRANCH   9  15
HETATM   15  N   UNK N   1      30.591  23.296  -2.535  0.00  0.00    -0.113 N 
HETATM   16  O   UNK N   1      30.382  23.020  -1.395  0.00  0.00    -0.532 OA
HETATM   17  O   UNK N   1      30.615  24.564  -2.895  0.00  0.00    -0.532 OA
ENDBRANCH   9  15
ENDBRANCH   3   5
ENDBRANCH   2   3
ENDBRANCH   1   2
BRANCH   1  18
HETATM   18  N   UNK N   1      26.163  22.510  -7.645  0.00  0.00     0.092 N 
HETATM   19  C   UNK N   1      25.559  23.431  -8.607  0.00  0.00     0.292 C 
HETATM   20  C   UNK N   1      25.987  24.886  -8.383  0.00  0.00     0.153 C 
HETATM   21  N   UNK N   1      26.234  25.217  -6.985  0.00  0.00    -0.377 N 
HETATM   22  C   UNK N   1      26.058  24.254  -5.898  0.00  0.00     0.153 C 
HETATM   23  C   UNK N   1      25.631  22.855  -6.336  0.00  0.00     0.292 C 
BRANCH  21  24
HETATM   24  C   UNK N   1      26.723  26.514  -6.649  0.00  0.00     0.030 A 
HETATM   25  C   UNK N   1      27.531  27.255  -7.530  0.00  0.00     0.029 A 
HETATM   26  C   UNK N   1      27.963  28.540  -7.172  0.00  0.00     0.003 A 
HETATM   27  C   UNK N   1      27.592  29.088  -5.936  0.00  0.00     0.016 A 
HETATM   28  C   UNK N   1      26.804  28.342  -5.048  0.00  0.00     0.050 A 
HETATM   29  C   UNK N   1      26.382  27.070  -5.414  0.00  0.00     0.045 A 
BRANCH  28  30
HETATM   30  C   UNK N   1      26.380  28.900  -3.723  0.00  0.00     0.417 C 
HETATM   31  F   UNK N   1      25.323  28.158  -3.232  0.00  0.00    -0.166 F 
HETATM   32  F   UNK N   1      27.424  28.843  -2.810  0.00  0.00    -0.166 F 
HETATM   33  F   UNK N   1      25.994  30.219  -3.866  0.00  0.00    -0.166 F 
ENDBRANCH  28  30
ENDBRANCH  21  24
ENDBRANCH   1  18
TORSDOF 9
ENDMDL
MODEL 3
REMARK VINA RESULT:      -8.1      1.486      2.748
REMARK  9 active torsions:
REMARK  status: ('A' for Active; 'I' for Inactive)
REMARK    1  A    between atoms: N_1  and  C_25 
REMARK    2  A    between atoms: O_4  and  C_26 
REMARK    3  A    between atoms: C_5  and  C_10 
REMARK    4  A    between atoms: C_5  and  C_18 
REMARK    5  A    between atoms: C_6  and  O_8 
REMARK    6  A    between atoms: N_12  and  C_24 
REMARK    7  A    between atoms: C_18  and  C_23 
REMARK    8  A    between atoms: N_19  and  C_23 
REMARK    9  A    between atoms: C_20  and  C_27 
ROOT
HETATM    1  C   UNK N   1      21.484  16.833   6.892  0.00  0.00     0.280 C 
ENDROOT
BRANCH   1   2
HETATM    2  C   UNK N   1      22.485  16.321   5.863  0.00  0.00     0.114 C 
BRANCH   2   3
HETATM    3  C   UNK N   1      23.079  17.384   4.977  0.00  0.00     0.161 C 
HETATM    4  O   UNK N   1      24.251  17.685   5.148  0.00  0.00    -0.292 OA
BRANCH   3   5
HETATM    5  C   UNK N   1      22.296  18.073   3.917  0.00  0.00     0.015 A 
HETATM    6  C   UNK N   1      22.314  19.468   3.829  0.00  0.00     0.054 A 
HETATM    7  C   UNK N   1      21.621  20.122   2.808  0.00  0.00     0.102 A 
HETATM    8  C   UNK N   1      20.919  19.384   1.842  0.00  0.00     0.132 A 
HETATM    9  C   UNK N   1      20.900  17.972   1.913  0.00  0.00     0.139 A 
HETATM   10  C   UNK N   1      21.577  17.343   2.962  0.00  0.00     0.054 A 
BRANCH   7  11
HETATM   11  O   UNK N   1      21.643  21.464   2.751  0.00  0.00    -0.358 OA
HETATM   12  H   UNK N   1      21.493  22.004   3.502  0.00  0.00     0.217 HD
ENDBRANCH   7  11
BRANCH   8  13
HETATM   13  O   UNK N   1      20.277  20.035   0.856  0.00  0.00    -0.356 OA
HETATM   14  H   UNK N   1      20.658  20.769   0.416  0.00  0.00     0.218 HD
ENDBRANCH   8  13
BRANCH   9  15
HETATM   15  N   UNK N   1      20.236  17.167   0.934  0.00  0.00    -0.113 N 
HETATM   16  O   UNK N   1      20.307  17.429  -0.226  0.00  0.00    -0.532 OA
HETATM   17  O   UNK N   1      19.581  16.086   1.309  0.00  0.00    -0.532 OA
ENDBRANCH   9  15
ENDBRANCH   3   5
ENDBRANCH   2   3
ENDBRANCH   1   2
BRANCH   1  18
HETATM   18  N   UNK N   1      20.099  16.482   6.559  0.00  0.00     0.092 N 
HETATM   19  C   UNK N   1      19.237  16.598   7.735  0.00  0.00     0.292 C 
HETATM   20  C   UNK N   1      19.734  15.759   8.917  0.00  0.00     0.153 C 
HETATM   21  N   UNK N   1      20.410  14.529   8.523  0.00  0.00    -0.377 N 
HETATM   22  C   UNK N   1      20.569  14.124   7.126  0.00  0.00     0.153 C 
HETATM   23  C   UNK N   1      20.008  15.105   6.100  0.00  0.00     0.292 C 
BRANCH  21  24
HETATM   24  C   UNK N   1      20.997  13.701   9.524  0.00  0.00     0.030 A 
HETATM   25  C   UNK N   1      20.231  13.110  10.544  0.00  0.00     0.029 A 
HETATM   26  C   UNK N   1      20.845  12.277  11.490  0.00  0.00     0.003 A 
HETATM   27  C   UNK N   1      22.223  12.031  11.421  0.00  0.00     0.016 A 
HETATM   28  C   UNK N   1      22.993  12.636  10.417  0.00  0.00     0.050 A 
HETATM   29  C   UNK N   1      22.373  13.460   9.487  0.00  0.00     0.045 A 
BRANCH  28  30
HETATM   30  C   UNK N   1      24.467  12.388  10.308  0.00  0.00     0.417 C 
HETATM   31  F   UNK N   1      25.117  13.588  10.092  0.00  0.00    -0.166 F 
HETATM   32  F   UNK N   1      24.958  11.823  11.477  0.00  0.00    -0.166 F 
HETATM   33  F   UNK N   1      24.726  11.525   9.261  0.00  0.00    -0.166 F 
ENDBRANCH  28  30
ENDBRANCH  21  24
ENDBRANCH   1  18
TORSDOF 9
ENDMDL
MODEL 4
REMARK VINA RESULT:      -8.1      4.779      6.356
REMARK  9 active torsions:
REMARK  status: ('A' for Active; 'I' for Inactive)
REMARK    1  A    between atoms: N_1  and  C_25 
REMARK    2  A    between atoms: O_4  and  C_26 
REMARK    3  A    between atoms: C_5  and  C_10 
REMARK    4  A    between atoms: C_5  and  C_18 
REMARK    5  A    between atoms: C_6  and  O_8 
REMARK    6  A    between atoms: N_12  and  C_24 
REMARK    7  A    between atoms: C_18  and  C_23 
REMARK    8  A    between atoms: N_19  and  C_23 
REMARK    9  A    between atoms: C_20  and  C_27 
ROOT
HETATM    1  C   UNK N   1      22.623  15.866   6.722  0.00  0.00     0.280 C 
ENDROOT
BRANCH   1   2
HETATM    2  C   UNK N   1      21.176  16.323   6.585  0.00  0.00     0.114 C 
BRANCH   2   3
HETATM    3  C   UNK N   1      21.003  17.718   6.045  0.00  0.00     0.161 C 
HETATM    4  O   UNK N   1      20.969  18.643   6.843  0.00  0.00    -0.292 OA
BRANCH   3   5
HETATM    5  C   UNK N   1      20.873  18.003   4.591  0.00  0.00     0.015 A 
HETATM    6  C   UNK N   1      20.261  17.071   3.747  0.00  0.00     0.054 A 
HETATM    7  C   UNK N   1      20.092  17.349   2.390  0.00  0.00     0.102 A 
HETATM    8  C   UNK N   1      20.509  18.580   1.861  0.00  0.00     0.132 A 
HETATM    9  C   UNK N   1      21.120  19.537   2.704  0.00  0.00     0.139 A 
HETATM   10  C   UNK N   1      21.306  19.221   4.053  0.00  0.00     0.054 A 
BRANCH   7  11
HETATM   11  O   UNK N   1      19.512  16.432   1.597  0.00  0.00    -0.358 OA
HETATM   12  H   UNK N   1      18.731  15.975   1.839  0.00  0.00     0.217 HD
ENDBRANCH   7  11
BRANCH   8  13
HETATM   13  O   UNK N   1      20.315  18.834   0.554  0.00  0.00    -0.356 OA
HETATM   14  H   UNK N   1      20.379  18.162  -0.096  0.00  0.00     0.218 HD
ENDBRANCH   8  13
BRANCH   9  15
HETATM   15  N   UNK N   1      21.529  20.823   2.229  0.00  0.00    -0.113 N 
HETATM   16  O   UNK N   1      20.920  21.381   1.369  0.00  0.00    -0.532 OA
HETATM   17  O   UNK N   1      22.558  21.430   2.785  0.00  0.00    -0.532 OA
ENDBRANCH   9  15
ENDBRANCH   3   5
ENDBRANCH   2   3
ENDBRANCH   1   2
BRANCH   1  18
HETATM   18  N   UNK N   1      22.895  14.618   6.001  0.00  0.00     0.092 N 
HETATM   19  C   UNK N   1      24.113  13.982   6.503  0.00  0.00     0.292 C 
HETATM   20  C   UNK N   1      25.331  14.910   6.446  0.00  0.00     0.153 C 
HETATM   21  N   UNK N   1      25.305  15.848   5.331  0.00  0.00    -0.377 N 
HETATM   22  C   UNK N   1      24.226  15.875   4.342  0.00  0.00     0.153 C 
HETATM   23  C   UNK N   1      23.102  14.870   4.583  0.00  0.00     0.292 C 
BRANCH  21  24
HETATM   24  C   UNK N   1      26.336  16.825   5.213  0.00  0.00     0.030 A 
HETATM   25  C   UNK N   1      27.688  16.511   5.436  0.00  0.00     0.029 A 
HETATM   26  C   UNK N   1      28.673  17.496   5.278  0.00  0.00     0.003 A 
HETATM   27  C   UNK N   1      28.313  18.796   4.898  0.00  0.00     0.016 A 
HETATM   28  C   UNK N   1      26.963  19.117   4.695  0.00  0.00     0.050 A 
HETATM   29  C   UNK N   1      25.996  18.133   4.856  0.00  0.00     0.045 A 
BRANCH  28  30
HETATM   30  C   UNK N   1      26.542  20.495   4.279  0.00  0.00     0.417 C 
HETATM   31  F   UNK N   1      26.909  20.706   2.964  0.00  0.00    -0.166 F 
HETATM   32  F   UNK N   1      25.167  20.641   4.386  0.00  0.00    -0.166 F 
HETATM   33  F   UNK N   1      27.148  21.438   5.086  0.00  0.00    -0.166 F 
ENDBRANCH  28  30
ENDBRANCH  21  24
ENDBRANCH   1  18
TORSDOF 9
ENDMDL
MODEL 5
REMARK VINA RESULT:      -7.9     15.581     17.852
REMARK  9 active torsions:
REMARK  status: ('A' for Active; 'I' for Inactive)
REMARK    1  A    between atoms: N_1  and  C_25 
REMARK    2  A    between atoms: O_4  and  C_26 
REMARK    3  A    between atoms: C_5  and  C_10 
REMARK    4  A    between atoms: C_5  and  C_18 
REMARK    5  A    between atoms: C_6  and  O_8 
REMARK    6  A    between atoms: N_12  and  C_24 
REMARK    7  A    between atoms: C_18  and  C_23 
REMARK    8  A    between atoms: N_19  and  C_23 
REMARK    9  A    between atoms: C_20  and  C_27 
ROOT
HETATM    1  C   UNK N   1      28.050  22.305  -8.180  0.00  0.00     0.280 C 
ENDROOT
BRANCH   1   2
HETATM    2  C   UNK N   1      28.850  21.144  -7.604  0.00  0.00     0.114 C 
BRANCH   2   3
HETATM    3  C   UNK N   1      30.088  21.544  -6.845  0.00  0.00     0.161 C 
HETATM    4  O   UNK N   1      31.153  21.548  -7.444  0.00  0.00    -0.292 OA
BRANCH   3   5
HETATM    5  C   UNK N   1      30.057  21.930  -5.409  0.00  0.00     0.015 A 
HETATM    6  C   UNK N   1      31.042  21.458  -4.537  0.00  0.00     0.054 A 
HETATM    7  C   UNK N   1      31.050  21.852  -3.198  0.00  0.00     0.102 A 
HETATM    8  C   UNK N   1      30.084  22.749  -2.717  0.00  0.00     0.132 A 
HETATM    9  C   UNK N   1      29.086  23.242  -3.590  0.00  0.00     0.139 A 
HETATM   10  C   UNK N   1      29.083  22.809  -4.918  0.00  0.00     0.054 A 
BRANCH   7  11
HETATM   11  O   UNK N   1      32.000  21.375  -2.375  0.00  0.00    -0.358 OA
HETATM   12  H   UNK N   1      32.771  20.946  -2.690  0.00  0.00     0.217 HD
ENDBRANCH   7  11
BRANCH   8  13
HETATM   13  O   UNK N   1      30.124  23.130  -1.428  0.00  0.00    -0.356 OA
HETATM   14  H   UNK N   1      29.510  22.810  -0.796  0.00  0.00     0.218 HD
ENDBRANCH   8  13
BRANCH   9  15
HETATM   15  N   UNK N   1      28.101  24.189  -3.166  0.00  0.00    -0.113 N 
HETATM   16  O   UNK N   1      28.029  25.267  -3.671  0.00  0.00    -0.532 OA
HETATM   17  O   UNK N   1      27.221  23.851  -2.244  0.00  0.00    -0.532 OA
ENDBRANCH   9  15
ENDBRANCH   3   5
ENDBRANCH   2   3
ENDBRANCH   1   2
BRANCH   1  18
HETATM   18  N   UNK N   1      26.687  21.921  -8.561  0.00  0.00     0.092 N 
HETATM   19  C   UNK N   1      26.102  22.910  -9.466  0.00  0.00     0.292 C 
HETATM   20  C   UNK N   1      26.116  24.327  -8.883  0.00  0.00     0.153 C 
HETATM   21  N   UNK N   1      25.973  24.368  -7.433  0.00  0.00    -0.377 N 
HETATM   22  C   UNK N   1      25.801  23.165  -6.618  0.00  0.00     0.153 C 
HETATM   23  C   UNK N   1      25.821  21.850  -7.394  0.00  0.00     0.292 C 
BRANCH  21  24
HETATM   24  C   UNK N   1      26.058  25.620  -6.756  0.00  0.00     0.030 A 
HETATM   25  C   UNK N   1      25.173  25.967  -5.720  0.00  0.00     0.029 A 
HETATM   26  C   UNK N   1      25.313  27.196  -5.060  0.00  0.00     0.003 A 
HETATM   27  C   UNK N   1      26.335  28.081  -5.430  0.00  0.00     0.016 A 
HETATM   28  C   UNK N   1      27.206  27.745  -6.476  0.00  0.00     0.050 A 
HETATM   29  C   UNK N   1      27.057  26.525  -7.124  0.00  0.00     0.045 A 
BRANCH  28  30
HETATM   30  C   UNK N   1      28.316  28.663  -6.893  0.00  0.00     0.417 C 
HETATM   31  F   UNK N   1      28.422  28.656  -8.270  0.00  0.00    -0.166 F 
HETATM   32  F   UNK N   1      28.062  29.962  -6.474  0.00  0.00    -0.166 F 
HETATM   33  F   UNK N   1      29.509  28.247  -6.334  0.00  0.00    -0.166 F 
ENDBRANCH  28  30
ENDBRANCH  21  24
ENDBRANCH   1  18
TORSDOF 9
ENDMDL
MODEL 6
REMARK VINA RESULT:      -7.8     11.437     13.857
REMARK  9 active torsions:
REMARK  status: ('A' for Active; 'I' for Inactive)
REMARK    1  A    between atoms: N_1  and  C_25 
REMARK    2  A    between atoms: O_4  and  C_26 
REMARK    3  A    between atoms: C_5  and  C_10 
REMARK    4  A    between atoms: C_5  and  C_18 
REMARK    5  A    between atoms: C_6  and  O_8 
REMARK    6  A    between atoms: N_12  and  C_24 
REMARK    7  A    between atoms: C_18  and  C_23 
REMARK    8  A    between atoms: N_19  and  C_23 
REMARK    9  A    between atoms: C_20  and  C_27 
ROOT
HETATM    1  C   UNK N   1      34.748  15.531   9.665  0.00  0.00     0.280 C 
ENDROOT
BRANCH   1   2
HETATM    2  C   UNK N   1      34.976  17.024   9.864  0.00  0.00     0.114 C 
BRANCH   2   3
HETATM    3  C   UNK N   1      34.606  17.881   8.682  0.00  0.00     0.161 C 
HETATM    4  O   UNK N   1      35.246  18.905   8.493  0.00  0.00    -0.292 OA
BRANCH   3   5
HETATM    5  C   UNK N   1      33.502  17.528   7.751  0.00  0.00     0.015 A 
HETATM    6  C   UNK N   1      32.174  17.595   8.184  0.00  0.00     0.054 A 
HETATM    7  C   UNK N   1      31.128  17.311   7.304  0.00  0.00     0.102 A 
HETATM    8  C   UNK N   1      31.396  16.982   5.967  0.00  0.00     0.132 A 
HETATM    9  C   UNK N   1      32.734  16.920   5.512  0.00  0.00     0.139 A 
HETATM   10  C   UNK N   1      33.764  17.178   6.420  0.00  0.00     0.054 A 
BRANCH   7  11
HETATM   11  O   UNK N   1      29.860  17.370   7.746  0.00  0.00    -0.358 OA
HETATM   12  H   UNK N   1      29.165  17.740   7.239  0.00  0.00     0.217 HD
ENDBRANCH   7  11
BRANCH   8  13
HETATM   13  O   UNK N   1      30.370  16.734   5.133  0.00  0.00    -0.356 OA
HETATM   14  H   UNK N   1      29.489  16.974   5.344  0.00  0.00     0.218 HD
ENDBRANCH   8  13
BRANCH   9  15
HETATM   15  N   UNK N   1      33.065  16.629   4.151  0.00  0.00    -0.113 N 
HETATM   16  O   UNK N   1      33.772  15.710   3.875  0.00  0.00    -0.532 OA
HETATM   17  O   UNK N   1      32.540  17.350   3.181  0.00  0.00    -0.532 OA
ENDBRANCH   9  15
ENDBRANCH   3   5
ENDBRANCH   2   3
ENDBRANCH   1   2
BRANCH   1  18
HETATM   18  N   UNK N   1      35.893  14.861   9.039  0.00  0.00     0.092 N 
HETATM   19  C   UNK N   1      35.530  13.514   8.599  0.00  0.00     0.292 C 
HETATM   20  C   UNK N   1      34.960  12.654   9.732  0.00  0.00     0.153 C 
HETATM   21  N   UNK N   1      35.526  12.956  11.041  0.00  0.00    -0.377 N 
HETATM   22  C   UNK N   1      36.565  13.967  11.242  0.00  0.00     0.153 C 
HETATM   23  C   UNK N   1      36.991  14.716   9.983  0.00  0.00     0.292 C 
BRANCH  21  24
HETATM   24  C   UNK N   1      35.019  12.288  12.194  0.00  0.00     0.030 A 
HETATM   25  C   UNK N   1      34.343  11.058  12.103  0.00  0.00     0.029 A 
HETATM   26  C   UNK N   1      33.889  10.420  13.266  0.00  0.00     0.003 A 
HETATM   27  C   UNK N   1      34.107  11.007  14.521  0.00  0.00     0.016 A 
HETATM   28  C   UNK N   1      34.761  12.243  14.611  0.00  0.00     0.050 A 
HETATM   29  C   UNK N   1      35.206  12.866  13.452  0.00  0.00     0.045 A 
BRANCH  28  30
HETATM   30  C   UNK N   1      35.019  12.895  15.937  0.00  0.00     0.417 C 
HETATM   31  F   UNK N   1      35.479  11.947  16.830  0.00  0.00    -0.166 F 
HETATM   32  F   UNK N   1      35.977  13.891  15.815  0.00  0.00    -0.166 F 
HETATM   33  F   UNK N   1      33.855  13.461  16.420  0.00  0.00    -0.166 F 
ENDBRANCH  28  30
ENDBRANCH  21  24
ENDBRANCH   1  18
TORSDOF 9
ENDMDL
MODEL 7
REMARK VINA RESULT:      -7.8      4.529      6.738
REMARK  9 active torsions:
REMARK  status: ('A' for Active; 'I' for Inactive)
REMARK    1  A    between atoms: N_1  and  C_25 
REMARK    2  A    between atoms: O_4  and  C_26 
REMARK    3  A    between atoms: C_5  and  C_10 
REMARK    4  A    between atoms: C_5  and  C_18 
REMARK    5  A    between atoms: C_6  and  O_8 
REMARK    6  A    between atoms: N_12  and  C_24 
REMARK    7  A    between atoms: C_18  and  C_23 
REMARK    8  A    between atoms: N_19  and  C_23 
REMARK    9  A    between atoms: C_20  and  C_27 
ROOT
HETATM    1  C   UNK N   1      23.059  15.555   6.057  0.00  0.00     0.280 C 
ENDROOT
BRANCH   1   2
HETATM    2  C   UNK N   1      21.576  15.622   5.716  0.00  0.00     0.114 C 
BRANCH   2   3
HETATM    3  C   UNK N   1      21.010  17.015   5.633  0.00  0.00     0.161 C 
HETATM    4  O   UNK N   1      20.675  17.562   6.673  0.00  0.00    -0.292 OA
BRANCH   3   5
HETATM    5  C   UNK N   1      20.845  17.737   4.343  0.00  0.00     0.015 A 
HETATM    6  C   UNK N   1      21.090  19.112   4.275  0.00  0.00     0.054 A 
HETATM    7  C   UNK N   1      20.984  19.790   3.060  0.00  0.00     0.102 A 
HETATM    8  C   UNK N   1      20.657  19.095   1.886  0.00  0.00     0.132 A 
HETATM    9  C   UNK N   1      20.415  17.702   1.937  0.00  0.00     0.139 A 
HETATM   10  C   UNK N   1      20.498  17.052   3.172  0.00  0.00     0.054 A 
BRANCH   7  11
HETATM   11  O   UNK N   1      21.213  21.114   3.022  0.00  0.00    -0.358 OA
HETATM   12  H   UNK N   1      21.498  21.555   2.246  0.00  0.00     0.217 HD
ENDBRANCH   7  11
BRANCH   8  13
HETATM   13  O   UNK N   1      20.582  19.766   0.723  0.00  0.00    -0.356 OA
HETATM   14  H   UNK N   1      20.264  20.647   0.678  0.00  0.00     0.218 HD
ENDBRANCH   8  13
BRANCH   9  15
HETATM   15  N   UNK N   1      20.118  16.934   0.767  0.00  0.00    -0.113 N 
HETATM   16  O   UNK N   1      20.360  17.356  -0.321  0.00  0.00    -0.532 OA
HETATM   17  O   UNK N   1      19.620  15.720   0.889  0.00  0.00    -0.532 OA
ENDBRANCH   9  15
ENDBRANCH   3   5
ENDBRANCH   2   3
ENDBRANCH   1   2
BRANCH   1  18
HETATM   18  N   UNK N   1      23.800  14.630   5.192  0.00  0.00     0.092 N 
HETATM   19  C   UNK N   1      25.222  14.628   5.532  0.00  0.00     0.292 C 
HETATM   20  C   UNK N   1      25.846  16.026   5.479  0.00  0.00     0.153 C 
HETATM   21  N   UNK N   1      25.253  16.897   4.472  0.00  0.00    -0.377 N 
HETATM   22  C   UNK N   1      24.181  16.460   3.576  0.00  0.00     0.153 C 
HETATM   23  C   UNK N   1      23.698  15.029   3.797  0.00  0.00     0.292 C 
BRANCH  21  24
HETATM   24  C   UNK N   1      25.682  18.253   4.378  0.00  0.00     0.030 A 
HETATM   25  C   UNK N   1      25.597  18.979   3.177  0.00  0.00     0.029 A 
HETATM   26  C   UNK N   1      26.002  20.321   3.138  0.00  0.00     0.003 A 
HETATM   27  C   UNK N   1      26.491  20.942   4.295  0.00  0.00     0.016 A 
HETATM   28  C   UNK N   1      26.596  20.214   5.489  0.00  0.00     0.050 A 
HETATM   29  C   UNK N   1      26.193  18.885   5.515  0.00  0.00     0.045 A 
BRANCH  28  30
HETATM   30  C   UNK N   1      27.107  20.848   6.748  0.00  0.00     0.417 C 
HETATM   31  F   UNK N   1      26.091  21.578   7.336  0.00  0.00    -0.166 F 
HETATM   32  F   UNK N   1      27.535  19.881   7.646  0.00  0.00    -0.166 F 
HETATM   33  F   UNK N   1      28.170  21.682   6.460  0.00  0.00    -0.166 F 
ENDBRANCH  28  30
ENDBRANCH  21  24
ENDBRANCH   1  18
TORSDOF 9
ENDMDL
MODEL 8
REMARK VINA RESULT:      -7.7     10.340     12.705
REMARK  9 active torsions:
REMARK  status: ('A' for Active; 'I' for Inactive)
REMARK    1  A    between atoms: N_1  and  C_25 
REMARK    2  A    between atoms: O_4  and  C_26 
REMARK    3  A    between atoms: C_5  and  C_10 
REMARK    4  A    between atoms: C_5  and  C_18 
REMARK    5  A    between atoms: C_6  and  O_8 
REMARK    6  A    between atoms: N_12  and  C_24 
REMARK    7  A    between atoms: C_18  and  C_23 
REMARK    8  A    between atoms: N_19  and  C_23 
REMARK    9  A    between atoms: C_20  and  C_27 
ROOT
HETATM    1  C   UNK N   1      31.245  14.400   5.386  0.00  0.00     0.280 C 
ENDROOT
BRANCH   1   2
HETATM    2  C   UNK N   1      32.724  14.467   5.027  0.00  0.00     0.114 C 
BRANCH   2   3
HETATM    3  C   UNK N   1      33.386  15.787   5.324  0.00  0.00     0.161 C 
HETATM    4  O   UNK N   1      33.541  16.573   4.402  0.00  0.00    -0.292 OA
BRANCH   3   5
HETATM    5  C   UNK N   1      33.853  16.159   6.687  0.00  0.00     0.015 A 
HETATM    6  C   UNK N   1      34.231  17.477   6.960  0.00  0.00     0.054 A 
HETATM    7  C   UNK N   1      34.625  17.848   8.247  0.00  0.00     0.102 A 
HETATM    8  C   UNK N   1      34.620  16.908   9.289  0.00  0.00     0.132 A 
HETATM    9  C   UNK N   1      34.230  15.573   9.029  0.00  0.00     0.139 A 
HETATM   10  C   UNK N   1      33.869  15.221   7.726  0.00  0.00     0.054 A 
BRANCH   7  11
HETATM   11  O   UNK N   1      34.996  19.118   8.482  0.00  0.00    -0.358 OA
HETATM   12  H   UNK N   1      34.733  19.587   9.250  0.00  0.00     0.217 HD
ENDBRANCH   7  11
BRANCH   8  13
HETATM   13  O   UNK N   1      34.983  17.294  10.525  0.00  0.00    -0.356 OA
HETATM   14  H   UNK N   1      34.489  17.054  11.284  0.00  0.00     0.218 HD
ENDBRANCH   8  13
BRANCH   9  15
HETATM   15  N   UNK N   1      34.166  14.582  10.059  0.00  0.00    -0.113 N 
HETATM   16  O   UNK N   1      34.402  13.438   9.824  0.00  0.00    -0.532 OA
HETATM   17  O   UNK N   1      33.899  14.942  11.299  0.00  0.00    -0.532 OA
ENDBRANCH   9  15
ENDBRANCH   3   5
ENDBRANCH   2   3
ENDBRANCH   1   2
BRANCH   1  18
HETATM   18  N   UNK N   1      30.380  14.271   4.207  0.00  0.00     0.092 N 
HETATM   19  C   UNK N   1      30.363  15.515   3.438  0.00  0.00     0.292 C 
HETATM   20  C   UNK N   1      29.945  16.726   4.278  0.00  0.00     0.153 C 
HETATM   21  N   UNK N   1      28.988  16.408   5.332  0.00  0.00    -0.377 N 
HETATM   22  C   UNK N   1      28.456  15.061   5.541  0.00  0.00     0.153 C 
HETATM   23  C   UNK N   1      29.007  13.995   4.598  0.00  0.00     0.292 C 
BRANCH  21  24
HETATM   24  C   UNK N   1      28.585  17.429   6.242  0.00  0.00     0.030 A 
HETATM   25  C   UNK N   1      28.665  17.258   7.635  0.00  0.00     0.029 A 
HETATM   26  C   UNK N   1      28.288  18.300   8.493  0.00  0.00     0.003 A 
HETATM   27  C   UNK N   1      27.829  19.515   7.965  0.00  0.00     0.016 A 
HETATM   28  C   UNK N   1      27.728  19.680   6.576  0.00  0.00     0.050 A 
HETATM   29  C   UNK N   1      28.104  18.640   5.736  0.00  0.00     0.045 A 
BRANCH  28  30
HETATM   30  C   UNK N   1      27.250  20.968   5.976  0.00  0.00     0.417 C 
HETATM   31  F   UNK N   1      28.070  21.998   6.394  0.00  0.00    -0.166 F 
HETATM   32  F   UNK N   1      27.285  20.907   4.590  0.00  0.00    -0.166 F 
HETATM   33  F   UNK N   1      25.951  21.221   6.371  0.00  0.00    -0.166 F 
ENDBRANCH  28  30
ENDBRANCH  21  24
ENDBRANCH   1  18
TORSDOF 9
ENDMDL
MODEL 9
REMARK VINA RESULT:      -7.7      5.269      6.645
REMARK  9 active torsions:
REMARK  status: ('A' for Active; 'I' for Inactive)
REMARK    1  A    between atoms: N_1  and  C_25 
REMARK    2  A    between atoms: O_4  and  C_26 
REMARK    3  A    between atoms: C_5  and  C_10 
REMARK    4  A    between atoms: C_5  and  C_18 
REMARK    5  A    between atoms: C_6  and  O_8 
REMARK    6  A    between atoms: N_12  and  C_24 
REMARK    7  A    between atoms: C_18  and  C_23 
REMARK    8  A    between atoms: N_19  and  C_23 
REMARK    9  A    between atoms: C_20  and  C_27 
ROOT
HETATM    1  C   UNK N   1      24.825  16.397   4.974  0.00  0.00     0.280 C 
ENDROOT
BRANCH   1   2
HETATM    2  C   UNK N   1      23.333  16.109   5.080  0.00  0.00     0.114 C 
BRANCH   2   3
HETATM    3  C   UNK N   1      22.461  17.332   5.189  0.00  0.00     0.161 C 
HETATM    4  O   UNK N   1      22.232  17.777   6.304  0.00  0.00    -0.292 OA
BRANCH   3   5
HETATM    5  C   UNK N   1      21.874  18.005   3.999  0.00  0.00     0.015 A 
HETATM    6  C   UNK N   1      21.998  19.390   3.849  0.00  0.00     0.054 A 
HETATM    7  C   UNK N   1      21.493  20.026   2.713  0.00  0.00     0.102 A 
HETATM    8  C   UNK N   1      20.880  19.279   1.696  0.00  0.00     0.132 A 
HETATM    9  C   UNK N   1      20.756  17.877   1.830  0.00  0.00     0.139 A 
HETATM   10  C   UNK N   1      21.243  17.268   2.990  0.00  0.00     0.054 A 
BRANCH   7  11
HETATM   11  O   UNK N   1      21.612  21.360   2.597  0.00  0.00    -0.358 OA
HETATM   12  H   UNK N   1      22.030  21.767   1.863  0.00  0.00     0.217 HD
ENDBRANCH   7  11
BRANCH   8  13
HETATM   13  O   UNK N   1      20.420  19.912   0.601  0.00  0.00    -0.356 OA
HETATM   14  H   UNK N   1      19.676  20.480   0.632  0.00  0.00     0.218 HD
ENDBRANCH   8  13
BRANCH   9  15
HETATM   15  N   UNK N   1      20.177  17.059   0.808  0.00  0.00    -0.113 N 
HETATM   16  O   UNK N   1      20.343  17.310  -0.345  0.00  0.00    -0.532 OA
HETATM   17  O   UNK N   1      19.496  15.981   1.139  0.00  0.00    -0.532 OA
ENDBRANCH   9  15
ENDBRANCH   3   5
ENDBRANCH   2   3
ENDBRANCH   1   2
BRANCH   1  18
HETATM   18  N   UNK N   1      25.216  16.887   3.648  0.00  0.00     0.092 N 
HETATM   19  C   UNK N   1      26.302  16.079   3.095  0.00  0.00     0.292 C 
HETATM   20  C   UNK N   1      27.521  16.012   4.021  0.00  0.00     0.153 C 
HETATM   21  N   UNK N   1      27.727  17.220   4.810  0.00  0.00    -0.377 N 
HETATM   22  C   UNK N   1      26.865  18.397   4.699  0.00  0.00     0.153 C 
HETATM   23  C   UNK N   1      25.701  18.257   3.721  0.00  0.00     0.292 C 
BRANCH  21  24
HETATM   24  C   UNK N   1      28.775  17.255   5.776  0.00  0.00     0.030 A 
HETATM   25  C   UNK N   1      30.123  17.077   5.418  0.00  0.00     0.029 A 
HETATM   26  C   UNK N   1      31.125  17.150   6.396  0.00  0.00     0.003 A 
HETATM   27  C   UNK N   1      30.785  17.401   7.733  0.00  0.00     0.016 A 
HETATM   28  C   UNK N   1      29.440  17.558   8.095  0.00  0.00     0.050 A 
HETATM   29  C   UNK N   1      28.457  17.482   7.117  0.00  0.00     0.045 A 
BRANCH  28  30
HETATM   30  C   UNK N   1      29.041  17.837   9.514  0.00  0.00     0.417 C 
HETATM   31  F   UNK N   1      27.691  18.124   9.560  0.00  0.00    -0.166 F 
HETATM   32  F   UNK N   1      29.288  16.734  10.318  0.00  0.00    -0.166 F 
HETATM   33  F   UNK N   1      29.760  18.909  10.005  0.00  0.00    -0.166 F 
ENDBRANCH  28  30
ENDBRANCH  21  24
ENDBRANCH   1  18
TORSDOF 9
ENDMDL
