MODEL 1
REMARK VINA RESULT:      -7.5      0.000      0.000
REMARK  2 active torsions:
REMARK  status: ('A' for Active; 'I' for Inactive)
REMARK    1  A    between atoms: C_10  and  O_14 
REMARK    2  A    between atoms: N_17  and  C_18 
ROOT
HETATM    1  O   UNK N   1      35.903  15.283   6.219  0.00  0.00    -0.288 OA
HETATM    2  C   UNK N   1      35.047  15.572   7.042  0.00  0.00     0.203 C 
HETATM    3  C   UNK N   1      35.156  15.105   8.439  0.00  0.00     0.041 A 
HETATM    4  C   UNK N   1      36.277  14.391   8.880  0.00  0.00     0.024 A 
HETATM    5  C   UNK N   1      36.384  14.017  10.222  0.00  0.00    -0.061 A 
HETATM    6  C   UNK N   1      37.589  13.287  10.694  0.00  0.00     0.048 C 
HETATM    7  C   UNK N   1      35.367  14.343  11.125  0.00  0.00     0.009 A 
HETATM    8  C   UNK N   1      34.135  15.442   9.352  0.00  0.00     0.047 A 
HETATM    9  C   UNK N   1      34.240  15.045  10.688  0.00  0.00     0.031 A 
HETATM   10  C   UNK N   1      33.988  16.585   6.712  0.00  0.00     0.182 C 
HETATM   11  C   UNK N   1      32.906  16.656   7.727  0.00  0.00     0.128 C 
HETATM   12  N   UNK N   1      32.976  16.140   8.909  0.00  0.00    -0.342 N 
ATOM     13  HN  UNK N   1      32.183  16.238   9.542  1.00  0.00     0.167 HD
HETATM   14  C   UNK N   1      33.146  16.385   5.447  0.00  0.00     0.075 C 
HETATM   15  C   UNK N   1      31.832  17.170   5.723  0.00  0.00     0.134 C 
HETATM   16  N   UNK N   1      31.716  17.137   7.158  0.00  0.00    -0.334 N 
ENDROOT
BRANCH  16  17
HETATM   17  C   UNK N   1      30.513  17.475   7.855  0.00  0.00     0.035 A 
HETATM   18  C   UNK N   1      30.538  18.310   8.985  0.00  0.00     0.029 A 
HETATM   19  C   UNK N   1      29.353  18.648   9.645  0.00  0.00     0.002 A 
HETATM   20  C   UNK N   1      28.130  18.165   9.175  0.00  0.00     0.000 A 
HETATM   21  C   UNK N   1      28.091  17.339   8.050  0.00  0.00     0.002 A 
HETATM   22  C   UNK N   1      29.277  16.993   7.395  0.00  0.00     0.029 A 
ENDBRANCH  16  17
BRANCH  10  23
HETATM   23  O   UNK N   1      34.595  17.840   6.622  0.00  0.00    -0.374 OA
HETATM   24  H   UNK N   1      35.253  18.482   6.314  0.00  0.00     0.211 HD
ENDBRANCH  10  23
TORSDOF 2
ENDMDL
MODEL 2
REMARK VINA RESULT:      -7.4      9.399     12.616
REMARK  2 active torsions:
REMARK  status: ('A' for Active; 'I' for Inactive)
REMARK    1  A    between atoms: C_10  and  O_14 
REMARK    2  A    between atoms: N_17  and  C_18 
ROOT
HETATM    1  O   UNK N   1      22.828  21.376   2.684  0.00  0.00    -0.288 OA
HETATM    2  C   UNK N   1      22.728  20.222   3.074  0.00  0.00     0.203 C 
HETATM    3  C   UNK N   1      23.904  19.498   3.597  0.00  0.00     0.041 A 
HETATM    4  C   UNK N   1      25.144  20.134   3.737  0.00  0.00     0.024 A 
HETATM    5  C   UNK N   1      26.225  19.445   4.294  0.00  0.00    -0.061 A 
HETATM    6  C   UNK N   1      27.530  20.132   4.471  0.00  0.00     0.048 C 
HETATM    7  C   UNK N   1      26.074  18.115   4.701  0.00  0.00     0.009 A 
HETATM    8  C   UNK N   1      23.751  18.160   4.016  0.00  0.00     0.047 A 
HETATM    9  C   UNK N   1      24.842  17.471   4.553  0.00  0.00     0.031 A 
HETATM   10  C   UNK N   1      21.374  19.591   3.238  0.00  0.00     0.182 C 
HETATM   11  C   UNK N   1      21.435  18.131   3.503  0.00  0.00     0.128 C 
HETATM   12  N   UNK N   1      22.504  17.494   3.850  0.00  0.00    -0.342 N 
ATOM     13  HN  UNK N   1      22.453  16.489   4.012  1.00  0.00     0.167 HD
HETATM   14  C   UNK N   1      20.408  19.600   2.048  0.00  0.00     0.075 C 
HETATM   15  C   UNK N   1      19.449  18.405   2.314  0.00  0.00     0.134 C 
HETATM   16  N   UNK N   1      20.251  17.497   3.094  0.00  0.00    -0.334 N 
ENDROOT
BRANCH  16  17
HETATM   17  C   UNK N   1      19.891  16.132   3.323  0.00  0.00     0.035 A 
HETATM   18  C   UNK N   1      19.420  15.704   4.576  0.00  0.00     0.029 A 
HETATM   19  C   UNK N   1      19.054  14.370   4.780  0.00  0.00     0.002 A 
HETATM   20  C   UNK N   1      19.143  13.454   3.730  0.00  0.00     0.000 A 
HETATM   21  C   UNK N   1      19.605  13.867   2.479  0.00  0.00     0.002 A 
HETATM   22  C   UNK N   1      19.981  15.198   2.277  0.00  0.00     0.029 A 
ENDBRANCH  16  17
BRANCH  10  23
HETATM   23  O   UNK N   1      20.730  20.211   4.312  0.00  0.00    -0.374 OA
HETATM   24  H   UNK N   1      20.101  20.816   4.733  0.00  0.00     0.211 HD
ENDBRANCH  10  23
TORSDOF 2
ENDMDL
MODEL 3
REMARK VINA RESULT:      -7.3      4.307      8.357
REMARK  2 active torsions:
REMARK  status: ('A' for Active; 'I' for Inactive)
REMARK    1  A    between atoms: C_10  and  O_14 
REMARK    2  A    between atoms: N_17  and  C_18 
ROOT
HETATM    1  O   UNK N   1      26.312  15.724   3.426  0.00  0.00    -0.288 OA
HETATM    2  C   UNK N   1      27.094  16.454   4.018  0.00  0.00     0.203 C 
HETATM    3  C   UNK N   1      26.920  17.920   3.997  0.00  0.00     0.041 A 
HETATM    4  C   UNK N   1      25.815  18.511   3.371  0.00  0.00     0.024 A 
HETATM    5  C   UNK N   1      25.641  19.897   3.422  0.00  0.00    -0.061 A 
HETATM    6  C   UNK N   1      24.451  20.518   2.784  0.00  0.00     0.048 C 
HETATM    7  C   UNK N   1      26.575  20.697   4.086  0.00  0.00     0.009 A 
HETATM    8  C   UNK N   1      27.857  18.728   4.674  0.00  0.00     0.047 A 
HETATM    9  C   UNK N   1      27.687  20.115   4.702  0.00  0.00     0.031 A 
HETATM   10  C   UNK N   1      28.112  15.872   4.956  0.00  0.00     0.182 C 
HETATM   11  C   UNK N   1      29.119  16.862   5.418  0.00  0.00     0.128 C 
HETATM   12  N   UNK N   1      29.000  18.142   5.287  0.00  0.00    -0.342 N 
ATOM     13  HN  UNK N   1      29.743  18.748   5.634  1.00  0.00     0.167 HD
HETATM   14  C   UNK N   1      29.047  14.772   4.440  0.00  0.00     0.075 C 
HETATM   15  C   UNK N   1      30.292  14.849   5.368  0.00  0.00     0.134 C 
HETATM   16  N   UNK N   1      30.315  16.227   5.788  0.00  0.00    -0.334 N 
ENDROOT
BRANCH  16  17
HETATM   17  C   UNK N   1      31.447  16.837   6.414  0.00  0.00     0.035 A 
HETATM   18  C   UNK N   1      31.403  17.243   7.759  0.00  0.00     0.029 A 
HETATM   19  C   UNK N   1      32.524  17.820   8.363  0.00  0.00     0.002 A 
HETATM   20  C   UNK N   1      33.703  17.987   7.634  0.00  0.00     0.000 A 
HETATM   21  C   UNK N   1      33.761  17.583   6.299  0.00  0.00     0.002 A 
HETATM   22  C   UNK N   1      32.638  17.014   5.690  0.00  0.00     0.029 A 
ENDBRANCH  16  17
BRANCH  10  23
HETATM   23  O   UNK N   1      27.442  15.368   6.073  0.00  0.00    -0.374 OA
HETATM   24  H   UNK N   1      27.358  15.065   6.990  0.00  0.00     0.211 HD
ENDBRANCH  10  23
TORSDOF 2
ENDMDL
MODEL 4
REMARK VINA RESULT:      -7.2     10.036     11.697
REMARK  2 active torsions:
REMARK  status: ('A' for Active; 'I' for Inactive)
REMARK    1  A    between atoms: C_10  and  O_14 
REMARK    2  A    between atoms: N_17  and  C_18 
ROOT
HETATM    1  O   UNK N   1      19.631  14.187   9.566  0.00  0.00    -0.288 OA
HETATM    2  C   UNK N   1      20.682  14.146   8.942  0.00  0.00     0.203 C 
HETATM    3  C   UNK N   1      21.890  13.544   9.539  0.00  0.00     0.041 A 
HETATM    4  C   UNK N   1      21.850  12.931  10.797  0.00  0.00     0.024 A 
HETATM    5  C   UNK N   1      22.992  12.311  11.311  0.00  0.00    -0.061 A 
HETATM    6  C   UNK N   1      22.937  11.634  12.633  0.00  0.00     0.048 C 
HETATM    7  C   UNK N   1      24.182  12.312  10.575  0.00  0.00     0.009 A 
HETATM    8  C   UNK N   1      23.088  13.537   8.794  0.00  0.00     0.047 A 
HETATM    9  C   UNK N   1      24.232  12.933   9.324  0.00  0.00     0.031 A 
HETATM   10  C   UNK N   1      20.711  14.504   7.483  0.00  0.00     0.182 C 
HETATM   11  C   UNK N   1      22.087  14.617   6.934  0.00  0.00     0.128 C 
HETATM   12  N   UNK N   1      23.150  14.183   7.527  0.00  0.00    -0.342 N 
ATOM     13  HN  UNK N   1      24.056  14.304   7.075  1.00  0.00     0.167 HD
HETATM   14  C   UNK N   1      20.144  15.858   7.044  0.00  0.00     0.075 C 
HETATM   15  C   UNK N   1      20.859  16.165   5.698  0.00  0.00     0.134 C 
HETATM   16  N   UNK N   1      22.113  15.465   5.816  0.00  0.00    -0.334 N 
ENDROOT
BRANCH  16  17
HETATM   17  C   UNK N   1      23.224  15.696   4.945  0.00  0.00     0.035 A 
HETATM   18  C   UNK N   1      23.494  14.836   3.867  0.00  0.00     0.029 A 
HETATM   19  C   UNK N   1      24.572  15.084   3.013  0.00  0.00     0.002 A 
HETATM   20  C   UNK N   1      25.385  16.201   3.220  0.00  0.00     0.000 A 
HETATM   21  C   UNK N   1      25.125  17.066   4.285  0.00  0.00     0.002 A 
HETATM   22  C   UNK N   1      24.052  16.813   5.145  0.00  0.00     0.029 A 
ENDBRANCH  16  17
BRANCH  10  23
HETATM   23  O   UNK N   1      20.031  13.510   6.775  0.00  0.00    -0.374 OA
HETATM   24  H   UNK N   1      19.256  13.076   6.388  0.00  0.00     0.211 HD
ENDBRANCH  10  23
TORSDOF 2
ENDMDL
MODEL 5
REMARK VINA RESULT:      -6.9     14.880     16.498
REMARK  2 active torsions:
REMARK  status: ('A' for Active; 'I' for Inactive)
REMARK    1  A    between atoms: C_10  and  O_14 
REMARK    2  A    between atoms: N_17  and  C_18 
ROOT
HETATM    1  O   UNK N   1      31.689  21.436  -4.527  0.00  0.00    -0.288 OA
HETATM    2  C   UNK N   1      30.677  22.020  -4.887  0.00  0.00     0.203 C 
HETATM    3  C   UNK N   1      29.867  21.503  -6.008  0.00  0.00     0.041 A 
HETATM    4  C   UNK N   1      30.185  20.292  -6.636  0.00  0.00     0.024 A 
HETATM    5  C   UNK N   1      29.365  19.794  -7.651  0.00  0.00    -0.061 A 
HETATM    6  C   UNK N   1      29.687  18.493  -8.293  0.00  0.00     0.048 C 
HETATM    7  C   UNK N   1      28.231  20.509  -8.052  0.00  0.00     0.009 A 
HETATM    8  C   UNK N   1      28.719  22.219  -6.407  0.00  0.00     0.047 A 
HETATM    9  C   UNK N   1      27.915  21.724  -7.438  0.00  0.00     0.031 A 
HETATM   10  C   UNK N   1      30.116  23.143  -4.063  0.00  0.00     0.182 C 
HETATM   11  C   UNK N   1      29.024  23.885  -4.746  0.00  0.00     0.128 C 
HETATM   12  N   UNK N   1      28.402  23.466  -5.798  0.00  0.00    -0.342 N 
ATOM     13  HN  UNK N   1      27.664  24.042  -6.201  1.00  0.00     0.167 HD
HETATM   14  C   UNK N   1      31.032  24.314  -3.691  0.00  0.00     0.075 C 
HETATM   15  C   UNK N   1      30.064  25.502  -3.428  0.00  0.00     0.134 C 
HETATM   16  N   UNK N   1      28.924  25.195  -4.253  0.00  0.00    -0.334 N 
ENDROOT
BRANCH  16  17
HETATM   17  C   UNK N   1      27.903  26.147  -4.565  0.00  0.00     0.035 A 
HETATM   18  C   UNK N   1      26.729  26.233  -3.798  0.00  0.00     0.029 A 
HETATM   19  C   UNK N   1      25.748  27.181  -4.103  0.00  0.00     0.002 A 
HETATM   20  C   UNK N   1      25.936  28.062  -5.170  0.00  0.00     0.000 A 
HETATM   21  C   UNK N   1      27.101  27.992  -5.937  0.00  0.00     0.002 A 
HETATM   22  C   UNK N   1      28.078  27.036  -5.639  0.00  0.00     0.029 A 
ENDBRANCH  16  17
BRANCH  10  23
HETATM   23  O   UNK N   1      29.613  22.607  -2.875  0.00  0.00    -0.374 OA
HETATM   24  H   UNK N   1      29.037  22.573  -2.097  0.00  0.00     0.211 HD
ENDBRANCH  10  23
TORSDOF 2
ENDMDL
MODEL 6
REMARK VINA RESULT:      -6.8      9.582     11.909
REMARK  2 active torsions:
REMARK  status: ('A' for Active; 'I' for Inactive)
REMARK    1  A    between atoms: C_10  and  O_14 
REMARK    2  A    between atoms: N_17  and  C_18 
ROOT
HETATM    1  O   UNK N   1      19.596  16.590   8.780  0.00  0.00    -0.288 OA
HETATM    2  C   UNK N   1      20.534  16.086   8.179  0.00  0.00     0.203 C 
HETATM    3  C   UNK N   1      21.164  14.845   8.671  0.00  0.00     0.041 A 
HETATM    4  C   UNK N   1      20.657  14.166   9.787  0.00  0.00     0.024 A 
HETATM    5  C   UNK N   1      21.232  12.959  10.192  0.00  0.00    -0.061 A 
HETATM    6  C   UNK N   1      20.673  12.226  11.357  0.00  0.00     0.048 C 
HETATM    7  C   UNK N   1      22.323  12.432   9.494  0.00  0.00     0.009 A 
HETATM    8  C   UNK N   1      22.258  14.308   7.962  0.00  0.00     0.047 A 
HETATM    9  C   UNK N   1      22.841  13.111   8.387  0.00  0.00     0.031 A 
HETATM   10  C   UNK N   1      20.921  16.589   6.818  0.00  0.00     0.182 C 
HETATM   11  C   UNK N   1      22.206  16.026   6.327  0.00  0.00     0.128 C 
HETATM   12  N   UNK N   1      22.801  15.003   6.845  0.00  0.00    -0.342 N 
ATOM     13  HN  UNK N   1      23.682  14.685   6.442  1.00  0.00     0.167 HD
HETATM   14  C   UNK N   1      21.207  18.084   6.638  0.00  0.00     0.075 C 
HETATM   15  C   UNK N   1      22.132  18.159   5.390  0.00  0.00     0.134 C 
HETATM   16  N   UNK N   1      22.807  16.886   5.395  0.00  0.00    -0.334 N 
ENDROOT
BRANCH  16  17
HETATM   17  C   UNK N   1      23.968  16.611   4.606  0.00  0.00     0.035 A 
HETATM   18  C   UNK N   1      25.219  17.156   4.941  0.00  0.00     0.029 A 
HETATM   19  C   UNK N   1      26.350  16.864   4.171  0.00  0.00     0.002 A 
HETATM   20  C   UNK N   1      26.243  16.014   3.068  0.00  0.00     0.000 A 
HETATM   21  C   UNK N   1      25.007  15.462   2.729  0.00  0.00     0.002 A 
HETATM   22  C   UNK N   1      23.874  15.762   3.492  0.00  0.00     0.029 A 
ENDBRANCH  16  17
BRANCH  10  23
HETATM   23  O   UNK N   1      19.911  16.240   5.918  0.00  0.00    -0.374 OA
HETATM   24  H   UNK N   1      19.108  16.382   5.394  0.00  0.00     0.211 HD
ENDBRANCH  10  23
TORSDOF 2
ENDMDL
MODEL 7
REMARK VINA RESULT:      -6.8      5.396      8.050
REMARK  2 active torsions:
REMARK  status: ('A' for Active; 'I' for Inactive)
REMARK    1  A    between atoms: C_10  and  O_14 
REMARK    2  A    between atoms: N_17  and  C_18 
ROOT
HETATM    1  O   UNK N   1      37.013   9.535  15.059  0.00  0.00    -0.288 OA
HETATM    2  C   UNK N   1      36.613  10.664  14.814  0.00  0.00     0.203 C 
HETATM    3  C   UNK N   1      36.004  11.494  15.873  0.00  0.00     0.041 A 
HETATM    4  C   UNK N   1      35.941  11.047  17.199  0.00  0.00     0.024 A 
HETATM    5  C   UNK N   1      35.418  11.879  18.193  0.00  0.00    -0.061 A 
HETATM    6  C   UNK N   1      35.380  11.414  19.604  0.00  0.00     0.048 C 
HETATM    7  C   UNK N   1      34.945  13.154  17.864  0.00  0.00     0.009 A 
HETATM    8  C   UNK N   1      35.536  12.783  15.544  0.00  0.00     0.047 A 
HETATM    9  C   UNK N   1      34.995  13.600  16.540  0.00  0.00     0.031 A 
HETATM   10  C   UNK N   1      36.932  11.312  13.497  0.00  0.00     0.182 C 
HETATM   11  C   UNK N   1      36.193  12.582  13.273  0.00  0.00     0.128 C 
HETATM   12  N   UNK N   1      35.567  13.236  14.195  0.00  0.00    -0.342 N 
ATOM     13  HN  UNK N   1      35.085  14.101  13.950  1.00  0.00     0.167 HD
HETATM   14  C   UNK N   1      36.572  10.571  12.205  0.00  0.00     0.075 C 
HETATM   15  C   UNK N   1      36.441  11.691  11.134  0.00  0.00     0.134 C 
HETATM   16  N   UNK N   1      36.055  12.847  11.902  0.00  0.00    -0.334 N 
ENDROOT
BRANCH  16  17
HETATM   17  C   UNK N   1      35.534  14.042  11.312  0.00  0.00     0.035 A 
HETATM   18  C   UNK N   1      36.156  15.285  11.518  0.00  0.00     0.029 A 
HETATM   19  C   UNK N   1      35.647  16.441  10.920  0.00  0.00     0.002 A 
HETATM   20  C   UNK N   1      34.519  16.365  10.100  0.00  0.00     0.000 A 
HETATM   21  C   UNK N   1      33.895  15.135   9.883  0.00  0.00     0.002 A 
HETATM   22  C   UNK N   1      34.397  13.980  10.489  0.00  0.00     0.029 A 
ENDBRANCH  16  17
BRANCH  10  23
HETATM   23  O   UNK N   1      38.301  11.584  13.462  0.00  0.00    -0.374 OA
HETATM   24  H   UNK N   1      39.213  11.482  13.151  0.00  0.00     0.211 HD
ENDBRANCH  10  23
TORSDOF 2
ENDMDL
MODEL 8
REMARK VINA RESULT:      -6.8      2.935      4.058
REMARK  2 active torsions:
REMARK  status: ('A' for Active; 'I' for Inactive)
REMARK    1  A    between atoms: C_10  and  O_14 
REMARK    2  A    between atoms: N_17  and  C_18 
ROOT
HETATM    1  O   UNK N   1      31.541  13.618   6.178  0.00  0.00    -0.288 OA
HETATM    2  C   UNK N   1      31.299  14.809   6.313  0.00  0.00     0.203 C 
HETATM    3  C   UNK N   1      32.125  15.649   7.202  0.00  0.00     0.041 A 
HETATM    4  C   UNK N   1      33.254  15.130   7.850  0.00  0.00     0.024 A 
HETATM    5  C   UNK N   1      34.055  15.964   8.635  0.00  0.00    -0.061 A 
HETATM    6  C   UNK N   1      35.269  15.417   9.295  0.00  0.00     0.048 C 
HETATM    7  C   UNK N   1      33.725  17.314   8.786  0.00  0.00     0.009 A 
HETATM    8  C   UNK N   1      31.799  17.014   7.348  0.00  0.00     0.047 A 
HETATM    9  C   UNK N   1      32.594  17.836   8.152  0.00  0.00     0.031 A 
HETATM   10  C   UNK N   1      30.304  15.487   5.416  0.00  0.00     0.182 C 
HETATM   11  C   UNK N   1      29.964  16.866   5.852  0.00  0.00     0.128 C 
HETATM   12  N   UNK N   1      30.638  17.545   6.720  0.00  0.00    -0.342 N 
ATOM     13  HN  UNK N   1      30.331  18.488   6.960  1.00  0.00     0.167 HD
HETATM   14  C   UNK N   1      28.894  14.897   5.300  0.00  0.00     0.075 C 
HETATM   15  C   UNK N   1      28.004  16.093   4.856  0.00  0.00     0.134 C 
HETATM   16  N   UNK N   1      28.693  17.240   5.389  0.00  0.00    -0.334 N 
ENDROOT
BRANCH  16  17
HETATM   17  C   UNK N   1      28.097  18.537   5.487  0.00  0.00     0.035 A 
HETATM   18  C   UNK N   1      27.723  19.254   4.337  0.00  0.00     0.029 A 
HETATM   19  C   UNK N   1      27.124  20.512   4.449  0.00  0.00     0.002 A 
HETATM   20  C   UNK N   1      26.882  21.061   5.710  0.00  0.00     0.000 A 
HETATM   21  C   UNK N   1      27.244  20.357   6.860  0.00  0.00     0.002 A 
HETATM   22  C   UNK N   1      27.852  19.102   6.749  0.00  0.00     0.029 A 
ENDBRANCH  16  17
BRANCH  10  23
HETATM   23  O   UNK N   1      30.844  15.549   4.129  0.00  0.00    -0.374 OA
HETATM   24  H   UNK N   1      31.320  15.212   3.355  0.00  0.00     0.211 HD
ENDBRANCH  10  23
TORSDOF 2
ENDMDL
MODEL 9
REMARK VINA RESULT:      -6.7     14.806     17.195
REMARK  2 active torsions:
REMARK  status: ('A' for Active; 'I' for Inactive)
REMARK    1  A    between atoms: C_10  and  O_14 
REMARK    2  A    between atoms: N_17  and  C_18 
ROOT
HETATM    1  O   UNK N   1      27.974  21.439  -7.792  0.00  0.00    -0.288 OA
HETATM    2  C   UNK N   1      28.163  22.401  -7.062  0.00  0.00     0.203 C 
HETATM    3  C   UNK N   1      29.130  22.324  -5.949  0.00  0.00     0.041 A 
HETATM    4  C   UNK N   1      29.915  21.181  -5.747  0.00  0.00     0.024 A 
HETATM    5  C   UNK N   1      30.868  21.158  -4.726  0.00  0.00    -0.061 A 
HETATM    6  C   UNK N   1      31.721  19.957  -4.535  0.00  0.00     0.048 C 
HETATM    7  C   UNK N   1      31.032  22.271  -3.894  0.00  0.00     0.009 A 
HETATM    8  C   UNK N   1      29.303  23.449  -5.115  0.00  0.00     0.047 A 
HETATM    9  C   UNK N   1      30.244  23.410  -4.082  0.00  0.00     0.031 A 
HETATM   10  C   UNK N   1      27.587  23.744  -7.411  0.00  0.00     0.182 C 
HETATM   11  C   UNK N   1      27.720  24.742  -6.319  0.00  0.00     0.128 C 
HETATM   12  N   UNK N   1      28.490  24.604  -5.291  0.00  0.00    -0.342 N 
ATOM     13  HN  UNK N   1      28.518  25.342  -4.588  1.00  0.00     0.167 HD
HETATM   14  C   UNK N   1      26.082  23.853  -7.681  0.00  0.00     0.075 C 
HETATM   15  C   UNK N   1      25.738  25.341  -7.390  0.00  0.00     0.134 C 
HETATM   16  N   UNK N   1      26.730  25.732  -6.420  0.00  0.00    -0.334 N 
ENDROOT
BRANCH  16  17
HETATM   17  C   UNK N   1      26.634  26.926  -5.639  0.00  0.00     0.035 A 
HETATM   18  C   UNK N   1      27.305  28.100  -6.019  0.00  0.00     0.029 A 
HETATM   19  C   UNK N   1      27.187  29.265  -5.255  0.00  0.00     0.002 A 
HETATM   20  C   UNK N   1      26.386  29.272  -4.111  0.00  0.00     0.000 A 
HETATM   21  C   UNK N   1      25.709  28.114  -3.725  0.00  0.00     0.002 A 
HETATM   22  C   UNK N   1      25.835  26.945  -4.483  0.00  0.00     0.029 A 
ENDBRANCH  16  17
BRANCH  10  23
HETATM   23  O   UNK N   1      28.255  24.228  -8.538  0.00  0.00    -0.374 OA
HETATM   24  H   UNK N   1      28.775  24.159  -9.353  0.00  0.00     0.211 HD
ENDBRANCH  10  23
TORSDOF 2
ENDMDL
