REMARK  8 active torsions:
REMARK  status: ('A' for Active; 'I' for Inactive)
REMARK    1  A    between atoms: C_1  and  C_2 
REMARK    2  A    between atoms: C_1  and  C_13 
REMARK    3  A    between atoms: C_2  and  N_3 
REMARK    4  A    between atoms: C_2  and  B_10 
REMARK       I    between atoms: N_3  and  C_4 
REMARK    5  A    between atoms: C_7  and  O_8 
REMARK    6  A    between atoms: C_7  and  C_17 
REMARK    7  A    between atoms: B_10  and  O_11 
REMARK    8  A    between atoms: B_10  and  O_18 
ROOT
HETATM    1  C   UNK N   1      -0.569  -0.214  -1.107  0.00  0.00     0.059 C 
ENDROOT
BRANCH   1   2
HETATM    2  C   UNK N   1      -0.916  -1.029   0.146  0.00  0.00     0.114 C 
BRANCH   2   3
HETATM    3  N   UNK N   1      -2.210  -1.676  -0.062  0.00  0.00    -0.360 N 
HETATM    4  C   UNK N   1      -2.534  -2.999  -0.033  0.00  0.00     0.213 C 
HETATM    5  C   UNK N   1      -3.956  -3.400  -0.210  0.00  0.00     0.117 C 
HETATM    6  O   UNK N   1      -1.692  -3.865   0.139  0.00  0.00    -0.274 OA
HETATM    7  H   UNK N   1      -2.958  -1.066  -0.251  0.00  0.00     0.162 HD
ENDBRANCH   2   3
BRANCH   2   8
HETATM    8  B   UNK N   1       0.315  -1.979   0.575  0.00  0.00     0.515 B 
BRANCH   8   9
HETATM    9  O   UNK N   1       0.847  -2.967  -0.361  0.00  0.00    -0.436 OA
HETATM   10  H   UNK N   1       0.455  -3.600  -0.982  0.00  0.00     0.184 HD
ENDBRANCH   8   9
BRANCH   8  11
HETATM   11  O   UNK N   1       1.006  -1.735   1.838  0.00  0.00    -0.436 OA
HETATM   12  H   UNK N   1       1.376  -2.052   2.677  0.00  0.00     0.184 HD
ENDBRANCH   8  11
ENDBRANCH   2   8
ENDBRANCH   1   2
BRANCH   1  13
HETATM   13  C   UNK N   1       0.525   0.779  -0.850  0.00  0.00    -0.056 A 
HETATM   14  C   UNK N   1       1.861   0.367  -0.768  0.00  0.00     0.007 A 
HETATM   15  C   UNK N   1       2.863   1.289  -0.462  0.00  0.00     0.002 A 
HETATM   16  C   UNK N   1       2.532   2.627  -0.234  0.00  0.00     0.018 A 
HETATM   17  C   UNK N   1       1.198   3.051  -0.325  0.00  0.00     0.038 A 
HETATM   18  C   UNK N   1       0.198   2.120  -0.635  0.00  0.00     0.025 A 
BRANCH  17  19
HETATM   19  C   UNK N   1       0.841   4.460  -0.081  0.00  0.00     0.176 C 
HETATM   20  O   UNK N   1       1.704   5.271   0.226  0.00  0.00    -0.646 OA
BRANCH  19  21
HETATM   21  O   UNK N   1      -0.438   4.865  -0.191  0.00  0.00    -0.773 OA
HETATM   22  H   UNK N   1      -0.639   5.777  -0.268  0.00  0.00     0.167 HD
ENDBRANCH  19  21
ENDBRANCH  17  19
ENDBRANCH   1  13
TORSDOF 8
