MODEL 1
REMARK VINA RESULT:      -6.1      0.000      0.000
REMARK  3 active torsions:
REMARK  status: ('A' for Active; 'I' for Inactive)
REMARK    1  A    between atoms: C_1  and  C_9 
REMARK    2  A    between atoms: C_2  and  O_3 
REMARK    3  A    between atoms: C_4  and  O_5 
ROOT
HETATM    1  C   UNK N   1      35.616  12.093  17.027  0.00  0.00     0.012 A 
HETATM    2  C   UNK N   1      35.235  12.923  18.125  0.00  0.00     0.110 A 
HETATM    3  C   UNK N   1      35.223  12.407  19.430  0.00  0.00     0.099 A 
HETATM    4  C   UNK N   1      35.589  11.084  19.667  0.00  0.00     0.039 A 
HETATM    5  C   UNK N   1      35.972  10.267  18.610  0.00  0.00     0.004 A 
HETATM    6  C   UNK N   1      35.981  10.769  17.312  0.00  0.00     0.015 A 
ENDROOT
BRANCH   1   7
HETATM    7  C   UNK N   1      35.610  12.583  15.597  0.00  0.00    -0.001 A 
HETATM    8  C   UNK N   1      34.739  12.078  14.578  0.00  0.00     0.045 A 
HETATM    9  C   UNK N   1      34.786  12.621  13.290  0.00  0.00     0.024 A 
HETATM   10 Cl   UNK N   1      33.560  10.788  14.813  0.00  0.00    -0.083 Cl
HETATM   11  C   UNK N   1      35.672  13.647  12.976  0.00  0.00     0.002 A 
HETATM   12  C   UNK N   1      36.530  14.142  13.949  0.00  0.00     0.001 A 
HETATM   13  C   UNK N   1      36.495  13.617  15.238  0.00  0.00     0.014 A 
ENDBRANCH   1   7
BRANCH   2  14
HETATM   14  O   UNK N   1      34.872  14.207  17.944  0.00  0.00    -0.357 OA
HETATM   15  H   UNK N   1      33.972  14.423  17.794  0.00  0.00     0.217 HD
ENDBRANCH   2  14
BRANCH   3  16
HETATM   16  O   UNK N   1      34.854  13.184  20.460  0.00  0.00    -0.358 OA
HETATM   17  H   UNK N   1      34.158  13.803  20.357  0.00  0.00     0.217 HD
ENDBRANCH   3  16
TORSDOF 3
ENDMDL
MODEL 2
REMARK VINA RESULT:      -6.1      2.262      5.069
REMARK  3 active torsions:
REMARK  status: ('A' for Active; 'I' for Inactive)
REMARK    1  A    between atoms: C_1  and  C_9 
REMARK    2  A    between atoms: C_2  and  O_3 
REMARK    3  A    between atoms: C_4  and  O_5 
ROOT
HETATM    1  C   UNK N   1      35.479  12.228  15.176  0.00  0.00     0.012 A 
HETATM    2  C   UNK N   1      36.544  12.833  14.442  0.00  0.00     0.110 A 
HETATM    3  C   UNK N   1      36.561  12.771  13.040  0.00  0.00     0.099 A 
HETATM    4  C   UNK N   1      35.536  12.124  12.352  0.00  0.00     0.039 A 
HETATM    5  C   UNK N   1      34.488  11.539  13.052  0.00  0.00     0.004 A 
HETATM    6  C   UNK N   1      34.466  11.592  14.442  0.00  0.00     0.015 A 
ENDROOT
BRANCH   1   7
HETATM    7  C   UNK N   1      35.428  12.231  16.687  0.00  0.00    -0.001 A 
HETATM    8  C   UNK N   1      35.683  11.079  17.501  0.00  0.00     0.045 A 
HETATM    9  C   UNK N   1      35.646  11.191  18.894  0.00  0.00     0.024 A 
HETATM   10 Cl   UNK N   1      36.064   9.473  16.880  0.00  0.00    -0.083 Cl
HETATM   11  C   UNK N   1      35.360  12.406  19.509  0.00  0.00     0.002 A 
HETATM   12  C   UNK N   1      35.101  13.530  18.735  0.00  0.00     0.001 A 
HETATM   13  C   UNK N   1      35.138  13.439  17.347  0.00  0.00     0.014 A 
ENDBRANCH   1   7
BRANCH   2  14
HETATM   14  O   UNK N   1      37.556  13.467  15.064  0.00  0.00    -0.357 OA
HETATM   15  H   UNK N   1      37.491  13.671  15.977  0.00  0.00     0.217 HD
ENDBRANCH   2  14
BRANCH   3  16
HETATM   16  O   UNK N   1      37.569  13.330  12.351  0.00  0.00    -0.358 OA
HETATM   17  H   UNK N   1      37.477  14.194  12.001  0.00  0.00     0.217 HD
ENDBRANCH   3  16
TORSDOF 3
ENDMDL
MODEL 3
REMARK VINA RESULT:      -6.0      2.098      5.114
REMARK  3 active torsions:
REMARK  status: ('A' for Active; 'I' for Inactive)
REMARK    1  A    between atoms: C_1  and  C_9 
REMARK    2  A    between atoms: C_2  and  O_3 
REMARK    3  A    between atoms: C_4  and  O_5 
ROOT
HETATM    1  C   UNK N   1      35.737  13.088  15.838  0.00  0.00     0.012 A 
HETATM    2  C   UNK N   1      34.910  12.762  14.721  0.00  0.00     0.110 A 
HETATM    3  C   UNK N   1      35.088  13.420  13.494  0.00  0.00     0.099 A 
HETATM    4  C   UNK N   1      36.076  14.393  13.354  0.00  0.00     0.039 A 
HETATM    5  C   UNK N   1      36.894  14.714  14.429  0.00  0.00     0.004 A 
HETATM    6  C   UNK N   1      36.722  14.070  15.651  0.00  0.00     0.015 A 
ENDROOT
BRANCH   1   7
HETATM    7  C   UNK N   1      35.567  12.440  17.193  0.00  0.00    -0.001 A 
HETATM    8  C   UNK N   1      35.834  11.057  17.462  0.00  0.00     0.045 A 
HETATM    9  C   UNK N   1      35.679  10.559  18.759  0.00  0.00     0.024 A 
HETATM   10 Cl   UNK N   1      36.369   9.885  16.258  0.00  0.00    -0.083 Cl
HETATM   11  C   UNK N   1      35.264  11.383  19.800  0.00  0.00     0.002 A 
HETATM   12  C   UNK N   1      34.991  12.723  19.555  0.00  0.00     0.001 A 
HETATM   13  C   UNK N   1      35.144  13.239  18.272  0.00  0.00     0.014 A 
ENDBRANCH   1   7
BRANCH   2  14
HETATM   14  O   UNK N   1      33.942  11.830  14.811  0.00  0.00    -0.357 OA
HETATM   15  H   UNK N   1      34.114  11.016  15.244  0.00  0.00     0.217 HD
ENDBRANCH   2  14
BRANCH   3  16
HETATM   16  O   UNK N   1      34.303  13.121  12.448  0.00  0.00    -0.358 OA
HETATM   17  H   UNK N   1      33.629  13.714  12.180  0.00  0.00     0.217 HD
ENDBRANCH   3  16
TORSDOF 3
ENDMDL
MODEL 4
REMARK VINA RESULT:      -6.0      8.967     11.062
REMARK  3 active torsions:
REMARK  status: ('A' for Active; 'I' for Inactive)
REMARK    1  A    between atoms: C_1  and  C_9 
REMARK    2  A    between atoms: C_2  and  O_3 
REMARK    3  A    between atoms: C_4  and  O_5 
ROOT
HETATM    1  C   UNK N   1      30.688  17.203   7.951  0.00  0.00     0.012 A 
HETATM    2  C   UNK N   1      29.708  17.681   8.872  0.00  0.00     0.110 A 
HETATM    3  C   UNK N   1      28.353  17.713   8.509  0.00  0.00     0.099 A 
HETATM    4  C   UNK N   1      27.951  17.273   7.249  0.00  0.00     0.039 A 
HETATM    5  C   UNK N   1      28.892  16.796   6.345  0.00  0.00     0.004 A 
HETATM    6  C   UNK N   1      30.239  16.765   6.695  0.00  0.00     0.015 A 
ENDROOT
BRANCH   1   7
HETATM    7  C   UNK N   1      32.165  17.181   8.273  0.00  0.00    -0.001 A 
HETATM    8  C   UNK N   1      32.846  16.055   8.841  0.00  0.00     0.045 A 
HETATM    9  C   UNK N   1      34.224  16.120   9.071  0.00  0.00     0.024 A 
HETATM   10 Cl   UNK N   1      32.076  14.532   9.284  0.00  0.00    -0.083 Cl
HETATM   11  C   UNK N   1      34.950  17.266   8.761  0.00  0.00     0.002 A 
HETATM   12  C   UNK N   1      34.304  18.370   8.220  0.00  0.00     0.001 A 
HETATM   13  C   UNK N   1      32.934  18.322   7.980  0.00  0.00     0.014 A 
ENDBRANCH   1   7
BRANCH   2  14
HETATM   14  O   UNK N   1      30.049  18.118  10.099  0.00  0.00    -0.357 OA
HETATM   15  H   UNK N   1      30.897  17.920  10.448  0.00  0.00     0.217 HD
ENDBRANCH   2  14
BRANCH   3  16
HETATM   16  O   UNK N   1      27.433  18.174   9.371  0.00  0.00    -0.358 OA
HETATM   17  H   UNK N   1      27.365  17.804  10.229  0.00  0.00     0.217 HD
ENDBRANCH   3  16
TORSDOF 3
ENDMDL
MODEL 5
REMARK VINA RESULT:      -6.0     22.355     24.248
REMARK  3 active torsions:
REMARK  status: ('A' for Active; 'I' for Inactive)
REMARK    1  A    between atoms: C_1  and  C_9 
REMARK    2  A    between atoms: C_2  and  O_3 
REMARK    3  A    between atoms: C_4  and  O_5 
ROOT
HETATM    1  C   UNK N   1      29.708  23.064  -4.061  0.00  0.00     0.012 A 
HETATM    2  C   UNK N   1      30.608  22.721  -3.007  0.00  0.00     0.110 A 
HETATM    3  C   UNK N   1      31.421  21.582  -3.113  0.00  0.00     0.099 A 
HETATM    4  C   UNK N   1      31.360  20.778  -4.250  0.00  0.00     0.039 A 
HETATM    5  C   UNK N   1      30.496  21.104  -5.288  0.00  0.00     0.004 A 
HETATM    6  C   UNK N   1      29.683  22.229  -5.189  0.00  0.00     0.015 A 
ENDROOT
BRANCH   1   7
HETATM    7  C   UNK N   1      28.782  24.257  -3.984  0.00  0.00    -0.001 A 
HETATM    8  C   UNK N   1      29.211  25.616  -4.132  0.00  0.00     0.045 A 
HETATM    9  C   UNK N   1      28.271  26.650  -4.080  0.00  0.00     0.024 A 
HETATM   10 Cl   UNK N   1      30.880  26.121  -4.392  0.00  0.00    -0.083 Cl
HETATM   11  C   UNK N   1      26.920  26.383  -3.882  0.00  0.00     0.002 A 
HETATM   12  C   UNK N   1      26.489  25.072  -3.727  0.00  0.00     0.001 A 
HETATM   13  C   UNK N   1      27.409  24.029  -3.781  0.00  0.00     0.014 A 
ENDBRANCH   1   7
BRANCH   2  14
HETATM   14  O   UNK N   1      30.699  23.467  -1.889  0.00  0.00    -0.357 OA
HETATM   15  H   UNK N   1      30.820  24.394  -1.953  0.00  0.00     0.217 HD
ENDBRANCH   2  14
BRANCH   3  16
HETATM   16  O   UNK N   1      32.259  21.254  -2.117  0.00  0.00    -0.358 OA
HETATM   17  H   UNK N   1      32.503  20.360  -1.982  0.00  0.00     0.217 HD
ENDBRANCH   3  16
TORSDOF 3
ENDMDL
MODEL 6
REMARK VINA RESULT:      -6.0     13.968     15.481
REMARK  3 active torsions:
REMARK  status: ('A' for Active; 'I' for Inactive)
REMARK    1  A    between atoms: C_1  and  C_9 
REMARK    2  A    between atoms: C_2  and  O_3 
REMARK    3  A    between atoms: C_4  and  O_5 
ROOT
HETATM    1  C   UNK N   1      21.876  13.170   9.865  0.00  0.00     0.012 A 
HETATM    2  C   UNK N   1      23.284  13.030  10.053  0.00  0.00     0.110 A 
HETATM    3  C   UNK N   1      23.784  12.351  11.175  0.00  0.00     0.099 A 
HETATM    4  C   UNK N   1      22.910  11.801  12.112  0.00  0.00     0.039 A 
HETATM    5  C   UNK N   1      21.537  11.921  11.937  0.00  0.00     0.004 A 
HETATM    6  C   UNK N   1      21.033  12.597  10.830  0.00  0.00     0.015 A 
ENDROOT
BRANCH   1   7
HETATM    7  C   UNK N   1      21.282  13.924   8.697  0.00  0.00    -0.001 A 
HETATM    8  C   UNK N   1      21.095  13.363   7.391  0.00  0.00     0.045 A 
HETATM    9  C   UNK N   1      20.504  14.132   6.383  0.00  0.00     0.024 A 
HETATM   10 Cl   UNK N   1      21.552  11.725   6.925  0.00  0.00    -0.083 Cl
HETATM   11  C   UNK N   1      20.095  15.440   6.624  0.00  0.00     0.002 A 
HETATM   12  C   UNK N   1      20.278  16.002   7.881  0.00  0.00     0.001 A 
HETATM   13  C   UNK N   1      20.861  15.251   8.898  0.00  0.00     0.014 A 
ENDBRANCH   1   7
BRANCH   2  14
HETATM   14  O   UNK N   1      24.166  13.546   9.176  0.00  0.00    -0.357 OA
HETATM   15  H   UNK N   1      24.630  14.334   9.386  0.00  0.00     0.217 HD
ENDBRANCH   2  14
BRANCH   3  16
HETATM   16  O   UNK N   1      25.108  12.230  11.357  0.00  0.00    -0.358 OA
HETATM   17  H   UNK N   1      25.675  12.106  10.622  0.00  0.00     0.217 HD
ENDBRANCH   3  16
TORSDOF 3
ENDMDL
MODEL 7
REMARK VINA RESULT:      -5.8     13.906     15.493
REMARK  3 active torsions:
REMARK  status: ('A' for Active; 'I' for Inactive)
REMARK    1  A    between atoms: C_1  and  C_9 
REMARK    2  A    between atoms: C_2  and  O_3 
REMARK    3  A    between atoms: C_4  and  O_5 
ROOT
HETATM    1  C   UNK N   1      22.061  12.636   9.577  0.00  0.00     0.012 A 
HETATM    2  C   UNK N   1      23.468  12.657   9.818  0.00  0.00     0.110 A 
HETATM    3  C   UNK N   1      23.971  12.349  11.092  0.00  0.00     0.099 A 
HETATM    4  C   UNK N   1      23.104  12.014  12.130  0.00  0.00     0.039 A 
HETATM    5  C   UNK N   1      21.733  11.980  11.908  0.00  0.00     0.004 A 
HETATM    6  C   UNK N   1      21.224  12.289  10.649  0.00  0.00     0.015 A 
ENDROOT
BRANCH   1   7
HETATM    7  C   UNK N   1      21.459  12.995   8.237  0.00  0.00    -0.001 A 
HETATM    8  C   UNK N   1      20.906  14.279   7.924  0.00  0.00     0.045 A 
HETATM    9  C   UNK N   1      20.404  14.525   6.642  0.00  0.00     0.024 A 
HETATM   10 Cl   UNK N   1      20.806  15.633   9.049  0.00  0.00    -0.083 Cl
HETATM   11  C   UNK N   1      20.427  13.539   5.660  0.00  0.00     0.002 A 
HETATM   12  C   UNK N   1      20.950  12.286   5.951  0.00  0.00     0.001 A 
HETATM   13  C   UNK N   1      21.459  12.024   7.219  0.00  0.00     0.014 A 
ENDBRANCH   1   7
BRANCH   2  14
HETATM   14  O   UNK N   1      24.343  12.976   8.846  0.00  0.00    -0.357 OA
HETATM   15  H   UNK N   1      24.575  12.340   8.197  0.00  0.00     0.217 HD
ENDBRANCH   2  14
BRANCH   3  16
HETATM   16  O   UNK N   1      25.293  12.380  11.321  0.00  0.00    -0.358 OA
HETATM   17  H   UNK N   1      25.618  12.484  12.193  0.00  0.00     0.217 HD
ENDBRANCH   3  16
TORSDOF 3
ENDMDL
MODEL 8
REMARK VINA RESULT:      -5.8      5.648      7.757
REMARK  3 active torsions:
REMARK  status: ('A' for Active; 'I' for Inactive)
REMARK    1  A    between atoms: C_1  and  C_9 
REMARK    2  A    between atoms: C_2  and  O_3 
REMARK    3  A    between atoms: C_4  and  O_5 
ROOT
HETATM    1  C   UNK N   1      35.398  15.051   9.926  0.00  0.00     0.012 A 
HETATM    2  C   UNK N   1      34.607  14.590  11.022  0.00  0.00     0.110 A 
HETATM    3  C   UNK N   1      35.164  13.733  11.984  0.00  0.00     0.099 A 
HETATM    4  C   UNK N   1      36.494  13.329  11.881  0.00  0.00     0.039 A 
HETATM    5  C   UNK N   1      37.278  13.777  10.826  0.00  0.00     0.004 A 
HETATM    6  C   UNK N   1      36.733  14.624   9.865  0.00  0.00     0.015 A 
ENDROOT
BRANCH   1   7
HETATM    7  C   UNK N   1      34.842  15.945   8.841  0.00  0.00    -0.001 A 
HETATM    8  C   UNK N   1      34.439  15.480   7.546  0.00  0.00     0.045 A 
HETATM    9  C   UNK N   1      33.902  16.381   6.621  0.00  0.00     0.024 A 
HETATM   10 Cl   UNK N   1      34.554  13.808   6.998  0.00  0.00    -0.083 Cl
HETATM   11  C   UNK N   1      33.756  17.729   6.933  0.00  0.00     0.002 A 
HETATM   12  C   UNK N   1      34.151  18.198   8.180  0.00  0.00     0.001 A 
HETATM   13  C   UNK N   1      34.682  17.315   9.116  0.00  0.00     0.014 A 
ENDBRANCH   1   7
BRANCH   2  14
HETATM   14  O   UNK N   1      33.318  14.952  11.161  0.00  0.00    -0.357 OA
HETATM   15  H   UNK N   1      32.795  14.572  11.840  0.00  0.00     0.217 HD
ENDBRANCH   2  14
BRANCH   3  16
HETATM   16  O   UNK N   1      34.417  13.290  13.007  0.00  0.00    -0.358 OA
HETATM   17  H   UNK N   1      33.606  12.850  12.843  0.00  0.00     0.217 HD
ENDBRANCH   3  16
TORSDOF 3
ENDMDL
MODEL 9
REMARK VINA RESULT:      -5.8     11.751     13.995
REMARK  3 active torsions:
REMARK  status: ('A' for Active; 'I' for Inactive)
REMARK    1  A    between atoms: C_1  and  C_9 
REMARK    2  A    between atoms: C_2  and  O_3 
REMARK    3  A    between atoms: C_4  and  O_5 
ROOT
HETATM    1  C   UNK N   1      28.611  18.237   6.559  0.00  0.00     0.012 A 
HETATM    2  C   UNK N   1      28.438  18.671   7.908  0.00  0.00     0.110 A 
HETATM    3  C   UNK N   1      29.376  18.316   8.890  0.00  0.00     0.099 A 
HETATM    4  C   UNK N   1      30.486  17.543   8.556  0.00  0.00     0.039 A 
HETATM    5  C   UNK N   1      30.673  17.121   7.245  0.00  0.00     0.004 A 
HETATM    6  C   UNK N   1      29.745  17.464   6.266  0.00  0.00     0.015 A 
ENDROOT
BRANCH   1   7
HETATM    7  C   UNK N   1      27.614  18.557   5.468  0.00  0.00    -0.001 A 
HETATM    8  C   UNK N   1      26.480  17.740   5.152  0.00  0.00     0.045 A 
HETATM    9  C   UNK N   1      25.594  18.139   4.146  0.00  0.00     0.024 A 
HETATM   10 Cl   UNK N   1      26.079  16.222   5.955  0.00  0.00    -0.083 Cl
HETATM   11  C   UNK N   1      25.797  19.320   3.438  0.00  0.00     0.002 A 
HETATM   12  C   UNK N   1      26.897  20.118   3.725  0.00  0.00     0.001 A 
HETATM   13  C   UNK N   1      27.787  19.740   4.726  0.00  0.00     0.014 A 
ENDBRANCH   1   7
BRANCH   2  14
HETATM   14  O   UNK N   1      27.380  19.417   8.277  0.00  0.00    -0.357 OA
HETATM   15  H   UNK N   1      27.010  20.035   7.676  0.00  0.00     0.217 HD
ENDBRANCH   2  14
BRANCH   3  16
HETATM   16  O   UNK N   1      29.208  18.714  10.160  0.00  0.00    -0.358 OA
HETATM   17  H   UNK N   1      28.477  18.404  10.658  0.00  0.00     0.217 HD
ENDBRANCH   3  16
TORSDOF 3
ENDMDL
