MODEL 1
REMARK VINA RESULT:      -6.3      0.000      0.000
REMARK  3 active torsions:
REMARK  status: ('A' for Active; 'I' for Inactive)
REMARK    1  A    between atoms: C_1  and  C_9 
REMARK    2  A    between atoms: C_2  and  O_3 
REMARK    3  A    between atoms: C_4  and  O_5 
ROOT
HETATM    1  C   UNK N   1      35.545  12.314  16.799  0.00  0.00     0.013 A 
HETATM    2  C   UNK N   1      35.139  13.096  17.926  0.00  0.00     0.110 A 
HETATM    3  C   UNK N   1      35.223  12.559  19.224  0.00  0.00     0.099 A 
HETATM    4  C   UNK N   1      35.671  11.258  19.427  0.00  0.00     0.039 A 
HETATM    5  C   UNK N   1      36.039  10.475  18.340  0.00  0.00     0.004 A 
HETATM    6  C   UNK N   1      35.979  11.002  17.052  0.00  0.00     0.015 A 
ENDROOT
BRANCH   1   7
HETATM    7  C   UNK N   1      35.515  12.797  15.353  0.00  0.00     0.020 A 
HETATM    8  C   UNK N   1      34.746  12.083  14.372  0.00  0.00     0.046 A 
HETATM    9  C   UNK N   1      34.719  12.507  13.042  0.00  0.00     0.025 A 
HETATM   10 Cl   UNK N   1      33.749  10.672  14.724  0.00  0.00    -0.083 Cl
HETATM   11  C   UNK N   1      35.436  13.618  12.632  0.00  0.00     0.003 A 
HETATM   12  C   UNK N   1      36.212  14.312  13.546  0.00  0.00     0.025 A 
HETATM   13  C   UNK N   1      36.270  13.929  14.890  0.00  0.00     0.046 A 
HETATM   14 Cl   UNK N   1      37.424  14.840  15.855  0.00  0.00    -0.083 Cl
ENDBRANCH   1   7
BRANCH   2  15
HETATM   15  O   UNK N   1      34.626  14.325  17.781  0.00  0.00    -0.357 OA
HETATM   16  H   UNK N   1      34.945  15.101  18.199  0.00  0.00     0.217 HD
ENDBRANCH   2  15
BRANCH   3  17
HETATM   17  O   UNK N   1      34.855  13.300  20.285  0.00  0.00    -0.358 OA
HETATM   18  H   UNK N   1      34.187  13.026  20.884  0.00  0.00     0.217 HD
ENDBRANCH   3  17
TORSDOF 3
ENDMDL
MODEL 2
REMARK VINA RESULT:      -6.3      1.585      3.069
REMARK  3 active torsions:
REMARK  status: ('A' for Active; 'I' for Inactive)
REMARK    1  A    between atoms: C_1  and  C_9 
REMARK    2  A    between atoms: C_2  and  O_3 
REMARK    3  A    between atoms: C_4  and  O_5 
ROOT
HETATM    1  C   UNK N   1      35.533  12.400  16.714  0.00  0.00     0.013 A 
HETATM    2  C   UNK N   1      35.983  11.149  17.240  0.00  0.00     0.110 A 
HETATM    3  C   UNK N   1      35.928  10.905  18.626  0.00  0.00     0.099 A 
HETATM    4  C   UNK N   1      35.465  11.883  19.500  0.00  0.00     0.039 A 
HETATM    5  C   UNK N   1      35.053  13.114  19.008  0.00  0.00     0.004 A 
HETATM    6  C   UNK N   1      35.084  13.360  17.636  0.00  0.00     0.015 A 
ENDROOT
BRANCH   1   7
HETATM    7  C   UNK N   1      35.529  12.766  15.234  0.00  0.00     0.020 A 
HETATM    8  C   UNK N   1      36.297  13.888  14.769  0.00  0.00     0.046 A 
HETATM    9  C   UNK N   1      36.293  14.241  13.418  0.00  0.00     0.025 A 
HETATM   10 Cl   UNK N   1      37.329  14.881  15.796  0.00  0.00    -0.083 Cl
HETATM   11  C   UNK N   1      35.547  13.530  12.495  0.00  0.00     0.003 A 
HETATM   12  C   UNK N   1      34.771  12.461  12.914  0.00  0.00     0.025 A 
HETATM   13  C   UNK N   1      34.743  12.065  14.255  0.00  0.00     0.046 A 
HETATM   14 Cl   UNK N   1      33.586  10.790  14.612  0.00  0.00    -0.083 Cl
ENDBRANCH   1   7
BRANCH   2  15
HETATM   15  O   UNK N   1      36.513  10.203  16.452  0.00  0.00    -0.357 OA
HETATM   16  H   UNK N   1      36.041   9.493  16.063  0.00  0.00     0.217 HD
ENDBRANCH   2  15
BRANCH   3  17
HETATM   17  O   UNK N   1      36.339   9.723  19.120  0.00  0.00    -0.358 OA
HETATM   18  H   UNK N   1      36.810   9.651  19.926  0.00  0.00     0.217 HD
ENDBRANCH   3  17
TORSDOF 3
ENDMDL
MODEL 3
REMARK VINA RESULT:      -6.2      2.177      5.317
REMARK  3 active torsions:
REMARK  status: ('A' for Active; 'I' for Inactive)
REMARK    1  A    between atoms: C_1  and  C_9 
REMARK    2  A    between atoms: C_2  and  O_3 
REMARK    3  A    between atoms: C_4  and  O_5 
ROOT
HETATM    1  C   UNK N   1      35.726  13.035  15.912  0.00  0.00     0.013 A 
HETATM    2  C   UNK N   1      34.905  12.751  14.776  0.00  0.00     0.110 A 
HETATM    3  C   UNK N   1      35.131  13.421  13.558  0.00  0.00     0.099 A 
HETATM    4  C   UNK N   1      36.129  14.384  13.452  0.00  0.00     0.039 A 
HETATM    5  C   UNK N   1      36.913  14.693  14.556  0.00  0.00     0.004 A 
HETATM    6  C   UNK N   1      36.714  14.023  15.760  0.00  0.00     0.015 A 
ENDROOT
BRANCH   1   7
HETATM    7  C   UNK N   1      35.586  12.359  17.272  0.00  0.00     0.020 A 
HETATM    8  C   UNK N   1      35.278  13.144  18.436  0.00  0.00     0.046 A 
HETATM    9  C   UNK N   1      35.158  12.540  19.689  0.00  0.00     0.025 A 
HETATM   10 Cl   UNK N   1      34.981  14.881  18.415  0.00  0.00    -0.083 Cl
HETATM   11  C   UNK N   1      35.340  11.177  19.846  0.00  0.00     0.003 A 
HETATM   12  C   UNK N   1      35.667  10.396  18.750  0.00  0.00     0.025 A 
HETATM   13  C   UNK N   1      35.795  10.952  17.473  0.00  0.00     0.046 A 
HETATM   14 Cl   UNK N   1      36.363   9.828  16.245  0.00  0.00    -0.083 Cl
ENDBRANCH   1   7
BRANCH   2  15
HETATM   15  O   UNK N   1      33.880  11.892  14.845  0.00  0.00    -0.357 OA
HETATM   16  H   UNK N   1      33.955  10.960  14.907  0.00  0.00     0.217 HD
ENDBRANCH   2  15
BRANCH   3  17
HETATM   17  O   UNK N   1      34.368  13.144  12.485  0.00  0.00    -0.358 OA
HETATM   18  H   UNK N   1      33.602  12.606  12.537  0.00  0.00     0.217 HD
ENDBRANCH   3  17
TORSDOF 3
ENDMDL
MODEL 4
REMARK VINA RESULT:      -6.1      1.639      2.030
REMARK  3 active torsions:
REMARK  status: ('A' for Active; 'I' for Inactive)
REMARK    1  A    between atoms: C_1  and  C_9 
REMARK    2  A    between atoms: C_2  and  O_3 
REMARK    3  A    between atoms: C_4  and  O_5 
ROOT
HETATM    1  C   UNK N   1      35.532  12.372  16.597  0.00  0.00     0.013 A 
HETATM    2  C   UNK N   1      36.078  11.123  17.033  0.00  0.00     0.110 A 
HETATM    3  C   UNK N   1      36.034  10.771  18.395  0.00  0.00     0.099 A 
HETATM    4  C   UNK N   1      35.489  11.638  19.335  0.00  0.00     0.039 A 
HETATM    5  C   UNK N   1      34.983  12.868  18.933  0.00  0.00     0.004 A 
HETATM    6  C   UNK N   1      35.002  13.220  17.585  0.00  0.00     0.015 A 
ENDROOT
BRANCH   1   7
HETATM    7  C   UNK N   1      35.508  12.849  15.150  0.00  0.00     0.020 A 
HETATM    8  C   UNK N   1      34.754  12.121  14.165  0.00  0.00     0.046 A 
HETATM    9  C   UNK N   1      34.733  12.541  12.834  0.00  0.00     0.025 A 
HETATM   10 Cl   UNK N   1      33.770  10.701  14.515  0.00  0.00    -0.083 Cl
HETATM   11  C   UNK N   1      35.440  13.658  12.425  0.00  0.00     0.003 A 
HETATM   12  C   UNK N   1      36.201  14.365  13.342  0.00  0.00     0.025 A 
HETATM   13  C   UNK N   1      36.252  13.988  14.687  0.00  0.00     0.046 A 
HETATM   14 Cl   UNK N   1      37.389  14.914  15.658  0.00  0.00    -0.083 Cl
ENDBRANCH   1   7
BRANCH   2  15
HETATM   15  O   UNK N   1      36.686  10.286  16.181  0.00  0.00    -0.357 OA
HETATM   16  H   UNK N   1      37.448  10.486  15.674  0.00  0.00     0.217 HD
ENDBRANCH   2  15
BRANCH   3  17
HETATM   17  O   UNK N   1      36.535   9.590  18.802  0.00  0.00    -0.358 OA
HETATM   18  H   UNK N   1      36.890   8.961  18.205  0.00  0.00     0.217 HD
ENDBRANCH   3  17
TORSDOF 3
ENDMDL
MODEL 5
REMARK VINA RESULT:      -6.1     11.291     13.585
REMARK  3 active torsions:
REMARK  status: ('A' for Active; 'I' for Inactive)
REMARK    1  A    between atoms: C_1  and  C_9 
REMARK    2  A    between atoms: C_2  and  O_3 
REMARK    3  A    between atoms: C_4  and  O_5 
ROOT
HETATM    1  C   UNK N   1      28.597  18.016   6.983  0.00  0.00     0.013 A 
HETATM    2  C   UNK N   1      28.584  18.438   8.350  0.00  0.00     0.110 A 
HETATM    3  C   UNK N   1      29.751  18.334   9.132  0.00  0.00     0.099 A 
HETATM    4  C   UNK N   1      30.916  17.795   8.599  0.00  0.00     0.039 A 
HETATM    5  C   UNK N   1      30.937  17.352   7.283  0.00  0.00     0.004 A 
HETATM    6  C   UNK N   1      29.795  17.468   6.492  0.00  0.00     0.015 A 
ENDROOT
BRANCH   1   7
HETATM    7  C   UNK N   1      27.403  18.099   6.040  0.00  0.00     0.020 A 
HETATM    8  C   UNK N   1      26.972  19.374   5.535  0.00  0.00     0.046 A 
HETATM    9  C   UNK N   1      25.873  19.465   4.679  0.00  0.00     0.025 A 
HETATM   10 Cl   UNK N   1      27.775  20.904   5.883  0.00  0.00    -0.083 Cl
HETATM   11  C   UNK N   1      25.166  18.337   4.302  0.00  0.00     0.003 A 
HETATM   12  C   UNK N   1      25.535  17.096   4.793  0.00  0.00     0.025 A 
HETATM   13  C   UNK N   1      26.631  16.951   5.650  0.00  0.00     0.046 A 
HETATM   14 Cl   UNK N   1      26.845  15.325   6.285  0.00  0.00    -0.083 Cl
ENDBRANCH   1   7
BRANCH   2  15
HETATM   15  O   UNK N   1      27.467  18.889   8.936  0.00  0.00    -0.357 OA
HETATM   16  H   UNK N   1      27.364  19.732   9.333  0.00  0.00     0.217 HD
ENDBRANCH   2  15
BRANCH   3  17
HETATM   17  O   UNK N   1      29.742  18.744  10.413  0.00  0.00    -0.358 OA
HETATM   18  H   UNK N   1      30.349  18.420  11.050  0.00  0.00     0.217 HD
ENDBRANCH   3  17
TORSDOF 3
ENDMDL
MODEL 6
REMARK VINA RESULT:      -6.1     11.313     13.437
REMARK  3 active torsions:
REMARK  status: ('A' for Active; 'I' for Inactive)
REMARK    1  A    between atoms: C_1  and  C_9 
REMARK    2  A    between atoms: C_2  and  O_3 
REMARK    3  A    between atoms: C_4  and  O_5 
ROOT
HETATM    1  C   UNK N   1      28.574  18.035   6.984  0.00  0.00     0.013 A 
HETATM    2  C   UNK N   1      28.564  18.443   8.355  0.00  0.00     0.110 A 
HETATM    3  C   UNK N   1      29.723  18.300   9.142  0.00  0.00     0.099 A 
HETATM    4  C   UNK N   1      30.877  17.737   8.610  0.00  0.00     0.039 A 
HETATM    5  C   UNK N   1      30.893  17.307   7.289  0.00  0.00     0.004 A 
HETATM    6  C   UNK N   1      29.759  17.461   6.494  0.00  0.00     0.015 A 
ENDROOT
BRANCH   1   7
HETATM    7  C   UNK N   1      27.387  18.159   6.035  0.00  0.00     0.020 A 
HETATM    8  C   UNK N   1      26.690  16.981   5.598  0.00  0.00     0.046 A 
HETATM    9  C   UNK N   1      25.609  17.079   4.720  0.00  0.00     0.025 A 
HETATM   10 Cl   UNK N   1      27.070  15.345   6.132  0.00  0.00    -0.083 Cl
HETATM   11  C   UNK N   1      25.186  18.307   4.242  0.00  0.00     0.003 A 
HETATM   12  C   UNK N   1      25.854  19.460   4.619  0.00  0.00     0.025 A 
HETATM   13  C   UNK N   1      26.940  19.416   5.499  0.00  0.00     0.046 A 
HETATM   14 Cl   UNK N   1      27.747  20.960   5.735  0.00  0.00    -0.083 Cl
ENDBRANCH   1   7
BRANCH   2  15
HETATM   15  O   UNK N   1      27.456  18.917   8.940  0.00  0.00    -0.357 OA
HETATM   16  H   UNK N   1      27.430  19.594   9.588  0.00  0.00     0.217 HD
ENDBRANCH   2  15
BRANCH   3  17
HETATM   17  O   UNK N   1      29.718  18.697  10.428  0.00  0.00    -0.358 OA
HETATM   18  H   UNK N   1      30.323  19.330  10.762  0.00  0.00     0.217 HD
ENDBRANCH   3  17
TORSDOF 3
ENDMDL
MODEL 7
REMARK VINA RESULT:      -5.9      7.931     10.274
REMARK  3 active torsions:
REMARK  status: ('A' for Active; 'I' for Inactive)
REMARK    1  A    between atoms: C_1  and  C_9 
REMARK    2  A    between atoms: C_2  and  O_3 
REMARK    3  A    between atoms: C_4  and  O_5 
ROOT
HETATM    1  C   UNK N   1      32.743  16.463   8.251  0.00  0.00     0.013 A 
HETATM    2  C   UNK N   1      33.767  17.324   8.758  0.00  0.00     0.110 A 
HETATM    3  C   UNK N   1      34.670  16.851   9.729  0.00  0.00     0.099 A 
HETATM    4  C   UNK N   1      34.562  15.557  10.228  0.00  0.00     0.039 A 
HETATM    5  C   UNK N   1      33.554  14.719   9.768  0.00  0.00     0.004 A 
HETATM    6  C   UNK N   1      32.667  15.169   8.792  0.00  0.00     0.015 A 
ENDROOT
BRANCH   1   7
HETATM    7  C   UNK N   1      31.725  16.861   7.188  0.00  0.00     0.020 A 
HETATM    8  C   UNK N   1      32.126  16.970   5.812  0.00  0.00     0.046 A 
HETATM    9  C   UNK N   1      31.206  17.344   4.831  0.00  0.00     0.025 A 
HETATM   10 Cl   UNK N   1      33.747  16.613   5.218  0.00  0.00    -0.083 Cl
HETATM   11  C   UNK N   1      29.891  17.627   5.155  0.00  0.00     0.003 A 
HETATM   12  C   UNK N   1      29.478  17.561   6.476  0.00  0.00     0.025 A 
HETATM   13  C   UNK N   1      30.359  17.188   7.495  0.00  0.00     0.046 A 
HETATM   14 Cl   UNK N   1      29.689  17.312   9.116  0.00  0.00    -0.083 Cl
ENDBRANCH   1   7
BRANCH   2  15
HETATM   15  O   UNK N   1      33.865  18.603   8.372  0.00  0.00    -0.357 OA
HETATM   16  H   UNK N   1      33.417  19.326   8.765  0.00  0.00     0.217 HD
ENDBRANCH   2  15
BRANCH   3  17
HETATM   17  O   UNK N   1      35.641  17.657  10.196  0.00  0.00    -0.358 OA
HETATM   18  H   UNK N   1      36.552  17.469  10.076  0.00  0.00     0.217 HD
ENDBRANCH   3  17
TORSDOF 3
ENDMDL
MODEL 8
REMARK VINA RESULT:      -5.9     14.059     16.224
REMARK  3 active torsions:
REMARK  status: ('A' for Active; 'I' for Inactive)
REMARK    1  A    between atoms: C_1  and  C_9 
REMARK    2  A    between atoms: C_2  and  O_3 
REMARK    3  A    between atoms: C_4  and  O_5 
ROOT
HETATM    1  C   UNK N   1      21.648  13.821   8.710  0.00  0.00     0.013 A 
HETATM    2  C   UNK N   1      21.221  13.208   7.490  0.00  0.00     0.110 A 
HETATM    3  C   UNK N   1      20.435  13.933   6.575  0.00  0.00     0.099 A 
HETATM    4  C   UNK N   1      20.039  15.236   6.854  0.00  0.00     0.039 A 
HETATM    5  C   UNK N   1      20.419  15.834   8.049  0.00  0.00     0.004 A 
HETATM    6  C   UNK N   1      21.215  15.135   8.954  0.00  0.00     0.015 A 
ENDROOT
BRANCH   1   7
HETATM    7  C   UNK N   1      22.515  13.141   9.764  0.00  0.00     0.020 A 
HETATM    8  C   UNK N   1      23.935  13.032   9.566  0.00  0.00     0.046 A 
HETATM    9  C   UNK N   1      24.739  12.402  10.518  0.00  0.00     0.025 A 
HETATM   10 Cl   UNK N   1      24.800  13.695   8.181  0.00  0.00    -0.083 Cl
HETATM   11  C   UNK N   1      24.193  11.859  11.668  0.00  0.00     0.003 A 
HETATM   12  C   UNK N   1      22.825  11.920  11.876  0.00  0.00     0.025 A 
HETATM   13  C   UNK N   1      21.977  12.543  10.955  0.00  0.00     0.046 A 
HETATM   14 Cl   UNK N   1      20.265  12.383  11.321  0.00  0.00    -0.083 Cl
ENDBRANCH   1   7
BRANCH   2  15
HETATM   15  O   UNK N   1      21.506  11.930   7.208  0.00  0.00    -0.357 OA
HETATM   16  H   UNK N   1      21.795  11.608   6.376  0.00  0.00     0.217 HD
ENDBRANCH   2  15
BRANCH   3  17
HETATM   17  O   UNK N   1      20.045  13.361   5.421  0.00  0.00    -0.358 OA
HETATM   18  H   UNK N   1      20.126  13.792   4.592  0.00  0.00     0.217 HD
ENDBRANCH   3  17
TORSDOF 3
ENDMDL
MODEL 9
REMARK VINA RESULT:      -5.9     13.642     15.283
REMARK  3 active torsions:
REMARK  status: ('A' for Active; 'I' for Inactive)
REMARK    1  A    between atoms: C_1  and  C_9 
REMARK    2  A    between atoms: C_2  and  O_3 
REMARK    3  A    between atoms: C_4  and  O_5 
ROOT
HETATM    1  C   UNK N   1      22.220  12.684   9.532  0.00  0.00     0.013 A 
HETATM    2  C   UNK N   1      23.609  12.719   9.870  0.00  0.00     0.110 A 
HETATM    3  C   UNK N   1      24.032  12.348  11.161  0.00  0.00     0.099 A 
HETATM    4  C   UNK N   1      23.107  11.972  12.129  0.00  0.00     0.039 A 
HETATM    5  C   UNK N   1      21.751  11.963  11.827  0.00  0.00     0.004 A 
HETATM    6  C   UNK N   1      21.322  12.309  10.547  0.00  0.00     0.015 A 
ENDROOT
BRANCH   1   7
HETATM    7  C   UNK N   1      21.651  13.046   8.165  0.00  0.00     0.020 A 
HETATM    8  C   UNK N   1      21.893  12.190   7.036  0.00  0.00     0.046 A 
HETATM    9  C   UNK N   1      21.387  12.515   5.776  0.00  0.00     0.025 A 
HETATM   10 Cl   UNK N   1      22.779  10.668   7.114  0.00  0.00    -0.083 Cl
HETATM   11  C   UNK N   1      20.650  13.669   5.578  0.00  0.00     0.003 A 
HETATM   12  C   UNK N   1      20.424  14.532   6.638  0.00  0.00     0.025 A 
HETATM   13  C   UNK N   1      20.905  14.250   7.920  0.00  0.00     0.046 A 
HETATM   14 Cl   UNK N   1      20.647  15.535   9.092  0.00  0.00    -0.083 Cl
ENDBRANCH   1   7
BRANCH   2  15
HETATM   15  O   UNK N   1      24.533  13.150   9.001  0.00  0.00    -0.357 OA
HETATM   16  H   UNK N   1      25.307  13.629   9.223  0.00  0.00     0.217 HD
ENDBRANCH   2  15
BRANCH   3  17
HETATM   17  O   UNK N   1      25.340  12.367  11.473  0.00  0.00    -0.358 OA
HETATM   18  H   UNK N   1      25.654  12.181  12.337  0.00  0.00     0.217 HD
ENDBRANCH   3  17
TORSDOF 3
ENDMDL
