REMARK  3 active torsions:
REMARK  status: ('A' for Active; 'I' for Inactive)
REMARK    1  A    between atoms: C_1  and  C_9 
REMARK    2  A    between atoms: C_2  and  O_3 
REMARK    3  A    between atoms: C_4  and  O_5 
ROOT
HETATM    1  C   UNK N   1      -0.207  -0.633  -0.103  0.00  0.00     0.013 A 
HETATM    2  C   UNK N   1       0.963  -1.351   0.299  0.00  0.00     0.110 A 
HETATM    3  C   UNK N   1       1.003  -2.754   0.187  0.00  0.00     0.099 A 
HETATM    4  C   UNK N   1      -0.098  -3.460  -0.285  0.00  0.00     0.039 A 
HETATM    5  C   UNK N   1      -1.253  -2.780  -0.650  0.00  0.00     0.004 A 
HETATM    6  C   UNK N   1      -1.298  -1.390  -0.563  0.00  0.00     0.015 A 
ENDROOT
BRANCH   1   7
HETATM    7  C   UNK N   1      -0.356   0.883  -0.044  0.00  0.00     0.020 A 
HETATM    8  C   UNK N   1      -1.636   1.469   0.246  0.00  0.00     0.046 A 
HETATM    9  C   UNK N   1      -1.789   2.856   0.292  0.00  0.00     0.025 A 
HETATM   10 Cl   UNK N   1      -3.093   0.546   0.610  0.00  0.00    -0.083 Cl
HETATM   11  C   UNK N   1      -0.720   3.701   0.052  0.00  0.00     0.003 A 
HETATM   12  C   UNK N   1       0.521   3.170  -0.260  0.00  0.00     0.025 A 
HETATM   13  C   UNK N   1       0.727   1.788  -0.315  0.00  0.00     0.046 A 
HETATM   14 Cl   UNK N   1       2.325   1.314  -0.875  0.00  0.00    -0.083 Cl
ENDBRANCH   1   7
BRANCH   2  15
HETATM   15  O   UNK N   1       2.021  -0.728   0.835  0.00  0.00    -0.357 OA
HETATM   16  H   UNK N   1       2.768  -1.151   1.211  0.00  0.00     0.217 HD
ENDBRANCH   2  15
BRANCH   3  17
HETATM   17  O   UNK N   1       2.109  -3.428   0.552  0.00  0.00    -0.358 OA
HETATM   18  H   UNK N   1       2.088  -4.330   0.806  0.00  0.00     0.217 HD
ENDBRANCH   3  17
TORSDOF 3
