MODEL 1
REMARK VINA RESULT:      -7.9      0.000      0.000
REMARK  6 active torsions:
REMARK  status: ('A' for Active; 'I' for Inactive)
REMARK    1  A    between atoms: O_6  and  C_23 
REMARK    2  A    between atoms: O_8  and  C_30 
REMARK    3  A    between atoms: N_9  and  C_15 
REMARK    4  A    between atoms: C_10  and  C_11 
REMARK    5  A    between atoms: C_21  and  C_23 
REMARK    6  A    between atoms: C_28  and  C_30 
ROOT
HETATM    1  O   UNK N   1      23.354  19.040   3.459  0.00  0.00    -0.304 OA
HETATM    2  N   UNK N   1      22.750  16.683   4.879  0.00  0.00    -0.306 N 
HETATM    3  C   UNK N   1      21.731  17.414   4.138  0.00  0.00     0.075 A 
HETATM    4  C   UNK N   1      20.396  16.978   4.072  0.00  0.00     0.033 A 
HETATM    5  C   UNK N   1      19.429  17.673   3.357  0.00  0.00     0.003 A 
HETATM    6  C   UNK N   1      19.775  18.834   2.683  0.00  0.00     0.021 A 
HETATM    7  C   UNK N   1      21.089  19.313   2.712  0.00  0.00     0.073 A 
HETATM    8  C   UNK N   1      22.078  18.596   3.440  0.00  0.00     0.120 A 
HETATM    9  C   UNK N   1      24.106  17.198   4.801  0.00  0.00     0.075 A 
HETATM   10  C   UNK N   1      25.188  16.552   5.425  0.00  0.00     0.033 A 
HETATM   11  C   UNK N   1      26.483  17.053   5.342  0.00  0.00     0.003 A 
HETATM   12  C   UNK N   1      26.730  18.223   4.636  0.00  0.00     0.021 A 
HETATM   13  C   UNK N   1      25.688  18.906   4.002  0.00  0.00     0.073 A 
HETATM   14  C   UNK N   1      24.367  18.390   4.079  0.00  0.00     0.120 A 
ENDROOT
BRANCH   2  15
HETATM   15  C   UNK N   1      22.417  15.479   5.651  0.00  0.00     0.041 A 
HETATM   16  C   UNK N   1      22.511  14.184   5.103  0.00  0.00     0.030 A 
HETATM   17  C   UNK N   1      22.164  13.048   5.844  0.00  0.00     0.003 A 
HETATM   18  C   UNK N   1      21.707  13.180   7.155  0.00  0.00     0.016 A 
HETATM   19  C   UNK N   1      21.618  14.447   7.734  0.00  0.00     0.050 A 
HETATM   20  C   UNK N   1      21.975  15.568   6.982  0.00  0.00     0.046 A 
BRANCH  19  21
HETATM   21  C   UNK N   1      21.117  14.613   9.140  0.00  0.00     0.417 C 
HETATM   22  F   UNK N   1      20.928  15.956   9.405  0.00  0.00    -0.166 F 
HETATM   23  F   UNK N   1      22.027  14.105  10.054  0.00  0.00    -0.166 F 
HETATM   24  F   UNK N   1      19.917  13.944   9.294  0.00  0.00    -0.166 F 
ENDBRANCH  19  21
ENDBRANCH   2  15
BRANCH   7  25
HETATM   25  C   UNK N   1      21.384  20.560   1.967  0.00  0.00     0.179 C 
HETATM   26  O   UNK N   1      21.283  20.607   0.754  0.00  0.00    -0.646 OA
BRANCH  25  27
HETATM   27  O   UNK N   1      21.777  21.664   2.636  0.00  0.00    -0.773 OA
HETATM   28  H   UNK N   1      22.350  22.281   2.227  0.00  0.00     0.167 HD
ENDBRANCH  25  27
ENDBRANCH   7  25
BRANCH  13  29
HETATM   29  C   UNK N   1      26.018  20.156   3.268  0.00  0.00     0.179 C 
HETATM   30  O   UNK N   1      26.990  20.825   3.572  0.00  0.00    -0.646 OA
BRANCH  29  31
HETATM   31  O   UNK N   1      25.241  20.558   2.243  0.00  0.00    -0.773 OA
HETATM   32  H   UNK N   1      25.589  21.130   1.586  0.00  0.00     0.167 HD
ENDBRANCH  29  31
ENDBRANCH  13  29
TORSDOF 6
ENDMDL
MODEL 2
REMARK VINA RESULT:      -7.8      3.701      6.158
REMARK  6 active torsions:
REMARK  status: ('A' for Active; 'I' for Inactive)
REMARK    1  A    between atoms: O_6  and  C_23 
REMARK    2  A    between atoms: O_8  and  C_30 
REMARK    3  A    between atoms: N_9  and  C_15 
REMARK    4  A    between atoms: C_10  and  C_11 
REMARK    5  A    between atoms: C_21  and  C_23 
REMARK    6  A    between atoms: C_28  and  C_30 
ROOT
HETATM    1  O   UNK N   1      23.527  17.961   4.643  0.00  0.00    -0.304 OA
HETATM    2  N   UNK N   1      26.238  17.466   5.228  0.00  0.00    -0.306 N 
HETATM    3  C   UNK N   1      25.180  16.577   5.687  0.00  0.00     0.075 A 
HETATM    4  C   UNK N   1      25.449  15.413   6.430  0.00  0.00     0.033 A 
HETATM    5  C   UNK N   1      24.439  14.563   6.857  0.00  0.00     0.003 A 
HETATM    6  C   UNK N   1      23.119  14.856   6.552  0.00  0.00     0.021 A 
HETATM    7  C   UNK N   1      22.793  15.998   5.815  0.00  0.00     0.073 A 
HETATM    8  C   UNK N   1      23.830  16.864   5.372  0.00  0.00     0.120 A 
HETATM    9  C   UNK N   1      25.831  18.591   4.403  0.00  0.00     0.075 A 
HETATM   10  C   UNK N   1      26.761  19.490   3.853  0.00  0.00     0.033 A 
HETATM   11  C   UNK N   1      26.359  20.562   3.063  0.00  0.00     0.003 A 
HETATM   12  C   UNK N   1      25.010  20.769   2.808  0.00  0.00     0.021 A 
HETATM   13  C   UNK N   1      24.045  19.907   3.336  0.00  0.00     0.073 A 
HETATM   14  C   UNK N   1      24.455  18.807   4.136  0.00  0.00     0.120 A 
ENDROOT
BRANCH   2  15
HETATM   15  C   UNK N   1      27.644  17.224   5.575  0.00  0.00     0.041 A 
HETATM   16  C   UNK N   1      28.514  16.505   4.730  0.00  0.00     0.030 A 
HETATM   17  C   UNK N   1      29.845  16.259   5.087  0.00  0.00     0.003 A 
HETATM   18  C   UNK N   1      30.340  16.723   6.306  0.00  0.00     0.016 A 
HETATM   19  C   UNK N   1      29.510  17.453   7.159  0.00  0.00     0.050 A 
HETATM   20  C   UNK N   1      28.188  17.695   6.782  0.00  0.00     0.046 A 
BRANCH  19  21
HETATM   21  C   UNK N   1      30.019  17.951   8.481  0.00  0.00     0.417 C 
HETATM   22  F   UNK N   1      31.353  18.294   8.360  0.00  0.00    -0.166 F 
HETATM   23  F   UNK N   1      29.900  16.976   9.458  0.00  0.00    -0.166 F 
HETATM   24  F   UNK N   1      29.297  19.062   8.876  0.00  0.00    -0.166 F 
ENDBRANCH  19  21
ENDBRANCH   2  15
BRANCH   7  25
HETATM   25  C   UNK N   1      21.360  16.247   5.526  0.00  0.00     0.179 C 
HETATM   26  O   UNK N   1      20.512  16.115   6.391  0.00  0.00    -0.646 OA
BRANCH  25  27
HETATM   27  O   UNK N   1      20.981  16.621   4.287  0.00  0.00    -0.773 OA
HETATM   28  H   UNK N   1      21.605  16.996   3.699  0.00  0.00     0.167 HD
ENDBRANCH  25  27
ENDBRANCH   7  25
BRANCH  13  29
HETATM   29  C   UNK N   1      22.617  20.187   3.031  0.00  0.00     0.179 C 
HETATM   30  O   UNK N   1      22.245  21.311   2.744  0.00  0.00    -0.646 OA
BRANCH  29  31
HETATM   31  O   UNK N   1      21.714  19.186   3.063  0.00  0.00    -0.773 OA
HETATM   32  H   UNK N   1      21.218  19.027   3.842  0.00  0.00     0.167 HD
ENDBRANCH  29  31
ENDBRANCH  13  29
TORSDOF 6
ENDMDL
MODEL 3
REMARK VINA RESULT:      -7.7      3.842      6.364
REMARK  6 active torsions:
REMARK  status: ('A' for Active; 'I' for Inactive)
REMARK    1  A    between atoms: O_6  and  C_23 
REMARK    2  A    between atoms: O_8  and  C_30 
REMARK    3  A    between atoms: N_9  and  C_15 
REMARK    4  A    between atoms: C_10  and  C_11 
REMARK    5  A    between atoms: C_21  and  C_23 
REMARK    6  A    between atoms: C_28  and  C_30 
ROOT
HETATM    1  O   UNK N   1      23.752  17.752   4.686  0.00  0.00    -0.304 OA
HETATM    2  N   UNK N   1      26.460  17.288   5.311  0.00  0.00    -0.306 N 
HETATM    3  C   UNK N   1      26.041  18.438   4.523  0.00  0.00     0.075 A 
HETATM    4  C   UNK N   1      26.958  19.393   4.046  0.00  0.00     0.033 A 
HETATM    5  C   UNK N   1      26.555  20.494   3.304  0.00  0.00     0.003 A 
HETATM    6  C   UNK N   1      25.211  20.672   3.013  0.00  0.00     0.021 A 
HETATM    7  C   UNK N   1      24.255  19.757   3.464  0.00  0.00     0.073 A 
HETATM    8  C   UNK N   1      24.670  18.633   4.230  0.00  0.00     0.120 A 
HETATM    9  C   UNK N   1      25.405  16.422   5.808  0.00  0.00     0.075 A 
HETATM   10  C   UNK N   1      25.673  15.310   6.626  0.00  0.00     0.033 A 
HETATM   11  C   UNK N   1      24.654  14.488   7.098  0.00  0.00     0.003 A 
HETATM   12  C   UNK N   1      23.335  14.755   6.757  0.00  0.00     0.021 A 
HETATM   13  C   UNK N   1      23.015  15.845   5.942  0.00  0.00     0.073 A 
HETATM   14  C   UNK N   1      24.054  16.688   5.466  0.00  0.00     0.120 A 
ENDROOT
BRANCH   2  15
HETATM   15  C   UNK N   1      27.877  17.030   5.595  0.00  0.00     0.041 A 
HETATM   16  C   UNK N   1      28.691  16.270   4.730  0.00  0.00     0.030 A 
HETATM   17  C   UNK N   1      30.034  16.011   5.027  0.00  0.00     0.003 A 
HETATM   18  C   UNK N   1      30.598  16.502   6.205  0.00  0.00     0.016 A 
HETATM   19  C   UNK N   1      29.824  17.273   7.075  0.00  0.00     0.050 A 
HETATM   20  C   UNK N   1      28.489  17.526   6.758  0.00  0.00     0.046 A 
BRANCH  19  21
HETATM   21  C   UNK N   1      30.408  17.800   8.354  0.00  0.00     0.417 C 
HETATM   22  F   UNK N   1      31.746  18.088   8.164  0.00  0.00    -0.166 F 
HETATM   23  F   UNK N   1      30.295  16.868   9.373  0.00  0.00    -0.166 F 
HETATM   24  F   UNK N   1      29.743  18.952   8.735  0.00  0.00    -0.166 F 
ENDBRANCH  19  21
ENDBRANCH   2  15
BRANCH   7  25
HETATM   25  C   UNK N   1      22.837  20.013   3.116  0.00  0.00     0.179 C 
HETATM   26  O   UNK N   1      22.450  21.136   2.843  0.00  0.00    -0.646 OA
BRANCH  25  27
HETATM   27  O   UNK N   1      21.954  18.994   3.103  0.00  0.00    -0.773 OA
HETATM   28  H   UNK N   1      21.709  18.596   2.292  0.00  0.00     0.167 HD
ENDBRANCH  25  27
ENDBRANCH   7  25
BRANCH  13  29
HETATM   29  C   UNK N   1      21.584  16.070   5.609  0.00  0.00     0.179 C 
HETATM   30  O   UNK N   1      20.716  15.955   6.456  0.00  0.00    -0.646 OA
BRANCH  29  31
HETATM   31  O   UNK N   1      21.233  16.416   4.353  0.00  0.00    -0.773 OA
HETATM   32  H   UNK N   1      20.942  15.760   3.751  0.00  0.00     0.167 HD
ENDBRANCH  29  31
ENDBRANCH  13  29
TORSDOF 6
ENDMDL
MODEL 4
REMARK VINA RESULT:      -7.6      0.269      4.106
REMARK  6 active torsions:
REMARK  status: ('A' for Active; 'I' for Inactive)
REMARK    1  A    between atoms: O_6  and  C_23 
REMARK    2  A    between atoms: O_8  and  C_30 
REMARK    3  A    between atoms: N_9  and  C_15 
REMARK    4  A    between atoms: C_10  and  C_11 
REMARK    5  A    between atoms: C_21  and  C_23 
REMARK    6  A    between atoms: C_28  and  C_30 
ROOT
HETATM    1  O   UNK N   1      23.458  18.982   3.463  0.00  0.00    -0.304 OA
HETATM    2  N   UNK N   1      22.898  16.627   4.905  0.00  0.00    -0.306 N 
HETATM    3  C   UNK N   1      24.236  17.201   4.864  0.00  0.00     0.075 A 
HETATM    4  C   UNK N   1      25.318  16.627   5.555  0.00  0.00     0.033 A 
HETATM    5  C   UNK N   1      26.590  17.182   5.521  0.00  0.00     0.003 A 
HETATM    6  C   UNK N   1      26.817  18.337   4.787  0.00  0.00     0.021 A 
HETATM    7  C   UNK N   1      25.778  18.951   4.084  0.00  0.00     0.073 A 
HETATM    8  C   UNK N   1      24.474  18.385   4.125  0.00  0.00     0.120 A 
HETATM    9  C   UNK N   1      21.853  17.362   4.213  0.00  0.00     0.075 A 
HETATM   10  C   UNK N   1      20.511  16.944   4.224  0.00  0.00     0.033 A 
HETATM   11  C   UNK N   1      19.519  17.657   3.559  0.00  0.00     0.003 A 
HETATM   12  C   UNK N   1      19.846  18.808   2.856  0.00  0.00     0.021 A 
HETATM   13  C   UNK N   1      21.167  19.265   2.809  0.00  0.00     0.073 A 
HETATM   14  C   UNK N   1      22.179  18.541   3.494  0.00  0.00     0.120 A 
ENDROOT
BRANCH   2  15
HETATM   15  C   UNK N   1      22.625  15.376   5.623  0.00  0.00     0.041 A 
HETATM   16  C   UNK N   1      22.750  14.113   5.009  0.00  0.00     0.030 A 
HETATM   17  C   UNK N   1      22.461  12.931   5.699  0.00  0.00     0.003 A 
HETATM   18  C   UNK N   1      22.030  12.981   7.025  0.00  0.00     0.016 A 
HETATM   19  C   UNK N   1      21.911  14.215   7.669  0.00  0.00     0.050 A 
HETATM   20  C   UNK N   1      22.212  15.383   6.966  0.00  0.00     0.046 A 
BRANCH  19  21
HETATM   21  C   UNK N   1      21.438  14.292   9.092  0.00  0.00     0.417 C 
HETATM   22  F   UNK N   1      20.362  13.441   9.265  0.00  0.00    -0.166 F 
HETATM   23  F   UNK N   1      21.039  15.581   9.412  0.00  0.00    -0.166 F 
HETATM   24  F   UNK N   1      22.458  13.920   9.948  0.00  0.00    -0.166 F 
ENDBRANCH  19  21
ENDBRANCH   2  15
BRANCH   7  25
HETATM   25  C   UNK N   1      26.095  20.184   3.322  0.00  0.00     0.179 C 
HETATM   26  O   UNK N   1      27.039  20.889   3.633  0.00  0.00    -0.646 OA
BRANCH  25  27
HETATM   27  O   UNK N   1      25.328  20.539   2.271  0.00  0.00    -0.773 OA
HETATM   28  H   UNK N   1      25.722  20.700   1.437  0.00  0.00     0.167 HD
ENDBRANCH  25  27
ENDBRANCH   7  25
BRANCH  13  29
HETATM   29  C   UNK N   1      21.451  20.500   2.033  0.00  0.00     0.179 C 
HETATM   30  O   UNK N   1      21.336  20.521   0.820  0.00  0.00    -0.646 OA
BRANCH  29  31
HETATM   31  O   UNK N   1      21.834  21.623   2.674  0.00  0.00    -0.773 OA
HETATM   32  H   UNK N   1      21.277  22.006   3.323  0.00  0.00     0.167 HD
ENDBRANCH  29  31
ENDBRANCH  13  29
TORSDOF 6
ENDMDL
MODEL 5
REMARK VINA RESULT:      -7.6      4.975      7.676
REMARK  6 active torsions:
REMARK  status: ('A' for Active; 'I' for Inactive)
REMARK    1  A    between atoms: O_6  and  C_23 
REMARK    2  A    between atoms: O_8  and  C_30 
REMARK    3  A    between atoms: N_9  and  C_15 
REMARK    4  A    between atoms: C_10  and  C_11 
REMARK    5  A    between atoms: C_21  and  C_23 
REMARK    6  A    between atoms: C_28  and  C_30 
ROOT
HETATM    1  O   UNK N   1      26.059  17.272   3.413  0.00  0.00    -0.304 OA
HETATM    2  N   UNK N   1      28.731  17.348   4.304  0.00  0.00    -0.306 N 
HETATM    3  C   UNK N   1      28.194  16.200   3.586  0.00  0.00     0.075 A 
HETATM    4  C   UNK N   1      28.980  15.075   3.279  0.00  0.00     0.033 A 
HETATM    5  C   UNK N   1      28.468  13.987   2.586  0.00  0.00     0.003 A 
HETATM    6  C   UNK N   1      27.143  13.993   2.178  0.00  0.00     0.021 A 
HETATM    7  C   UNK N   1      26.316  15.086   2.454  0.00  0.00     0.073 A 
HETATM    8  C   UNK N   1      26.845  16.202   3.157  0.00  0.00     0.120 A 
HETATM    9  C   UNK N   1      27.835  18.478   4.487  0.00  0.00     0.075 A 
HETATM   10  C   UNK N   1      28.248  19.666   5.114  0.00  0.00     0.033 A 
HETATM   11  C   UNK N   1      27.383  20.742   5.282  0.00  0.00     0.003 A 
HETATM   12  C   UNK N   1      26.072  20.654   4.832  0.00  0.00     0.021 A 
HETATM   13  C   UNK N   1      25.610  19.492   4.206  0.00  0.00     0.073 A 
HETATM   14  C   UNK N   1      26.496  18.397   4.027  0.00  0.00     0.120 A 
ENDROOT
BRANCH   2  15
HETATM   15  C   UNK N   1      30.112  17.361   4.802  0.00  0.00     0.041 A 
HETATM   16  C   UNK N   1      31.215  17.593   3.956  0.00  0.00     0.030 A 
HETATM   17  C   UNK N   1      32.527  17.575   4.441  0.00  0.00     0.003 A 
HETATM   18  C   UNK N   1      32.772  17.318   5.790  0.00  0.00     0.016 A 
HETATM   19  C   UNK N   1      31.701  17.100   6.659  0.00  0.00     0.050 A 
HETATM   20  C   UNK N   1      30.398  17.129   6.158  0.00  0.00     0.046 A 
BRANCH  19  21
HETATM   21  C   UNK N   1      31.942  16.809   8.112  0.00  0.00     0.417 C 
HETATM   22  F   UNK N   1      32.699  15.659   8.231  0.00  0.00    -0.166 F 
HETATM   23  F   UNK N   1      30.745  16.622   8.787  0.00  0.00    -0.166 F 
HETATM   24  F   UNK N   1      32.618  17.864   8.698  0.00  0.00    -0.166 F 
ENDBRANCH  19  21
ENDBRANCH   2  15
BRANCH   7  25
HETATM   25  C   UNK N   1      24.910  15.023   1.985  0.00  0.00     0.179 C 
HETATM   26  O   UNK N   1      24.635  14.586   0.882  0.00  0.00    -0.646 OA
BRANCH  25  27
HETATM   27  O   UNK N   1      23.916  15.457   2.787  0.00  0.00    -0.773 OA
HETATM   28  H   UNK N   1      24.102  16.059   3.480  0.00  0.00     0.167 HD
ENDBRANCH  25  27
ENDBRANCH   7  25
BRANCH  13  29
HETATM   29  C   UNK N   1      24.194  19.460   3.753  0.00  0.00     0.179 C 
HETATM   30  O   UNK N   1      23.644  20.465   3.338  0.00  0.00    -0.646 OA
BRANCH  29  31
HETATM   31  O   UNK N   1      23.502  18.304   3.793  0.00  0.00    -0.773 OA
HETATM   32  H   UNK N   1      22.567  18.319   3.854  0.00  0.00     0.167 HD
ENDBRANCH  29  31
ENDBRANCH  13  29
TORSDOF 6
ENDMDL
MODEL 6
REMARK VINA RESULT:      -7.6      5.018      7.596
REMARK  6 active torsions:
REMARK  status: ('A' for Active; 'I' for Inactive)
REMARK    1  A    between atoms: O_6  and  C_23 
REMARK    2  A    between atoms: O_8  and  C_30 
REMARK    3  A    between atoms: N_9  and  C_15 
REMARK    4  A    between atoms: C_10  and  C_11 
REMARK    5  A    between atoms: C_21  and  C_23 
REMARK    6  A    between atoms: C_28  and  C_30 
ROOT
HETATM    1  O   UNK N   1      26.088  17.306   3.378  0.00  0.00    -0.304 OA
HETATM    2  N   UNK N   1      28.746  17.318   4.312  0.00  0.00    -0.306 N 
HETATM    3  C   UNK N   1      27.859  18.456   4.509  0.00  0.00     0.075 A 
HETATM    4  C   UNK N   1      28.268  19.615   5.193  0.00  0.00     0.033 A 
HETATM    5  C   UNK N   1      27.417  20.694   5.388  0.00  0.00     0.003 A 
HETATM    6  C   UNK N   1      26.120  20.643   4.900  0.00  0.00     0.021 A 
HETATM    7  C   UNK N   1      25.658  19.515   4.215  0.00  0.00     0.073 A 
HETATM    8  C   UNK N   1      26.530  18.409   4.022  0.00  0.00     0.120 A 
HETATM    9  C   UNK N   1      28.173  16.153   3.659  0.00  0.00     0.075 A 
HETATM   10  C   UNK N   1      28.909  14.971   3.459  0.00  0.00     0.033 A 
HETATM   11  C   UNK N   1      28.350  13.860   2.835  0.00  0.00     0.003 A 
HETATM   12  C   UNK N   1      27.037  13.906   2.386  0.00  0.00     0.021 A 
HETATM   13  C   UNK N   1      26.264  15.058   2.556  0.00  0.00     0.073 A 
HETATM   14  C   UNK N   1      26.832  16.190   3.200  0.00  0.00     0.120 A 
ENDROOT
BRANCH   2  15
HETATM   15  C   UNK N   1      30.143  17.350   4.763  0.00  0.00     0.041 A 
HETATM   16  C   UNK N   1      31.214  17.579   3.876  0.00  0.00     0.030 A 
HETATM   17  C   UNK N   1      32.543  17.580   4.317  0.00  0.00     0.003 A 
HETATM   18  C   UNK N   1      32.835  17.346   5.661  0.00  0.00     0.016 A 
HETATM   19  C   UNK N   1      31.795  17.133   6.569  0.00  0.00     0.050 A 
HETATM   20  C   UNK N   1      30.477  17.143   6.112  0.00  0.00     0.046 A 
BRANCH  19  21
HETATM   21  C   UNK N   1      32.088  16.867   8.018  0.00  0.00     0.417 C 
HETATM   22  F   UNK N   1      30.902  16.646   8.693  0.00  0.00    -0.166 F 
HETATM   23  F   UNK N   1      32.734  17.947   8.600  0.00  0.00    -0.166 F 
HETATM   24  F   UNK N   1      32.897  15.752   8.138  0.00  0.00    -0.166 F 
ENDBRANCH  19  21
ENDBRANCH   2  15
BRANCH   7  25
HETATM   25  C   UNK N   1      24.260  19.533   3.723  0.00  0.00     0.179 C 
HETATM   26  O   UNK N   1      23.754  20.558   3.302  0.00  0.00    -0.646 OA
BRANCH  25  27
HETATM   27  O   UNK N   1      23.528  18.400   3.742  0.00  0.00    -0.773 OA
HETATM   28  H   UNK N   1      22.593  18.446   3.752  0.00  0.00     0.167 HD
ENDBRANCH  25  27
ENDBRANCH   7  25
BRANCH  13  29
HETATM   29  C   UNK N   1      24.868  15.044   2.046  0.00  0.00     0.179 C 
HETATM   30  O   UNK N   1      24.605  14.594   0.945  0.00  0.00    -0.646 OA
BRANCH  29  31
HETATM   31  O   UNK N   1      23.868  15.527   2.812  0.00  0.00    -0.773 OA
HETATM   32  H   UNK N   1      23.186  16.038   2.423  0.00  0.00     0.167 HD
ENDBRANCH  29  31
ENDBRANCH  13  29
TORSDOF 6
ENDMDL
MODEL 7
REMARK VINA RESULT:      -7.4      4.665      6.965
REMARK  6 active torsions:
REMARK  status: ('A' for Active; 'I' for Inactive)
REMARK    1  A    between atoms: O_6  and  C_23 
REMARK    2  A    between atoms: O_8  and  C_30 
REMARK    3  A    between atoms: N_9  and  C_15 
REMARK    4  A    between atoms: C_10  and  C_11 
REMARK    5  A    between atoms: C_21  and  C_23 
REMARK    6  A    between atoms: C_28  and  C_30 
ROOT
HETATM    1  O   UNK N   1      21.270  14.657   7.693  0.00  0.00    -0.304 OA
HETATM    2  N   UNK N   1      23.923  14.658   6.744  0.00  0.00    -0.306 N 
HETATM    3  C   UNK N   1      22.859  15.364   6.045  0.00  0.00     0.075 A 
HETATM    4  C   UNK N   1      23.094  16.101   4.870  0.00  0.00     0.033 A 
HETATM    5  C   UNK N   1      22.079  16.780   4.211  0.00  0.00     0.003 A 
HETATM    6  C   UNK N   1      20.787  16.740   4.713  0.00  0.00     0.021 A 
HETATM    7  C   UNK N   1      20.495  16.025   5.878  0.00  0.00     0.073 A 
HETATM    8  C   UNK N   1      21.538  15.336   6.555  0.00  0.00     0.120 A 
HETATM    9  C   UNK N   1      23.560  14.001   7.988  0.00  0.00     0.075 A 
HETATM   10  C   UNK N   1      24.506  13.334   8.785  0.00  0.00     0.033 A 
HETATM   11  C   UNK N   1      24.148  12.710   9.976  0.00  0.00     0.003 A 
HETATM   12  C   UNK N   1      22.825  12.731  10.398  0.00  0.00     0.021 A 
HETATM   13  C   UNK N   1      21.844  13.376   9.639  0.00  0.00     0.073 A 
HETATM   14  C   UNK N   1      22.212  14.020   8.428  0.00  0.00     0.120 A 
ENDROOT
BRANCH   2  15
HETATM   15  C   UNK N   1      25.294  14.628   6.219  0.00  0.00     0.041 A 
HETATM   16  C   UNK N   1      25.761  13.583   5.395  0.00  0.00     0.030 A 
HETATM   17  C   UNK N   1      27.079  13.555   4.924  0.00  0.00     0.003 A 
HETATM   18  C   UNK N   1      27.968  14.572   5.271  0.00  0.00     0.016 A 
HETATM   19  C   UNK N   1      27.533  15.631   6.071  0.00  0.00     0.050 A 
HETATM   20  C   UNK N   1      26.214  15.645   6.525  0.00  0.00     0.046 A 
BRANCH  19  21
HETATM   21  C   UNK N   1      28.477  16.730   6.465  0.00  0.00     0.417 C 
HETATM   22  F   UNK N   1      29.779  16.280   6.350  0.00  0.00    -0.166 F 
HETATM   23  F   UNK N   1      28.259  17.125   7.776  0.00  0.00    -0.166 F 
HETATM   24  F   UNK N   1      28.298  17.825   5.640  0.00  0.00    -0.166 F 
ENDBRANCH  19  21
ENDBRANCH   2  15
BRANCH   7  25
HETATM   25  C   UNK N   1      19.091  16.028   6.355  0.00  0.00     0.179 C 
HETATM   26  O   UNK N   1      18.163  15.886   5.579  0.00  0.00    -0.646 OA
BRANCH  25  27
HETATM   27  O   UNK N   1      18.829  16.195   7.668  0.00  0.00    -0.773 OA
HETATM   28  H   UNK N   1      17.944  16.203   7.972  0.00  0.00     0.167 HD
ENDBRANCH  25  27
ENDBRANCH   7  25
BRANCH  13  29
HETATM   29  C   UNK N   1      20.446  13.356  10.144  0.00  0.00     0.179 C 
HETATM   30  O   UNK N   1      20.092  12.545  10.982  0.00  0.00    -0.646 OA
BRANCH  29  31
HETATM   31  O   UNK N   1      19.551  14.251   9.679  0.00  0.00    -0.773 OA
HETATM   32  H   UNK N   1      19.548  14.482   8.771  0.00  0.00     0.167 HD
ENDBRANCH  29  31
ENDBRANCH  13  29
TORSDOF 6
ENDMDL
MODEL 8
REMARK VINA RESULT:      -7.4      4.685      7.637
REMARK  6 active torsions:
REMARK  status: ('A' for Active; 'I' for Inactive)
REMARK    1  A    between atoms: O_6  and  C_23 
REMARK    2  A    between atoms: O_8  and  C_30 
REMARK    3  A    between atoms: N_9  and  C_15 
REMARK    4  A    between atoms: C_10  and  C_11 
REMARK    5  A    between atoms: C_21  and  C_23 
REMARK    6  A    between atoms: C_28  and  C_30 
ROOT
HETATM    1  O   UNK N   1      21.423  14.667   7.906  0.00  0.00    -0.304 OA
HETATM    2  N   UNK N   1      24.038  14.719   6.858  0.00  0.00    -0.306 N 
HETATM    3  C   UNK N   1      23.703  13.945   8.045  0.00  0.00     0.075 A 
HETATM    4  C   UNK N   1      24.657  13.166   8.724  0.00  0.00     0.033 A 
HETATM    5  C   UNK N   1      24.332  12.421   9.850  0.00  0.00     0.003 A 
HETATM    6  C   UNK N   1      23.033  12.437  10.333  0.00  0.00     0.021 A 
HETATM    7  C   UNK N   1      22.043  13.192   9.696  0.00  0.00     0.073 A 
HETATM    8  C   UNK N   1      22.377  13.948   8.540  0.00  0.00     0.120 A 
HETATM    9  C   UNK N   1      22.943  15.417   6.206  0.00  0.00     0.075 A 
HETATM   10  C   UNK N   1      23.124  16.153   5.022  0.00  0.00     0.033 A 
HETATM   11  C   UNK N   1      22.067  16.816   4.406  0.00  0.00     0.003 A 
HETATM   12  C   UNK N   1      20.797  16.766   4.965  0.00  0.00     0.021 A 
HETATM   13  C   UNK N   1      20.565  16.052   6.144  0.00  0.00     0.073 A 
HETATM   14  C   UNK N   1      21.642  15.369   6.769  0.00  0.00     0.120 A 
ENDROOT
BRANCH   2  15
HETATM   15  C   UNK N   1      25.412  14.776   6.344  0.00  0.00     0.041 A 
HETATM   16  C   UNK N   1      25.926  13.803   5.461  0.00  0.00     0.030 A 
HETATM   17  C   UNK N   1      27.247  13.856   5.001  0.00  0.00     0.003 A 
HETATM   18  C   UNK N   1      28.093  14.883   5.419  0.00  0.00     0.016 A 
HETATM   19  C   UNK N   1      27.611  15.872   6.280  0.00  0.00     0.050 A 
HETATM   20  C   UNK N   1      26.289  15.806   6.722  0.00  0.00     0.046 A 
BRANCH  19  21
HETATM   21  C   UNK N   1      28.509  16.979   6.751  0.00  0.00     0.417 C 
HETATM   22  F   UNK N   1      28.567  17.966   5.785  0.00  0.00    -0.166 F 
HETATM   23  F   UNK N   1      29.793  16.512   6.984  0.00  0.00    -0.166 F 
HETATM   24  F   UNK N   1      28.016  17.518   7.926  0.00  0.00    -0.166 F 
ENDBRANCH  19  21
ENDBRANCH   2  15
BRANCH   7  25
HETATM   25  C   UNK N   1      20.676  13.159  10.269  0.00  0.00     0.179 C 
HETATM   26  O   UNK N   1      20.418  12.471  11.241  0.00  0.00    -0.646 OA
BRANCH  25  27
HETATM   27  O   UNK N   1      19.696  13.897   9.708  0.00  0.00    -0.773 OA
HETATM   28  H   UNK N   1      19.109  14.386  10.249  0.00  0.00     0.167 HD
ENDBRANCH  25  27
ENDBRANCH   7  25
BRANCH  13  29
HETATM   29  C   UNK N   1      19.184  16.044   6.694  0.00  0.00     0.179 C 
HETATM   30  O   UNK N   1      18.215  15.982   5.958  0.00  0.00    -0.646 OA
BRANCH  29  31
HETATM   31  O   UNK N   1      18.991  16.099   8.027  0.00  0.00    -0.773 OA
HETATM   32  H   UNK N   1      18.243  16.543   8.375  0.00  0.00     0.167 HD
ENDBRANCH  29  31
ENDBRANCH  13  29
TORSDOF 6
ENDMDL
MODEL 9
REMARK VINA RESULT:      -7.4     12.626     15.558
REMARK  6 active torsions:
REMARK  status: ('A' for Active; 'I' for Inactive)
REMARK    1  A    between atoms: O_6  and  C_23 
REMARK    2  A    between atoms: O_8  and  C_30 
REMARK    3  A    between atoms: N_9  and  C_15 
REMARK    4  A    between atoms: C_10  and  C_11 
REMARK    5  A    between atoms: C_21  and  C_23 
REMARK    6  A    between atoms: C_28  and  C_30 
ROOT
HETATM    1  O   UNK N   1      27.961  24.386  -4.298  0.00  0.00    -0.304 OA
HETATM    2  N   UNK N   1      28.154  23.703  -7.025  0.00  0.00    -0.306 N 
HETATM    3  C   UNK N   1      28.874  22.965  -5.996  0.00  0.00     0.075 A 
HETATM    4  C   UNK N   1      29.689  21.859  -6.299  0.00  0.00     0.033 A 
HETATM    5  C   UNK N   1      30.366  21.152  -5.315  0.00  0.00     0.003 A 
HETATM    6  C   UNK N   1      30.247  21.535  -3.988  0.00  0.00     0.021 A 
HETATM    7  C   UNK N   1      29.448  22.625  -3.629  0.00  0.00     0.073 A 
HETATM    8  C   UNK N   1      28.750  23.343  -4.637  0.00  0.00     0.120 A 
HETATM    9  C   UNK N   1      27.285  24.774  -6.568  0.00  0.00     0.075 A 
HETATM   10  C   UNK N   1      26.494  25.524  -7.456  0.00  0.00     0.033 A 
HETATM   11  C   UNK N   1      25.663  26.547  -7.008  0.00  0.00     0.003 A 
HETATM   12  C   UNK N   1      25.608  26.851  -5.654  0.00  0.00     0.021 A 
HETATM   13  C   UNK N   1      26.378  26.138  -4.731  0.00  0.00     0.073 A 
HETATM   14  C   UNK N   1      27.220  25.089  -5.187  0.00  0.00     0.120 A 
ENDROOT
BRANCH   2  15
HETATM   15  C   UNK N   1      28.295  23.366  -8.447  0.00  0.00     0.041 A 
HETATM   16  C   UNK N   1      29.326  23.900  -9.247  0.00  0.00     0.030 A 
HETATM   17  C   UNK N   1      29.432  23.591 -10.608  0.00  0.00     0.003 A 
HETATM   18  C   UNK N   1      28.502  22.741 -11.207  0.00  0.00     0.016 A 
HETATM   19  C   UNK N   1      27.478  22.182 -10.440  0.00  0.00     0.050 A 
HETATM   20  C   UNK N   1      27.394  22.496  -9.083  0.00  0.00     0.046 A 
BRANCH  19  21
HETATM   21  C   UNK N   1      26.459  21.275 -11.067  0.00  0.00     0.417 C 
HETATM   22  F   UNK N   1      25.633  20.762 -10.085  0.00  0.00    -0.166 F 
HETATM   23  F   UNK N   1      27.072  20.220 -11.725  0.00  0.00    -0.166 F 
HETATM   24  F   UNK N   1      25.699  21.982 -11.981  0.00  0.00    -0.166 F 
ENDBRANCH  19  21
ENDBRANCH   2  15
BRANCH   7  25
HETATM   25  C   UNK N   1      29.368  22.975  -2.190  0.00  0.00     0.179 C 
HETATM   26  O   UNK N   1      30.375  23.095  -1.515  0.00  0.00    -0.646 OA
BRANCH  25  27
HETATM   27  O   UNK N   1      28.163  23.161  -1.611  0.00  0.00    -0.773 OA
HETATM   28  H   UNK N   1      27.515  23.686  -2.036  0.00  0.00     0.167 HD
ENDBRANCH  25  27
ENDBRANCH   7  25
BRANCH  13  29
HETATM   29  C   UNK N   1      26.277  26.518  -3.297  0.00  0.00     0.179 C 
HETATM   30  O   UNK N   1      25.948  27.644  -2.967  0.00  0.00    -0.646 OA
BRANCH  29  31
HETATM   31  O   UNK N   1      26.544  25.606  -2.340  0.00  0.00    -0.773 OA
HETATM   32  H   UNK N   1      26.396  24.696  -2.506  0.00  0.00     0.167 HD
ENDBRANCH  29  31
ENDBRANCH  13  29
TORSDOF 6
ENDMDL
