MODEL 1
REMARK VINA RESULT:      -6.2      0.000      0.000
REMARK  6 active torsions:
REMARK  status: ('A' for Active; 'I' for Inactive)
REMARK    1  A    between atoms: C_1  and  O_2 
REMARK    2  A    between atoms: C_1  and  C_3 
REMARK    3  A    between atoms: C_3  and  C_4 
REMARK    4  A    between atoms: C_4  and  C_5 
REMARK    5  A    between atoms: C_5  and  N_6 
REMARK       I    between atoms: C_10  and  N_11 
REMARK    6  A    between atoms: N_11  and  C_22 
ROOT
HETATM    1  N   UNK N   1      35.286  13.406  12.504  0.00  0.00    -0.327 N 
HETATM    2  C   UNK N   1      34.813  14.214  11.561  0.00  0.00     0.156 A 
HETATM    3  N   UNK N   1      33.782  13.967  10.724  0.00  0.00    -0.174 N 
ATOM      4  HN  UNK N   1      33.271  13.085  10.771  1.00  0.00     0.186 HD
HETATM    5  C   UNK N   1      33.437  14.923   9.814  0.00  0.00     0.687 A 
HETATM    6  N   UNK N   1      32.352  14.659   8.936  0.00  0.00    -0.192 N 
HETATM    7  N   UNK N   1      34.137  16.109   9.764  0.00  0.00    -0.154 N 
HETATM    8  C   UNK N   1      35.191  16.348  10.627  0.00  0.00     0.290 A 
HETATM    9  O   UNK N   1      35.807  17.397  10.579  0.00  0.00    -0.265 OA
HETATM   10  C   UNK N   1      35.517  15.357  11.540  0.00  0.00     0.147 A 
HETATM   11  N   UNK N   1      36.478  15.313  12.487  0.00  0.00    -0.345 N 
ATOM     12  HN  UNK N   1      37.168  16.029  12.712  1.00  0.00     0.167 HD
HETATM   13  C   UNK N   1      36.315  14.089  13.074  0.00  0.00     0.185 A 
HETATM   14  H   UNK N   1      31.905  13.787   9.037  0.00  0.00     0.184 HD
HETATM   15  H   UNK N   1      33.884  16.794   9.105  0.00  0.00     0.187 HD
ENDROOT
BRANCH   6  16
HETATM   16  C   UNK N   1      31.844  15.519   7.928  0.00  0.00     0.049 A 
HETATM   17  C   UNK N   1      30.961  16.569   8.220  0.00  0.00     0.030 A 
HETATM   18  C   UNK N   1      30.484  17.393   7.198  0.00  0.00     0.002 A 
HETATM   19  C   UNK N   1      30.887  17.173   5.878  0.00  0.00     0.000 A 
HETATM   20  C   UNK N   1      31.767  16.128   5.581  0.00  0.00     0.002 A 
HETATM   21  C   UNK N   1      32.243  15.305   6.605  0.00  0.00     0.030 A 
ENDBRANCH   6  16
BRANCH   1  22
HETATM   22  C   UNK N   1      34.739  12.085  12.783  0.00  0.00     0.131 C 
BRANCH  22  23
HETATM   23  C   UNK N   1      35.115  11.011  11.789  0.00  0.00     0.022 C 
BRANCH  23  24
HETATM   24  C   UNK N   1      33.803  10.365  11.395  0.00  0.00     0.028 C 
BRANCH  24  25
HETATM   25  C   UNK N   1      33.520  10.518   9.920  0.00  0.00     0.164 C 
BRANCH  25  26
HETATM   26  O   UNK N   1      32.503  11.459   9.758  0.00  0.00    -0.401 OA
HETATM   27  H   UNK N   1      32.525  12.073   9.008  0.00  0.00     0.209 HD
ENDBRANCH  25  26
ENDBRANCH  24  25
ENDBRANCH  23  24
ENDBRANCH  22  23
ENDBRANCH   1  22
TORSDOF 6
ENDMDL
MODEL 2
REMARK VINA RESULT:      -6.1      5.241      7.694
REMARK  6 active torsions:
REMARK  status: ('A' for Active; 'I' for Inactive)
REMARK    1  A    between atoms: C_1  and  O_2 
REMARK    2  A    between atoms: C_1  and  C_3 
REMARK    3  A    between atoms: C_3  and  C_4 
REMARK    4  A    between atoms: C_4  and  C_5 
REMARK    5  A    between atoms: C_5  and  N_6 
REMARK       I    between atoms: C_10  and  N_11 
REMARK    6  A    between atoms: N_11  and  C_22 
ROOT
HETATM    1  N   UNK N   1      31.622  16.587   7.117  0.00  0.00    -0.327 N 
HETATM    2  C   UNK N   1      30.469  17.187   6.839  0.00  0.00     0.156 A 
HETATM    3  N   UNK N   1      29.927  17.375   5.617  0.00  0.00    -0.174 N 
ATOM      4  HN  UNK N   1      30.403  17.043   4.778  1.00  0.00     0.186 HD
HETATM    5  C   UNK N   1      28.727  18.017   5.527  0.00  0.00     0.687 A 
HETATM    6  N   UNK N   1      28.160  18.212   4.239  0.00  0.00    -0.192 N 
HETATM    7  N   UNK N   1      28.096  18.458   6.670  0.00  0.00    -0.154 N 
HETATM    8  C   UNK N   1      28.663  18.260   7.915  0.00  0.00     0.290 A 
HETATM    9  O   UNK N   1      28.103  18.651   8.923  0.00  0.00    -0.265 OA
HETATM   10  C   UNK N   1      29.884  17.603   7.973  0.00  0.00     0.147 A 
HETATM   11  N   UNK N   1      30.659  17.276   9.029  0.00  0.00    -0.345 N 
ATOM     12  HN  UNK N   1      30.481  17.458  10.016  1.00  0.00     0.167 HD
HETATM   13  C   UNK N   1      31.735  16.644   8.471  0.00  0.00     0.185 A 
HETATM   14  H   UNK N   1      28.674  17.866   3.474  0.00  0.00     0.184 HD
HETATM   15  H   UNK N   1      27.231  18.921   6.599  0.00  0.00     0.187 HD
ENDROOT
BRANCH   6  16
HETATM   16  C   UNK N   1      26.930  18.852   3.939  0.00  0.00     0.049 A 
HETATM   17  C   UNK N   1      25.693  18.218   4.129  0.00  0.00     0.030 A 
HETATM   18  C   UNK N   1      24.505  18.883   3.821  0.00  0.00     0.002 A 
HETATM   19  C   UNK N   1      24.545  20.187   3.320  0.00  0.00     0.000 A 
HETATM   20  C   UNK N   1      25.773  20.825   3.128  0.00  0.00     0.002 A 
HETATM   21  C   UNK N   1      26.961  20.157   3.438  0.00  0.00     0.030 A 
ENDBRANCH   6  16
BRANCH   1  22
HETATM   22  C   UNK N   1      32.502  16.022   6.103  0.00  0.00     0.131 C 
BRANCH  22  23
HETATM   23  C   UNK N   1      33.680  16.887   5.720  0.00  0.00     0.022 C 
BRANCH  23  24
HETATM   24  C   UNK N   1      33.265  17.562   4.429  0.00  0.00     0.028 C 
BRANCH  24  25
HETATM   25  C   UNK N   1      32.629  16.591   3.464  0.00  0.00     0.164 C 
BRANCH  25  26
HETATM   26  O   UNK N   1      31.495  17.188   2.915  0.00  0.00    -0.401 OA
HETATM   27  H   UNK N   1      31.500  17.482   1.991  0.00  0.00     0.209 HD
ENDBRANCH  25  26
ENDBRANCH  24  25
ENDBRANCH  23  24
ENDBRANCH  22  23
ENDBRANCH   1  22
TORSDOF 6
ENDMDL
MODEL 3
REMARK VINA RESULT:      -6.1      1.694      2.395
REMARK  6 active torsions:
REMARK  status: ('A' for Active; 'I' for Inactive)
REMARK    1  A    between atoms: C_1  and  O_2 
REMARK    2  A    between atoms: C_1  and  C_3 
REMARK    3  A    between atoms: C_3  and  C_4 
REMARK    4  A    between atoms: C_4  and  C_5 
REMARK    5  A    between atoms: C_5  and  N_6 
REMARK       I    between atoms: C_10  and  N_11 
REMARK    6  A    between atoms: N_11  and  C_22 
ROOT
HETATM    1  N   UNK N   1      35.240  13.428  12.394  0.00  0.00    -0.327 N 
HETATM    2  C   UNK N   1      34.761  14.230  11.449  0.00  0.00     0.156 A 
HETATM    3  N   UNK N   1      33.750  13.963  10.594  0.00  0.00    -0.174 N 
ATOM      4  HN  UNK N   1      33.262  13.068  10.626  1.00  0.00     0.186 HD
HETATM    5  C   UNK N   1      33.396  14.917   9.685  0.00  0.00     0.687 A 
HETATM    6  N   UNK N   1      32.333  14.632   8.787  0.00  0.00    -0.192 N 
HETATM    7  N   UNK N   1      34.066  16.121   9.655  0.00  0.00    -0.154 N 
HETATM    8  C   UNK N   1      35.098  16.381  10.537  0.00  0.00     0.290 A 
HETATM    9  O   UNK N   1      35.688  17.446  10.507  0.00  0.00    -0.265 OA
HETATM   10  C   UNK N   1      35.435  15.391  11.449  0.00  0.00     0.147 A 
HETATM   11  N   UNK N   1      36.382  15.365  12.411  0.00  0.00    -0.345 N 
ATOM     12  HN  UNK N   1      37.049  16.097  12.653  1.00  0.00     0.167 HD
HETATM   13  C   UNK N   1      36.240  14.133  12.986  0.00  0.00     0.185 A 
HETATM   14  H   UNK N   1      31.907  13.748   8.875  0.00  0.00     0.184 HD
HETATM   15  H   UNK N   1      33.805  16.805   8.997  0.00  0.00     0.187 HD
ENDROOT
BRANCH   6  16
HETATM   16  C   UNK N   1      31.819  15.486   7.777  0.00  0.00     0.049 A 
HETATM   17  C   UNK N   1      32.179  15.345   6.429  0.00  0.00     0.030 A 
HETATM   18  C   UNK N   1      31.650  16.207   5.466  0.00  0.00     0.002 A 
HETATM   19  C   UNK N   1      30.759  17.215   5.844  0.00  0.00     0.000 A 
HETATM   20  C   UNK N   1      30.397  17.360   7.185  0.00  0.00     0.002 A 
HETATM   21  C   UNK N   1      30.927  16.497   8.148  0.00  0.00     0.030 A 
ENDBRANCH   6  16
BRANCH   1  22
HETATM   22  C   UNK N   1      34.723  12.091  12.655  0.00  0.00     0.131 C 
BRANCH  22  23
HETATM   23  C   UNK N   1      35.472  11.307  13.707  0.00  0.00     0.022 C 
BRANCH  23  24
HETATM   24  C   UNK N   1      34.511  11.201  14.874  0.00  0.00     0.028 C 
BRANCH  24  25
HETATM   25  C   UNK N   1      34.884  12.139  15.997  0.00  0.00     0.164 C 
BRANCH  25  26
HETATM   26  O   UNK N   1      34.035  13.244  15.954  0.00  0.00    -0.401 OA
HETATM   27  H   UNK N   1      34.404  14.140  15.948  0.00  0.00     0.209 HD
ENDBRANCH  25  26
ENDBRANCH  24  25
ENDBRANCH  23  24
ENDBRANCH  22  23
ENDBRANCH   1  22
TORSDOF 6
ENDMDL
MODEL 4
REMARK VINA RESULT:      -6.0      3.086      4.093
REMARK  6 active torsions:
REMARK  status: ('A' for Active; 'I' for Inactive)
REMARK    1  A    between atoms: C_1  and  O_2 
REMARK    2  A    between atoms: C_1  and  C_3 
REMARK    3  A    between atoms: C_3  and  C_4 
REMARK    4  A    between atoms: C_4  and  C_5 
REMARK    5  A    between atoms: C_5  and  N_6 
REMARK       I    between atoms: C_10  and  N_11 
REMARK    6  A    between atoms: N_11  and  C_22 
ROOT
HETATM    1  N   UNK N   1      35.785  12.480  13.657  0.00  0.00    -0.327 N 
HETATM    2  C   UNK N   1      35.752  13.189  12.533  0.00  0.00     0.156 A 
HETATM    3  N   UNK N   1      34.706  13.894  12.050  0.00  0.00    -0.174 N 
ATOM      4  HN  UNK N   1      33.820  13.926  12.555  1.00  0.00     0.186 HD
HETATM    5  C   UNK N   1      34.860  14.564  10.872  0.00  0.00     0.687 A 
HETATM    6  N   UNK N   1      33.758  15.304  10.367  0.00  0.00    -0.192 N 
HETATM    7  N   UNK N   1      36.064  14.511  10.203  0.00  0.00    -0.154 N 
HETATM    8  C   UNK N   1      37.126  13.785  10.709  0.00  0.00     0.290 A 
HETATM    9  O   UNK N   1      38.188  13.740  10.115  0.00  0.00    -0.265 OA
HETATM   10  C   UNK N   1      36.938  13.115  11.909  0.00  0.00     0.147 A 
HETATM   11  N   UNK N   1      37.780  12.342  12.628  0.00  0.00    -0.345 N 
ATOM     12  HN  UNK N   1      38.746  12.101  12.412  1.00  0.00     0.167 HD
HETATM   13  C   UNK N   1      37.039  11.959  13.712  0.00  0.00     0.185 A 
HETATM   14  H   UNK N   1      32.934  15.291  10.906  0.00  0.00     0.184 HD
HETATM   15  H   UNK N   1      36.169  14.996   9.353  0.00  0.00     0.187 HD
ENDROOT
BRANCH   6  16
HETATM   16  C   UNK N   1      33.719  16.062   9.168  0.00  0.00     0.049 A 
HETATM   17  C   UNK N   1      33.083  15.591   8.010  0.00  0.00     0.030 A 
HETATM   18  C   UNK N   1      33.068  16.369   6.850  0.00  0.00     0.002 A 
HETATM   19  C   UNK N   1      33.687  17.622   6.840  0.00  0.00     0.000 A 
HETATM   20  C   UNK N   1      34.322  18.096   7.990  0.00  0.00     0.002 A 
HETATM   21  C   UNK N   1      34.337  17.317   9.150  0.00  0.00     0.030 A 
ENDBRANCH   6  16
BRANCH   1  22
HETATM   22  C   UNK N   1      34.653  12.357  14.566  0.00  0.00     0.131 C 
BRANCH  22  23
HETATM   23  C   UNK N   1      35.008  11.981  15.986  0.00  0.00     0.022 C 
BRANCH  23  24
HETATM   24  C   UNK N   1      35.379  13.289  16.655  0.00  0.00     0.028 C 
BRANCH  24  25
HETATM   25  C   UNK N   1      35.146  13.245  18.146  0.00  0.00     0.164 C 
BRANCH  25  26
HETATM   26  O   UNK N   1      35.314  14.530  18.661  0.00  0.00    -0.401 OA
HETATM   27  H   UNK N   1      35.324  14.672  19.620  0.00  0.00     0.209 HD
ENDBRANCH  25  26
ENDBRANCH  24  25
ENDBRANCH  23  24
ENDBRANCH  22  23
ENDBRANCH   1  22
TORSDOF 6
ENDMDL
MODEL 5
REMARK VINA RESULT:      -6.0      4.627      7.157
REMARK  6 active torsions:
REMARK  status: ('A' for Active; 'I' for Inactive)
REMARK    1  A    between atoms: C_1  and  O_2 
REMARK    2  A    between atoms: C_1  and  C_3 
REMARK    3  A    between atoms: C_3  and  C_4 
REMARK    4  A    between atoms: C_4  and  C_5 
REMARK    5  A    between atoms: C_5  and  N_6 
REMARK       I    between atoms: C_10  and  N_11 
REMARK    6  A    between atoms: N_11  and  C_22 
ROOT
HETATM    1  N   UNK N   1      31.628  16.262   7.638  0.00  0.00    -0.327 N 
HETATM    2  C   UNK N   1      30.499  16.857   7.268  0.00  0.00     0.156 A 
HETATM    3  N   UNK N   1      30.090  17.109   6.006  0.00  0.00    -0.174 N 
ATOM      4  HN  UNK N   1      30.665  16.838   5.207  1.00  0.00     0.186 HD
HETATM    5  C   UNK N   1      28.892  17.734   5.821  0.00  0.00     0.687 A 
HETATM    6  N   UNK N   1      28.466  17.997   4.491  0.00  0.00    -0.192 N 
HETATM    7  N   UNK N   1      28.128  18.093   6.910  0.00  0.00    -0.154 N 
HETATM    8  C   UNK N   1      28.558  17.829   8.197  0.00  0.00     0.290 A 
HETATM    9  O   UNK N   1      27.881  18.148   9.157  0.00  0.00    -0.265 OA
HETATM   10  C   UNK N   1      29.781  17.192   8.352  0.00  0.00     0.147 A 
HETATM   11  N   UNK N   1      30.442  16.814   9.467  0.00  0.00    -0.345 N 
ATOM     12  HN  UNK N   1      30.152  16.932  10.437  1.00  0.00     0.167 HD
HETATM   13  C   UNK N   1      31.589  16.237   8.996  0.00  0.00     0.185 A 
HETATM   14  H   UNK N   1      29.071  17.709   3.769  0.00  0.00     0.184 HD
HETATM   15  H   UNK N   1      27.265  18.544   6.770  0.00  0.00     0.187 HD
ENDROOT
BRANCH   6  16
HETATM   16  C   UNK N   1      27.261  18.633   4.093  0.00  0.00     0.049 A 
HETATM   17  C   UNK N   1      26.044  17.940   4.016  0.00  0.00     0.030 A 
HETATM   18  C   UNK N   1      24.881  18.603   3.619  0.00  0.00     0.002 A 
HETATM   19  C   UNK N   1      24.926  19.962   3.298  0.00  0.00     0.000 A 
HETATM   20  C   UNK N   1      26.136  20.658   3.373  0.00  0.00     0.002 A 
HETATM   21  C   UNK N   1      27.299  19.993   3.770  0.00  0.00     0.030 A 
ENDBRANCH   6  16
BRANCH   1  22
HETATM   22  C   UNK N   1      32.628  15.776   6.697  0.00  0.00     0.131 C 
BRANCH  22  23
HETATM   23  C   UNK N   1      34.063  16.009   7.108  0.00  0.00     0.022 C 
BRANCH  23  24
HETATM   24  C   UNK N   1      34.213  17.515   7.169  0.00  0.00     0.028 C 
BRANCH  24  25
HETATM   25  C   UNK N   1      34.717  17.977   8.514  0.00  0.00     0.164 C 
BRANCH  25  26
HETATM   26  O   UNK N   1      35.149  19.298   8.398  0.00  0.00    -0.401 OA
HETATM   27  H   UNK N   1      35.602  19.728   9.139  0.00  0.00     0.209 HD
ENDBRANCH  25  26
ENDBRANCH  24  25
ENDBRANCH  23  24
ENDBRANCH  22  23
ENDBRANCH   1  22
TORSDOF 6
ENDMDL
MODEL 6
REMARK VINA RESULT:      -5.8     15.662     18.273
REMARK  6 active torsions:
REMARK  status: ('A' for Active; 'I' for Inactive)
REMARK    1  A    between atoms: C_1  and  O_2 
REMARK    2  A    between atoms: C_1  and  C_3 
REMARK    3  A    between atoms: C_3  and  C_4 
REMARK    4  A    between atoms: C_4  and  C_5 
REMARK    5  A    between atoms: C_5  and  N_6 
REMARK       I    between atoms: C_10  and  N_11 
REMARK    6  A    between atoms: N_11  and  C_22 
ROOT
HETATM    1  N   UNK N   1      30.797  20.974  -5.464  0.00  0.00    -0.327 N 
HETATM    2  C   UNK N   1      30.305  22.030  -4.825  0.00  0.00     0.156 A 
HETATM    3  N   UNK N   1      29.589  23.043  -5.363  0.00  0.00    -0.174 N 
ATOM      4  HN  UNK N   1      29.371  23.055  -6.359  1.00  0.00     0.186 HD
HETATM    5  C   UNK N   1      29.165  24.048  -4.544  0.00  0.00     0.687 A 
HETATM    6  N   UNK N   1      28.413  25.110  -5.114  0.00  0.00    -0.192 N 
HETATM    7  N   UNK N   1      29.469  24.015  -3.201  0.00  0.00    -0.154 N 
HETATM    8  C   UNK N   1      30.201  22.972  -2.664  0.00  0.00     0.290 A 
HETATM    9  O   UNK N   1      30.468  22.947  -1.476  0.00  0.00    -0.265 OA
HETATM   10  C   UNK N   1      30.618  21.966  -3.522  0.00  0.00     0.147 A 
HETATM   11  N   UNK N   1      31.334  20.846  -3.284  0.00  0.00    -0.345 N 
ATOM     12  HN  UNK N   1      31.714  20.523  -2.395  1.00  0.00     0.167 HD
HETATM   13  C   UNK N   1      31.432  20.245  -4.509  0.00  0.00     0.185 A 
HETATM   14  H   UNK N   1      28.240  25.058  -6.082  0.00  0.00     0.184 HD
HETATM   15  H   UNK N   1      29.160  24.743  -2.615  0.00  0.00     0.187 HD
ENDROOT
BRANCH   6  16
HETATM   16  C   UNK N   1      27.886  26.239  -4.435  0.00  0.00     0.049 A 
HETATM   17  C   UNK N   1      28.640  27.403  -4.228  0.00  0.00     0.030 A 
HETATM   18  C   UNK N   1      28.083  28.493  -3.555  0.00  0.00     0.002 A 
HETATM   19  C   UNK N   1      26.769  28.426  -3.084  0.00  0.00     0.000 A 
HETATM   20  C   UNK N   1      26.013  27.268  -3.287  0.00  0.00     0.002 A 
HETATM   21  C   UNK N   1      26.571  26.179  -3.961  0.00  0.00     0.030 A 
ENDBRANCH   6  16
BRANCH   1  22
HETATM   22  C   UNK N   1      30.630  20.746  -6.893  0.00  0.00     0.131 C 
BRANCH  22  23
HETATM   23  C   UNK N   1      29.336  20.075  -7.290  0.00  0.00     0.022 C 
BRANCH  23  24
HETATM   24  C   UNK N   1      28.709  21.005  -8.307  0.00  0.00     0.028 C 
BRANCH  24  25
HETATM   25  C   UNK N   1      27.355  21.501  -7.858  0.00  0.00     0.164 C 
BRANCH  25  26
HETATM   26  O   UNK N   1      27.503  22.784  -7.333  0.00  0.00    -0.401 OA
HETATM   27  H   UNK N   1      28.376  23.094  -7.047  0.00  0.00     0.209 HD
ENDBRANCH  25  26
ENDBRANCH  24  25
ENDBRANCH  23  24
ENDBRANCH  22  23
ENDBRANCH   1  22
TORSDOF 6
ENDMDL
MODEL 7
REMARK VINA RESULT:      -5.8     12.392     15.528
REMARK  6 active torsions:
REMARK  status: ('A' for Active; 'I' for Inactive)
REMARK    1  A    between atoms: C_1  and  O_2 
REMARK    2  A    between atoms: C_1  and  C_3 
REMARK    3  A    between atoms: C_3  and  C_4 
REMARK    4  A    between atoms: C_4  and  C_5 
REMARK    5  A    between atoms: C_5  and  N_6 
REMARK       I    between atoms: C_10  and  N_11 
REMARK    6  A    between atoms: N_11  and  C_22 
ROOT
HETATM    1  N   UNK N   1      20.802  17.229   3.308  0.00  0.00    -0.327 N 
HETATM    2  C   UNK N   1      20.723  16.294   4.249  0.00  0.00     0.156 A 
HETATM    3  N   UNK N   1      21.334  16.302   5.454  0.00  0.00    -0.174 N 
ATOM      4  HN  UNK N   1      21.933  17.081   5.730  1.00  0.00     0.186 HD
HETATM    5  C   UNK N   1      21.133  15.247   6.295  0.00  0.00     0.687 A 
HETATM    6  N   UNK N   1      21.777  15.260   7.561  0.00  0.00    -0.192 N 
HETATM    7  N   UNK N   1      20.321  14.204   5.906  0.00  0.00    -0.154 N 
HETATM    8  C   UNK N   1      19.702  14.209   4.670  0.00  0.00     0.290 A 
HETATM    9  O   UNK N   1      18.985  13.285   4.330  0.00  0.00    -0.265 OA
HETATM   10  C   UNK N   1      19.926  15.296   3.839  0.00  0.00     0.147 A 
HETATM   11  N   UNK N   1      19.463  15.567   2.600  0.00  0.00    -0.345 N 
ATOM     12  HN  UNK N   1      18.840  15.001   2.026  1.00  0.00     0.167 HD
HETATM   13  C   UNK N   1      20.023  16.776   2.291  0.00  0.00     0.185 A 
HETATM   14  H   UNK N   1      22.341  16.043   7.761  0.00  0.00     0.184 HD
HETATM   15  H   UNK N   1      20.180  13.445   6.517  0.00  0.00     0.187 HD
ENDROOT
BRANCH   6  16
HETATM   16  C   UNK N   1      21.695  14.264   8.568  0.00  0.00     0.049 A 
HETATM   17  C   UNK N   1      22.677  13.274   8.718  0.00  0.00     0.030 A 
HETATM   18  C   UNK N   1      22.559  12.312   9.723  0.00  0.00     0.002 A 
HETATM   19  C   UNK N   1      21.458  12.332  10.584  0.00  0.00     0.000 A 
HETATM   20  C   UNK N   1      20.476  13.316  10.439  0.00  0.00     0.002 A 
HETATM   21  C   UNK N   1      20.596  14.278   9.433  0.00  0.00     0.030 A 
ENDBRANCH   6  16
BRANCH   1  22
HETATM   22  C   UNK N   1      21.591  18.447   3.445  0.00  0.00     0.131 C 
BRANCH  22  23
HETATM   23  C   UNK N   1      20.789  19.714   3.627  0.00  0.00     0.022 C 
BRANCH  23  24
HETATM   24  C   UNK N   1      21.294  20.655   2.552  0.00  0.00     0.028 C 
BRANCH  24  25
HETATM   25  C   UNK N   1      20.846  20.229   1.175  0.00  0.00     0.164 C 
BRANCH  25  26
HETATM   26  O   UNK N   1      20.531  21.370   0.438  0.00  0.00    -0.401 OA
HETATM   27  H   UNK N   1      20.461  22.230   0.880  0.00  0.00     0.209 HD
ENDBRANCH  25  26
ENDBRANCH  24  25
ENDBRANCH  23  24
ENDBRANCH  22  23
ENDBRANCH   1  22
TORSDOF 6
ENDMDL
MODEL 8
REMARK VINA RESULT:      -5.8      2.364      6.756
REMARK  6 active torsions:
REMARK  status: ('A' for Active; 'I' for Inactive)
REMARK    1  A    between atoms: C_1  and  O_2 
REMARK    2  A    between atoms: C_1  and  C_3 
REMARK    3  A    between atoms: C_3  and  C_4 
REMARK    4  A    between atoms: C_4  and  C_5 
REMARK    5  A    between atoms: C_5  and  N_6 
REMARK       I    between atoms: C_10  and  N_11 
REMARK    6  A    between atoms: N_11  and  C_22 
ROOT
HETATM    1  N   UNK N   1      32.459  16.772   8.033  0.00  0.00    -0.327 N 
HETATM    2  C   UNK N   1      33.299  16.199   8.888  0.00  0.00     0.156 A 
HETATM    3  N   UNK N   1      33.255  14.925   9.338  0.00  0.00    -0.174 N 
ATOM      4  HN  UNK N   1      32.524  14.286   9.025  1.00  0.00     0.186 HD
HETATM    5  C   UNK N   1      34.210  14.512  10.220  0.00  0.00     0.687 A 
HETATM    6  N   UNK N   1      34.160  13.172  10.690  0.00  0.00    -0.192 N 
HETATM    7  N   UNK N   1      35.190  15.388  10.633  0.00  0.00    -0.154 N 
HETATM    8  C   UNK N   1      35.223  16.689  10.165  0.00  0.00     0.290 A 
HETATM    9  O   UNK N   1      36.091  17.460  10.532  0.00  0.00    -0.265 OA
HETATM   10  C   UNK N   1      34.239  17.078   9.269  0.00  0.00     0.147 A 
HETATM   11  N   UNK N   1      34.024  18.262   8.656  0.00  0.00    -0.345 N 
ATOM     12  HN  UNK N   1      34.567  19.120   8.744  1.00  0.00     0.167 HD
HETATM   13  C   UNK N   1      32.910  18.047   7.892  0.00  0.00     0.185 A 
HETATM   14  H   UNK N   1      33.427  12.612  10.346  0.00  0.00     0.184 HD
HETATM   15  H   UNK N   1      35.876  15.084  11.270  0.00  0.00     0.187 HD
ENDROOT
BRANCH   6  16
HETATM   16  C   UNK N   1      35.054  12.557  11.604  0.00  0.00     0.049 A 
HETATM   17  C   UNK N   1      36.072  11.690  11.180  0.00  0.00     0.030 A 
HETATM   18  C   UNK N   1      36.932  11.105  12.112  0.00  0.00     0.002 A 
HETATM   19  C   UNK N   1      36.780  11.382  13.473  0.00  0.00     0.000 A 
HETATM   20  C   UNK N   1      35.767  12.245  13.902  0.00  0.00     0.002 A 
HETATM   21  C   UNK N   1      34.908  12.830  12.968  0.00  0.00     0.030 A 
ENDBRANCH   6  16
BRANCH   1  22
HETATM   22  C   UNK N   1      31.325  16.083   7.432  0.00  0.00     0.131 C 
BRANCH  22  23
HETATM   23  C   UNK N   1      30.163  16.970   7.051  0.00  0.00     0.022 C 
BRANCH  23  24
HETATM   24  C   UNK N   1      29.492  17.320   8.364  0.00  0.00     0.028 C 
BRANCH  24  25
HETATM   25  C   UNK N   1      28.009  17.545   8.196  0.00  0.00     0.164 C 
BRANCH  25  26
HETATM   26  O   UNK N   1      27.500  18.064   9.386  0.00  0.00    -0.401 OA
HETATM   27  H   UNK N   1      26.708  18.623   9.372  0.00  0.00     0.209 HD
ENDBRANCH  25  26
ENDBRANCH  24  25
ENDBRANCH  23  24
ENDBRANCH  22  23
ENDBRANCH   1  22
TORSDOF 6
ENDMDL
MODEL 9
REMARK VINA RESULT:      -5.6     10.855     14.064
REMARK  6 active torsions:
REMARK  status: ('A' for Active; 'I' for Inactive)
REMARK    1  A    between atoms: C_1  and  O_2 
REMARK    2  A    between atoms: C_1  and  C_3 
REMARK    3  A    between atoms: C_3  and  C_4 
REMARK    4  A    between atoms: C_4  and  C_5 
REMARK    5  A    between atoms: C_5  and  N_6 
REMARK       I    between atoms: C_10  and  N_11 
REMARK    6  A    between atoms: N_11  and  C_22 
ROOT
HETATM    1  N   UNK N   1      22.347  18.948   4.124  0.00  0.00    -0.327 N 
HETATM    2  C   UNK N   1      22.636  17.912   4.904  0.00  0.00     0.156 A 
HETATM    3  N   UNK N   1      21.771  17.192   5.651  0.00  0.00    -0.174 N 
ATOM      4  HN  UNK N   1      20.776  17.418   5.659  1.00  0.00     0.186 HD
HETATM    5  C   UNK N   1      22.255  16.156   6.394  0.00  0.00     0.687 A 
HETATM    6  N   UNK N   1      21.342  15.402   7.177  0.00  0.00    -0.192 N 
HETATM    7  N   UNK N   1      23.602  15.865   6.371  0.00  0.00    -0.154 N 
HETATM    8  C   UNK N   1      24.477  16.610   5.603  0.00  0.00     0.290 A 
HETATM    9  O   UNK N   1      25.666  16.349   5.585  0.00  0.00    -0.265 OA
HETATM   10  C   UNK N   1      23.953  17.656   4.858  0.00  0.00     0.147 A 
HETATM   11  N   UNK N   1      24.556  18.538   4.032  0.00  0.00    -0.345 N 
ATOM     12  HN  UNK N   1      25.546  18.597   3.795  1.00  0.00     0.167 HD
HETATM   13  C   UNK N   1      23.536  19.331   3.587  0.00  0.00     0.185 A 
HETATM   14  H   UNK N   1      20.396  15.675   7.137  0.00  0.00     0.184 HD
HETATM   15  H   UNK N   1      23.946  15.116   6.910  0.00  0.00     0.187 HD
ENDROOT
BRANCH   6  16
HETATM   16  C   UNK N   1      21.647  14.295   8.012  0.00  0.00     0.049 A 
HETATM   17  C   UNK N   1      22.251  13.132   7.514  0.00  0.00     0.030 A 
HETATM   18  C   UNK N   1      22.535  12.065   8.370  0.00  0.00     0.002 A 
HETATM   19  C   UNK N   1      22.217  12.154   9.727  0.00  0.00     0.000 A 
HETATM   20  C   UNK N   1      21.615  13.311  10.229  0.00  0.00     0.002 A 
HETATM   21  C   UNK N   1      21.331  14.377   9.372  0.00  0.00     0.030 A 
ENDBRANCH   6  16
BRANCH   1  22
HETATM   22  C   UNK N   1      21.001  19.478   3.954  0.00  0.00     0.131 C 
BRANCH  22  23
HETATM   23  C   UNK N   1      20.148  18.753   2.939  0.00  0.00     0.022 C 
BRANCH  23  24
HETATM   24  C   UNK N   1      20.763  19.093   1.596  0.00  0.00     0.028 C 
BRANCH  24  25
HETATM   25  C   UNK N   1      20.660  20.567   1.287  0.00  0.00     0.164 C 
BRANCH  25  26
HETATM   26  O   UNK N   1      20.606  20.729  -0.097  0.00  0.00    -0.401 OA
HETATM   27  H   UNK N   1      20.049  20.143  -0.633  0.00  0.00     0.209 HD
ENDBRANCH  25  26
ENDBRANCH  24  25
ENDBRANCH  23  24
ENDBRANCH  22  23
ENDBRANCH   1  22
TORSDOF 6
ENDMDL
