REMARK  6 active torsions:
REMARK  status: ('A' for Active; 'I' for Inactive)
REMARK    1  A    between atoms: C_1  and  O_2 
REMARK    2  A    between atoms: C_1  and  C_3 
REMARK    3  A    between atoms: C_3  and  C_4 
REMARK    4  A    between atoms: C_4  and  C_5 
REMARK    5  A    between atoms: C_5  and  N_6 
REMARK       I    between atoms: C_10  and  N_11 
REMARK    6  A    between atoms: N_11  and  C_22 
ROOT
HETATM    1  N   UNK N   1      -1.833  -1.602  -0.000  0.00  0.00    -0.327 N 
HETATM    2  C   UNK N   1      -0.587  -1.140  -0.000  0.00  0.00     0.156 A 
HETATM    3  N   UNK N   1      -0.202   0.155  -0.000  0.00  0.00    -0.174 N 
ATOM      4  HN  UNK N   1      -0.894   0.905  -0.000  1.00  0.00     0.186 HD
HETATM    5  C   UNK N   1       1.132   0.439   0.000  0.00  0.00     0.687 A 
HETATM    6  N   UNK N   1       1.532   1.802   0.000  0.00  0.00    -0.192 N 
HETATM    7  N   UNK N   1       2.053  -0.586   0.000  0.00  0.00    -0.154 N 
HETATM    8  C   UNK N   1       1.645  -1.907   0.000  0.00  0.00     0.290 A 
HETATM    9  O   UNK N   1       2.462  -2.810   0.000  0.00  0.00    -0.265 OA
HETATM   10  C   UNK N   1       0.282  -2.163   0.000  0.00  0.00     0.147 A 
HETATM   11  N   UNK N   1      -0.395  -3.331   0.000  0.00  0.00    -0.345 N 
ATOM     12  HN  UNK N   1      -0.013  -4.276   0.000  1.00  0.00     0.167 HD
HETATM   13  C   UNK N   1      -1.710  -2.956  -0.000  0.00  0.00     0.185 A 
HETATM   14  H   UNK N   1       0.811   2.473   0.000  0.00  0.00     0.184 HD
HETATM   15  H   UNK N   1       3.014  -0.375   0.000  0.00  0.00     0.187 HD
ENDROOT
BRANCH   6  16
HETATM   16  C   UNK N   1       2.861   2.299  -0.000  0.00  0.00     0.049 A 
HETATM   17  C   UNK N   1       3.975   1.447  -0.000  0.00  0.00     0.030 A 
HETATM   18  C   UNK N   1       5.267   1.977  -0.000  0.00  0.00     0.002 A 
HETATM   19  C   UNK N   1       5.454   3.362  -0.000  0.00  0.00     0.000 A 
HETATM   20  C   UNK N   1       4.348   4.216   0.000  0.00  0.00     0.002 A 
HETATM   21  C   UNK N   1       3.056   3.684   0.000  0.00  0.00     0.030 A 
ENDBRANCH   6  16
BRANCH   1  22
HETATM   22  C   UNK N   1      -3.011  -0.745  -0.000  0.00  0.00     0.131 C 
BRANCH  22  23
HETATM   23  C   UNK N   1      -4.335  -1.473  -0.000  0.00  0.00     0.022 C 
BRANCH  23  24
HETATM   24  C   UNK N   1      -5.383  -0.379   0.000  0.00  0.00     0.028 C 
BRANCH  24  25
HETATM   25  C   UNK N   1      -6.784  -0.941  -0.000  0.00  0.00     0.164 C 
BRANCH  25  26
HETATM   26  O   UNK N   1      -7.689   0.120  -0.000  0.00  0.00    -0.401 OA
HETATM   27  H   UNK N   1      -7.366   1.034   0.000  0.00  0.00     0.209 HD
ENDBRANCH  25  26
ENDBRANCH  24  25
ENDBRANCH  23  24
ENDBRANCH  22  23
ENDBRANCH   1  22
TORSDOF 6
