MODEL 1
REMARK VINA RESULT:      -6.0      0.000      0.000
REMARK  3 active torsions:
REMARK  status: ('A' for Active; 'I' for Inactive)
REMARK    1  A    between atoms: C_2  and  C_7 
REMARK    2  A    between atoms: C_3  and  O_14 
REMARK    3  A    between atoms: C_4  and  O_13 
ROOT
HETATM    1  C   UNK N   1      34.475  11.489  14.584  0.00  0.00     0.015 A 
HETATM    2  C   UNK N   1      35.450  12.233  15.272  0.00  0.00     0.010 A 
HETATM    3  C   UNK N   1      36.419  12.943  14.518  0.00  0.00     0.110 A 
HETATM    4  C   UNK N   1      36.391  12.892  13.117  0.00  0.00     0.099 A 
HETATM    5  C   UNK N   1      35.411  12.144  12.461  0.00  0.00     0.039 A 
HETATM    6  C   UNK N   1      34.455  11.444  13.192  0.00  0.00     0.004 A 
ENDROOT
BRANCH   2   7
HETATM    7  C   UNK N   1      35.417  12.239  16.760  0.00  0.00    -0.023 A 
HETATM    8  C   UNK N   1      35.667  11.049  17.464  0.00  0.00     0.012 A 
HETATM    9  C   UNK N   1      35.642  11.028  18.859  0.00  0.00     0.001 A 
HETATM   10  C   UNK N   1      35.365  12.197  19.569  0.00  0.00     0.000 A 
HETATM   11  C   UNK N   1      35.114  13.387  18.884  0.00  0.00     0.001 A 
HETATM   12  C   UNK N   1      35.139  13.408  17.488  0.00  0.00     0.012 A 
ENDBRANCH   2   7
BRANCH   3  13
HETATM   13  O   UNK N   1      37.377  13.672  15.122  0.00  0.00    -0.357 OA
HETATM   14  H   UNK N   1      37.501  14.571  14.885  0.00  0.00     0.217 HD
ENDBRANCH   3  13
BRANCH   4  15
HETATM   15  O   UNK N   1      37.305  13.561  12.399  0.00  0.00    -0.358 OA
HETATM   16  H   UNK N   1      37.125  13.789  11.507  0.00  0.00     0.217 HD
ENDBRANCH   4  15
TORSDOF 3
ENDMDL
MODEL 2
REMARK VINA RESULT:      -5.9      8.539     10.669
REMARK  3 active torsions:
REMARK  status: ('A' for Active; 'I' for Inactive)
REMARK    1  A    between atoms: C_2  and  C_7 
REMARK    2  A    between atoms: C_3  and  O_14 
REMARK    3  A    between atoms: C_4  and  O_13 
ROOT
HETATM    1  C   UNK N   1      30.242  16.991   6.638  0.00  0.00     0.015 A 
HETATM    2  C   UNK N   1      30.650  17.313   7.945  0.00  0.00     0.010 A 
HETATM    3  C   UNK N   1      29.675  17.777   8.865  0.00  0.00     0.110 A 
HETATM    4  C   UNK N   1      28.338  17.905   8.463  0.00  0.00     0.099 A 
HETATM    5  C   UNK N   1      27.962  17.577   7.160  0.00  0.00     0.039 A 
HETATM    6  C   UNK N   1      28.911  17.121   6.249  0.00  0.00     0.004 A 
ENDROOT
BRANCH   2   7
HETATM    7  C   UNK N   1      32.087  17.151   8.298  0.00  0.00    -0.023 A 
HETATM    8  C   UNK N   1      32.523  15.958   8.898  0.00  0.00     0.012 A 
HETATM    9  C   UNK N   1      33.864  15.780   9.238  0.00  0.00     0.001 A 
HETATM   10  C   UNK N   1      34.788  16.795   8.984  0.00  0.00     0.000 A 
HETATM   11  C   UNK N   1      34.370  17.987   8.388  0.00  0.00     0.001 A 
HETATM   12  C   UNK N   1      33.027  18.164   8.047  0.00  0.00     0.012 A 
ENDBRANCH   2   7
BRANCH   3  13
HETATM   13  O   UNK N   1      30.008  18.101  10.130  0.00  0.00    -0.357 OA
HETATM   14  H   UNK N   1      29.452  17.844  10.840  0.00  0.00     0.217 HD
ENDBRANCH   3  13
BRANCH   4  15
HETATM   15  O   UNK N   1      27.412  18.343   9.330  0.00  0.00    -0.358 OA
HETATM   16  H   UNK N   1      26.549  18.550   9.028  0.00  0.00     0.217 HD
ENDBRANCH   4  15
TORSDOF 3
ENDMDL
MODEL 3
REMARK VINA RESULT:      -5.8      1.714      2.259
REMARK  3 active torsions:
REMARK  status: ('A' for Active; 'I' for Inactive)
REMARK    1  A    between atoms: C_2  and  C_7 
REMARK    2  A    between atoms: C_3  and  O_14 
REMARK    3  A    between atoms: C_4  and  O_13 
ROOT
HETATM    1  C   UNK N   1      36.691  14.116  15.741  0.00  0.00     0.015 A 
HETATM    2  C   UNK N   1      35.688  13.146  15.916  0.00  0.00     0.010 A 
HETATM    3  C   UNK N   1      34.883  12.793  14.804  0.00  0.00     0.110 A 
HETATM    4  C   UNK N   1      35.097  13.408  13.562  0.00  0.00     0.099 A 
HETATM    5  C   UNK N   1      36.100  14.368  13.417  0.00  0.00     0.039 A 
HETATM    6  C   UNK N   1      36.896  14.722  14.503  0.00  0.00     0.004 A 
ENDROOT
BRANCH   2   7
HETATM    7  C   UNK N   1      35.522  12.536  17.264  0.00  0.00    -0.023 A 
HETATM    8  C   UNK N   1      35.716  11.155  17.429  0.00  0.00     0.012 A 
HETATM    9  C   UNK N   1      35.566  10.558  18.682  0.00  0.00     0.001 A 
HETATM   10  C   UNK N   1      35.219  11.337  19.787  0.00  0.00     0.000 A 
HETATM   11  C   UNK N   1      35.022  12.711  19.639  0.00  0.00     0.001 A 
HETATM   12  C   UNK N   1      35.173  13.307  18.385  0.00  0.00     0.012 A 
ENDBRANCH   2   7
BRANCH   3  13
HETATM   13  O   UNK N   1      33.908  11.870  14.912  0.00  0.00    -0.357 OA
HETATM   14  H   UNK N   1      33.141  11.934  14.376  0.00  0.00     0.217 HD
ENDBRANCH   3  13
BRANCH   4  15
HETATM   15  O   UNK N   1      34.338  13.078  12.506  0.00  0.00    -0.358 OA
HETATM   16  H   UNK N   1      33.520  13.514  12.362  0.00  0.00     0.217 HD
ENDBRANCH   4  15
TORSDOF 3
ENDMDL
MODEL 4
REMARK VINA RESULT:      -5.8     21.257     23.322
REMARK  3 active torsions:
REMARK  status: ('A' for Active; 'I' for Inactive)
REMARK    1  A    between atoms: C_2  and  C_7 
REMARK    2  A    between atoms: C_3  and  O_14 
REMARK    3  A    between atoms: C_4  and  O_13 
ROOT
HETATM    1  C   UNK N   1      29.757  22.114  -5.112  0.00  0.00     0.015 A 
HETATM    2  C   UNK N   1      29.762  22.904  -3.948  0.00  0.00     0.010 A 
HETATM    3  C   UNK N   1      30.670  22.577  -2.910  0.00  0.00     0.110 A 
HETATM    4  C   UNK N   1      31.538  21.485  -3.057  0.00  0.00     0.099 A 
HETATM    5  C   UNK N   1      31.511  20.719  -4.224  0.00  0.00     0.039 A 
HETATM    6  C   UNK N   1      30.622  21.032  -5.249  0.00  0.00     0.004 A 
ENDROOT
BRANCH   2   7
HETATM    7  C   UNK N   1      28.811  24.047  -3.865  0.00  0.00    -0.023 A 
HETATM    8  C   UNK N   1      29.229  25.327  -4.265  0.00  0.00     0.012 A 
HETATM    9  C   UNK N   1      28.358  26.415  -4.197  0.00  0.00     0.001 A 
HETATM   10  C   UNK N   1      27.056  26.236  -3.727  0.00  0.00     0.000 A 
HETATM   11  C   UNK N   1      26.626  24.970  -3.325  0.00  0.00     0.001 A 
HETATM   12  C   UNK N   1      27.498  23.882  -3.393  0.00  0.00     0.012 A 
ENDBRANCH   2   7
BRANCH   3  13
HETATM   13  O   UNK N   1      30.720  23.297  -1.773  0.00  0.00    -0.357 OA
HETATM   14  H   UNK N   1      30.066  23.947  -1.601  0.00  0.00     0.217 HD
ENDBRANCH   3  13
BRANCH   4  15
HETATM   15  O   UNK N   1      32.400  21.171  -2.078  0.00  0.00    -0.358 OA
HETATM   16  H   UNK N   1      33.217  21.625  -2.010  0.00  0.00     0.217 HD
ENDBRANCH   4  15
TORSDOF 3
ENDMDL
MODEL 5
REMARK VINA RESULT:      -5.8      1.858      4.054
REMARK  3 active torsions:
REMARK  status: ('A' for Active; 'I' for Inactive)
REMARK    1  A    between atoms: C_2  and  C_7 
REMARK    2  A    between atoms: C_3  and  O_14 
REMARK    3  A    between atoms: C_4  and  O_13 
ROOT
HETATM    1  C   UNK N   1      35.225  13.618  17.710  0.00  0.00     0.015 A 
HETATM    2  C   UNK N   1      35.764  13.336  16.442  0.00  0.00     0.010 A 
HETATM    3  C   UNK N   1      36.627  14.289  15.844  0.00  0.00     0.110 A 
HETATM    4  C   UNK N   1      36.926  15.482  16.517  0.00  0.00     0.099 A 
HETATM    5  C   UNK N   1      36.377  15.735  17.775  0.00  0.00     0.039 A 
HETATM    6  C   UNK N   1      35.529  14.806  18.371  0.00  0.00     0.004 A 
ENDROOT
BRANCH   2   7
HETATM    7  C   UNK N   1      35.400  12.049  15.789  0.00  0.00    -0.023 A 
HETATM    8  C   UNK N   1      36.257  10.942  15.913  0.00  0.00     0.012 A 
HETATM    9  C   UNK N   1      35.939   9.724  15.311  0.00  0.00     0.001 A 
HETATM   10  C   UNK N   1      34.760   9.596  14.576  0.00  0.00     0.000 A 
HETATM   11  C   UNK N   1      33.898  10.687  14.443  0.00  0.00     0.001 A 
HETATM   12  C   UNK N   1      34.216  11.906  15.046  0.00  0.00     0.012 A 
ENDBRANCH   2   7
BRANCH   3  13
HETATM   13  O   UNK N   1      37.172  14.073  14.631  0.00  0.00    -0.357 OA
HETATM   14  H   UNK N   1      38.026  13.693  14.562  0.00  0.00     0.217 HD
ENDBRANCH   3  13
BRANCH   4  15
HETATM   15  O   UNK N   1      37.742  16.387  15.956  0.00  0.00    -0.358 OA
HETATM   16  H   UNK N   1      37.804  17.250  16.317  0.00  0.00     0.217 HD
ENDBRANCH   4  15
TORSDOF 3
ENDMDL
MODEL 6
REMARK VINA RESULT:      -5.5      1.794      2.550
REMARK  3 active torsions:
REMARK  status: ('A' for Active; 'I' for Inactive)
REMARK    1  A    between atoms: C_2  and  C_7 
REMARK    2  A    between atoms: C_3  and  O_14 
REMARK    3  A    between atoms: C_4  and  O_13 
ROOT
HETATM    1  C   UNK N   1      36.800  12.412  14.507  0.00  0.00     0.015 A 
HETATM    2  C   UNK N   1      35.621  11.972  15.135  0.00  0.00     0.010 A 
HETATM    3  C   UNK N   1      34.589  11.423  14.333  0.00  0.00     0.110 A 
HETATM    4  C   UNK N   1      34.758  11.327  12.945  0.00  0.00     0.099 A 
HETATM    5  C   UNK N   1      35.939  11.771  12.348  0.00  0.00     0.039 A 
HETATM    6  C   UNK N   1      36.959  12.312  13.127  0.00  0.00     0.004 A 
ENDROOT
BRANCH   2   7
HETATM    7  C   UNK N   1      35.515  12.107  16.615  0.00  0.00    -0.023 A 
HETATM    8  C   UNK N   1      35.236  13.363  17.178  0.00  0.00     0.012 A 
HETATM    9  C   UNK N   1      35.132  13.516  18.561  0.00  0.00     0.001 A 
HETATM   10  C   UNK N   1      35.304  12.414  19.399  0.00  0.00     0.000 A 
HETATM   11  C   UNK N   1      35.581  11.159  18.854  0.00  0.00     0.001 A 
HETATM   12  C   UNK N   1      35.685  11.006  17.470  0.00  0.00     0.012 A 
ENDBRANCH   2   7
BRANCH   3  13
HETATM   13  O   UNK N   1      33.438  10.986  14.879  0.00  0.00    -0.357 OA
HETATM   14  H   UNK N   1      32.620  11.168  14.458  0.00  0.00     0.217 HD
ENDBRANCH   3  13
BRANCH   4  15
HETATM   15  O   UNK N   1      33.785  10.808  12.181  0.00  0.00    -0.358 OA
HETATM   16  H   UNK N   1      33.297  10.066  12.484  0.00  0.00     0.217 HD
ENDBRANCH   4  15
TORSDOF 3
ENDMDL
MODEL 7
REMARK VINA RESULT:      -5.5     11.729     14.212
REMARK  3 active torsions:
REMARK  status: ('A' for Active; 'I' for Inactive)
REMARK    1  A    between atoms: C_2  and  C_7 
REMARK    2  A    between atoms: C_3  and  O_14 
REMARK    3  A    between atoms: C_4  and  O_13 
ROOT
HETATM    1  C   UNK N   1      29.731  17.499   6.241  0.00  0.00     0.015 A 
HETATM    2  C   UNK N   1      28.618  18.279   6.602  0.00  0.00     0.010 A 
HETATM    3  C   UNK N   1      28.483  18.685   7.954  0.00  0.00     0.110 A 
HETATM    4  C   UNK N   1      29.449  18.307   8.897  0.00  0.00     0.099 A 
HETATM    5  C   UNK N   1      30.544  17.532   8.510  0.00  0.00     0.039 A 
HETATM    6  C   UNK N   1      30.685  17.129   7.185  0.00  0.00     0.004 A 
ENDROOT
BRANCH   2   7
HETATM    7  C   UNK N   1      27.634  18.641   5.544  0.00  0.00    -0.023 A 
HETATM    8  C   UNK N   1      27.812  19.825   4.809  0.00  0.00     0.012 A 
HETATM    9  C   UNK N   1      26.905  20.187   3.812  0.00  0.00     0.001 A 
HETATM   10  C   UNK N   1      25.808  19.370   3.538  0.00  0.00     0.000 A 
HETATM   11  C   UNK N   1      25.618  18.190   4.260  0.00  0.00     0.001 A 
HETATM   12  C   UNK N   1      26.526  17.828   5.257  0.00  0.00     0.012 A 
ENDBRANCH   2   7
BRANCH   3  13
HETATM   13  O   UNK N   1      27.438  19.432   8.357  0.00  0.00    -0.357 OA
HETATM   14  H   UNK N   1      27.454  19.844   9.200  0.00  0.00     0.217 HD
ENDBRANCH   3  13
BRANCH   4  15
HETATM   15  O   UNK N   1      29.326  18.687  10.178  0.00  0.00    -0.358 OA
HETATM   16  H   UNK N   1      28.712  19.357  10.411  0.00  0.00     0.217 HD
ENDBRANCH   4  15
TORSDOF 3
ENDMDL
MODEL 8
REMARK VINA RESULT:      -5.4      2.080      4.919
REMARK  3 active torsions:
REMARK  status: ('A' for Active; 'I' for Inactive)
REMARK    1  A    between atoms: C_2  and  C_7 
REMARK    2  A    between atoms: C_3  and  O_14 
REMARK    3  A    between atoms: C_4  and  O_13 
ROOT
HETATM    1  C   UNK N   1      35.072  10.490  18.138  0.00  0.00     0.015 A 
HETATM    2  C   UNK N   1      35.058  11.328  17.009  0.00  0.00     0.010 A 
HETATM    3  C   UNK N   1      35.157  12.729  17.202  0.00  0.00     0.110 A 
HETATM    4  C   UNK N   1      35.267  13.250  18.499  0.00  0.00     0.099 A 
HETATM    5  C   UNK N   1      35.278  12.395  19.602  0.00  0.00     0.039 A 
HETATM    6  C   UNK N   1      35.181  11.017  19.423  0.00  0.00     0.004 A 
ENDROOT
BRANCH   2   7
HETATM    7  C   UNK N   1      34.939  10.700  15.664  0.00  0.00    -0.023 A 
HETATM    8  C   UNK N   1      35.917   9.786  15.237  0.00  0.00     0.012 A 
HETATM    9  C   UNK N   1      35.829   9.184  13.981  0.00  0.00     0.001 A 
HETATM   10  C   UNK N   1      34.761   9.489  13.135  0.00  0.00     0.000 A 
HETATM   11  C   UNK N   1      33.782  10.396  13.546  0.00  0.00     0.001 A 
HETATM   12  C   UNK N   1      33.870  10.998  14.802  0.00  0.00     0.012 A 
ENDBRANCH   2   7
BRANCH   3  13
HETATM   13  O   UNK N   1      35.149  13.580  16.158  0.00  0.00    -0.357 OA
HETATM   14  H   UNK N   1      35.675  14.356  16.182  0.00  0.00     0.217 HD
ENDBRANCH   3  13
BRANCH   4  15
HETATM   15  O   UNK N   1      35.361  14.576  18.687  0.00  0.00    -0.358 OA
HETATM   16  H   UNK N   1      36.058  14.926  19.208  0.00  0.00     0.217 HD
ENDBRANCH   4  15
TORSDOF 3
ENDMDL
MODEL 9
REMARK VINA RESULT:      -5.4      1.998      2.912
REMARK  3 active torsions:
REMARK  status: ('A' for Active; 'I' for Inactive)
REMARK    1  A    between atoms: C_2  and  C_7 
REMARK    2  A    between atoms: C_3  and  O_14 
REMARK    3  A    between atoms: C_4  and  O_13 
ROOT
HETATM    1  C   UNK N   1      37.512  11.549  14.490  0.00  0.00     0.015 A 
HETATM    2  C   UNK N   1      36.475  12.499  14.472  0.00  0.00     0.010 A 
HETATM    3  C   UNK N   1      35.581  12.507  13.371  0.00  0.00     0.110 A 
HETATM    4  C   UNK N   1      35.743  11.580  12.332  0.00  0.00     0.099 A 
HETATM    5  C   UNK N   1      36.782  10.648  12.376  0.00  0.00     0.039 A 
HETATM    6  C   UNK N   1      37.665  10.632  13.453  0.00  0.00     0.004 A 
ENDROOT
BRANCH   2   7
HETATM    7  C   UNK N   1      36.367  13.450  15.612  0.00  0.00    -0.023 A 
HETATM    8  C   UNK N   1      37.143  14.621  15.613  0.00  0.00     0.012 A 
HETATM    9  C   UNK N   1      37.061  15.530  16.669  0.00  0.00     0.001 A 
HETATM   10  C   UNK N   1      36.200  15.279  17.738  0.00  0.00     0.000 A 
HETATM   11  C   UNK N   1      35.422  14.120  17.752  0.00  0.00     0.001 A 
HETATM   12  C   UNK N   1      35.505  13.211  16.695  0.00  0.00     0.012 A 
ENDBRANCH   2   7
BRANCH   3  13
HETATM   13  O   UNK N   1      34.569  13.393  13.299  0.00  0.00    -0.357 OA
HETATM   14  H   UNK N   1      34.660  14.166  12.776  0.00  0.00     0.217 HD
ENDBRANCH   3  13
BRANCH   4  15
HETATM   15  O   UNK N   1      34.900  11.583  11.288  0.00  0.00    -0.358 OA
HETATM   16  H   UNK N   1      35.221  11.397  10.426  0.00  0.00     0.217 HD
ENDBRANCH   4  15
TORSDOF 3
ENDMDL
