MODEL 1
REMARK VINA RESULT:      -4.6      0.000      0.000
REMARK  12 active torsions:
REMARK  status: ('A' for Active; 'I' for Inactive)
REMARK    1  A    between atoms: C_1  and  O_3 
REMARK    2  A    between atoms: C_1  and  C_4 
REMARK    3  A    between atoms: C_4  and  C_5 
REMARK    4  A    between atoms: C_5  and  C_6 
REMARK    5  A    between atoms: C_6  and  C_7 
REMARK    6  A    between atoms: C_7  and  C_8 
REMARK    7  A    between atoms: C_8  and  C_9 
REMARK    8  A    between atoms: C_9  and  C_10 
REMARK    9  A    between atoms: C_10  and  C_11 
REMARK   10  A    between atoms: C_11  and  C_12 
REMARK   11  A    between atoms: C_12  and  C_13 
REMARK   12  A    between atoms: C_13  and  C_14 
ROOT
HETATM    1  C   UNK N   1      29.493  23.279  -5.361  0.00  0.00     0.000 C 
ENDROOT
BRANCH   1   2
HETATM    2  C   UNK N   1      29.635  21.816  -5.697  0.00  0.00     0.001 C 
BRANCH   2   3
HETATM    3  C   UNK N   1      30.579  21.220  -4.686  0.00  0.00     0.010 C 
BRANCH   3   4
HETATM    4  C   UNK N   1      31.497  22.284  -4.123  0.00  0.00     0.110 C 
BRANCH   4   5
HETATM    5  C   UNK N   1      31.618  22.153  -2.635  0.00  0.00     0.139 C 
HETATM    6  O   UNK N   1      30.926  22.849  -1.914  0.00  0.00    -0.650 OA
BRANCH   5   7
HETATM    7  O   UNK N   1      32.483  21.275  -2.084  0.00  0.00    -0.776 OA
HETATM    8  H   UNK N   1      33.202  20.947  -2.587  0.00  0.00     0.167 HD
ENDBRANCH   5   7
ENDBRANCH   4   5
ENDBRANCH   3   4
ENDBRANCH   2   3
ENDBRANCH   1   2
BRANCH   1   9
HETATM    9  C   UNK N   1      28.048  23.693  -5.454  0.00  0.00     0.000 C 
BRANCH   9  10
HETATM   10  C   UNK N   1      27.651  24.277  -4.122  0.00  0.00     0.000 C 
BRANCH  10  11
HETATM   11  C   UNK N   1      26.162  24.501  -4.103  0.00  0.00     0.000 C 
BRANCH  11  12
HETATM   12  C   UNK N   1      25.697  24.732  -5.519  0.00  0.00     0.000 C 
BRANCH  12  13
HETATM   13  C   UNK N   1      25.139  26.129  -5.634  0.00  0.00     0.001 C 
BRANCH  13  14
HETATM   14  C   UNK N   1      26.060  26.944  -6.509  0.00  0.00     0.011 C 
BRANCH  14  15
HETATM   15  C   UNK N   1      26.839  27.913  -5.652  0.00  0.00     0.085 C 
HETATM   16 Br   UNK N   1      25.824  28.282  -4.051  0.00  0.00    -0.097 Br
ENDBRANCH  14  15
ENDBRANCH  13  14
ENDBRANCH  12  13
ENDBRANCH  11  12
ENDBRANCH  10  11
ENDBRANCH   9  10
ENDBRANCH   1   9
TORSDOF 12
ENDMDL
MODEL 2
REMARK VINA RESULT:      -4.5      1.835      2.902
REMARK  12 active torsions:
REMARK  status: ('A' for Active; 'I' for Inactive)
REMARK    1  A    between atoms: C_1  and  O_3 
REMARK    2  A    between atoms: C_1  and  C_4 
REMARK    3  A    between atoms: C_4  and  C_5 
REMARK    4  A    between atoms: C_5  and  C_6 
REMARK    5  A    between atoms: C_6  and  C_7 
REMARK    6  A    between atoms: C_7  and  C_8 
REMARK    7  A    between atoms: C_8  and  C_9 
REMARK    8  A    between atoms: C_9  and  C_10 
REMARK    9  A    between atoms: C_10  and  C_11 
REMARK   10  A    between atoms: C_11  and  C_12 
REMARK   11  A    between atoms: C_12  and  C_13 
REMARK   12  A    between atoms: C_13  and  C_14 
ROOT
HETATM    1  C   UNK N   1      27.131  23.995  -5.050  0.00  0.00     0.000 C 
ENDROOT
BRANCH   1   2
HETATM    2  C   UNK N   1      26.610  24.039  -3.636  0.00  0.00     0.001 C 
BRANCH   2   3
HETATM    3  C   UNK N   1      27.794  23.854  -2.723  0.00  0.00     0.010 C 
BRANCH   3   4
HETATM    4  C   UNK N   1      29.038  23.533  -3.523  0.00  0.00     0.110 C 
BRANCH   4   5
HETATM    5  C   UNK N   1      29.954  22.634  -2.750  0.00  0.00     0.139 C 
HETATM    6  O   UNK N   1      30.284  21.562  -3.226  0.00  0.00    -0.650 OA
BRANCH   5   7
HETATM    7  O   UNK N   1      30.417  22.995  -1.534  0.00  0.00    -0.776 OA
HETATM    8  H   UNK N   1      31.173  22.573  -1.178  0.00  0.00     0.167 HD
ENDBRANCH   5   7
ENDBRANCH   4   5
ENDBRANCH   3   4
ENDBRANCH   2   3
ENDBRANCH   1   2
BRANCH   1   9
HETATM    9  C   UNK N   1      26.093  24.530  -6.001  0.00  0.00     0.000 C 
BRANCH   9  10
HETATM   10  C   UNK N   1      26.704  25.691  -6.742  0.00  0.00     0.000 C 
BRANCH  10  11
HETATM   11  C   UNK N   1      25.721  26.832  -6.773  0.00  0.00     0.000 C 
BRANCH  11  12
HETATM   12  C   UNK N   1      24.903  26.791  -5.507  0.00  0.00     0.000 C 
BRANCH  12  13
HETATM   13  C   UNK N   1      25.254  27.983  -4.652  0.00  0.00     0.001 C 
BRANCH  13  14
HETATM   14  C   UNK N   1      26.251  27.548  -3.605  0.00  0.00     0.011 C 
BRANCH  14  15
HETATM   15  C   UNK N   1      27.489  28.408  -3.704  0.00  0.00     0.085 C 
HETATM   16 Br   UNK N   1      28.993  27.285  -4.154  0.00  0.00    -0.097 Br
ENDBRANCH  14  15
ENDBRANCH  13  14
ENDBRANCH  12  13
ENDBRANCH  11  12
ENDBRANCH  10  11
ENDBRANCH   9  10
ENDBRANCH   1   9
TORSDOF 12
ENDMDL
MODEL 3
REMARK VINA RESULT:      -4.4     11.038     13.090
REMARK  12 active torsions:
REMARK  status: ('A' for Active; 'I' for Inactive)
REMARK    1  A    between atoms: C_1  and  O_3 
REMARK    2  A    between atoms: C_1  and  C_4 
REMARK    3  A    between atoms: C_4  and  C_5 
REMARK    4  A    between atoms: C_5  and  C_6 
REMARK    5  A    between atoms: C_6  and  C_7 
REMARK    6  A    between atoms: C_7  and  C_8 
REMARK    7  A    between atoms: C_8  and  C_9 
REMARK    8  A    between atoms: C_9  and  C_10 
REMARK    9  A    between atoms: C_10  and  C_11 
REMARK   10  A    between atoms: C_11  and  C_12 
REMARK   11  A    between atoms: C_12  and  C_13 
REMARK   12  A    between atoms: C_13  and  C_14 
ROOT
HETATM    1  C   UNK N   1      30.655  17.714   8.378  0.00  0.00     0.000 C 
ENDROOT
BRANCH   1   2
HETATM    2  C   UNK N   1      31.420  16.478   8.778  0.00  0.00     0.001 C 
BRANCH   2   3
HETATM    3  C   UNK N   1      32.752  16.536   8.076  0.00  0.00     0.010 C 
BRANCH   3   4
HETATM    4  C   UNK N   1      33.745  17.345   8.883  0.00  0.00     0.110 C 
BRANCH   4   5
HETATM    5  C   UNK N   1      34.512  18.283   8.002  0.00  0.00     0.139 C 
HETATM    6  O   UNK N   1      34.409  18.188   6.792  0.00  0.00    -0.650 OA
BRANCH   5   7
HETATM    7  O   UNK N   1      35.314  19.231   8.530  0.00  0.00    -0.776 OA
HETATM    8  H   UNK N   1      35.121  20.137   8.393  0.00  0.00     0.167 HD
ENDBRANCH   5   7
ENDBRANCH   4   5
ENDBRANCH   3   4
ENDBRANCH   2   3
ENDBRANCH   1   2
BRANCH   1   9
HETATM    9  C   UNK N   1      29.191  17.392   8.232  0.00  0.00     0.000 C 
BRANCH   9  10
HETATM   10  C   UNK N   1      28.616  18.325   7.198  0.00  0.00     0.000 C 
BRANCH  10  11
HETATM   11  C   UNK N   1      28.442  17.581   5.900  0.00  0.00     0.000 C 
BRANCH  11  12
HETATM   12  C   UNK N   1      27.154  18.036   5.260  0.00  0.00     0.000 C 
BRANCH  12  13
HETATM   13  C   UNK N   1      27.465  18.692   3.937  0.00  0.00     0.001 C 
BRANCH  13  14
HETATM   14  C   UNK N   1      26.902  20.092   3.949  0.00  0.00     0.011 C 
BRANCH  14  15
HETATM   15  C   UNK N   1      26.062  20.284   5.189  0.00  0.00     0.085 C 
HETATM   16 Br   UNK N   1      26.923  21.582   6.329  0.00  0.00    -0.097 Br
ENDBRANCH  14  15
ENDBRANCH  13  14
ENDBRANCH  12  13
ENDBRANCH  11  12
ENDBRANCH  10  11
ENDBRANCH   9  10
ENDBRANCH   1   9
TORSDOF 12
ENDMDL
MODEL 4
REMARK VINA RESULT:      -4.3     16.748     18.462
REMARK  12 active torsions:
REMARK  status: ('A' for Active; 'I' for Inactive)
REMARK    1  A    between atoms: C_1  and  O_3 
REMARK    2  A    between atoms: C_1  and  C_4 
REMARK    3  A    between atoms: C_4  and  C_5 
REMARK    4  A    between atoms: C_5  and  C_6 
REMARK    5  A    between atoms: C_6  and  C_7 
REMARK    6  A    between atoms: C_7  and  C_8 
REMARK    7  A    between atoms: C_8  and  C_9 
REMARK    8  A    between atoms: C_9  and  C_10 
REMARK    9  A    between atoms: C_10  and  C_11 
REMARK   10  A    between atoms: C_11  and  C_12 
REMARK   11  A    between atoms: C_12  and  C_13 
REMARK   12  A    between atoms: C_13  and  C_14 
ROOT
HETATM    1  C   UNK N   1      20.864  13.194  10.047  0.00  0.00     0.000 C 
ENDROOT
BRANCH   1   2
HETATM    2  C   UNK N   1      21.316  14.511   9.470  0.00  0.00     0.001 C 
BRANCH   2   3
HETATM    3  C   UNK N   1      20.075  15.293   9.127  0.00  0.00     0.010 C 
BRANCH   3   4
HETATM    4  C   UNK N   1      20.406  16.435   8.191  0.00  0.00     0.110 C 
BRANCH   4   5
HETATM    5  C   UNK N   1      19.760  17.707   8.649  0.00  0.00     0.139 C 
HETATM    6  O   UNK N   1      18.732  17.656   9.301  0.00  0.00    -0.650 OA
BRANCH   5   7
HETATM    7  O   UNK N   1      20.301  18.907   8.351  0.00  0.00    -0.776 OA
HETATM    8  H   UNK N   1      21.229  19.025   8.390  0.00  0.00     0.167 HD
ENDBRANCH   5   7
ENDBRANCH   4   5
ENDBRANCH   3   4
ENDBRANCH   2   3
ENDBRANCH   1   2
BRANCH   1   9
HETATM    9  C   UNK N   1      21.971  12.578  10.860  0.00  0.00     0.000 C 
BRANCH   9  10
HETATM   10  C   UNK N   1      22.918  11.898   9.906  0.00  0.00     0.000 C 
BRANCH  10  11
HETATM   11  C   UNK N   1      24.337  12.169  10.336  0.00  0.00     0.000 C 
BRANCH  11  12
HETATM   12  C   UNK N   1      24.909  13.241   9.443  0.00  0.00     0.000 C 
BRANCH  12  13
HETATM   13  C   UNK N   1      24.410  13.029   8.035  0.00  0.00     0.001 C 
BRANCH  13  14
HETATM   14  C   UNK N   1      25.472  13.500   7.072  0.00  0.00     0.011 C 
BRANCH  14  15
HETATM   15  C   UNK N   1      25.340  14.991   6.871  0.00  0.00     0.085 C 
HETATM   16 Br   UNK N   1      23.527  15.391   6.343  0.00  0.00    -0.097 Br
ENDBRANCH  14  15
ENDBRANCH  13  14
ENDBRANCH  12  13
ENDBRANCH  11  12
ENDBRANCH  10  11
ENDBRANCH   9  10
ENDBRANCH   1   9
TORSDOF 12
ENDMDL
MODEL 5
REMARK VINA RESULT:      -4.3     11.383     13.276
REMARK  12 active torsions:
REMARK  status: ('A' for Active; 'I' for Inactive)
REMARK    1  A    between atoms: C_1  and  O_3 
REMARK    2  A    between atoms: C_1  and  C_4 
REMARK    3  A    between atoms: C_4  and  C_5 
REMARK    4  A    between atoms: C_5  and  C_6 
REMARK    5  A    between atoms: C_6  and  C_7 
REMARK    6  A    between atoms: C_7  and  C_8 
REMARK    7  A    between atoms: C_8  and  C_9 
REMARK    8  A    between atoms: C_9  and  C_10 
REMARK    9  A    between atoms: C_10  and  C_11 
REMARK   10  A    between atoms: C_11  and  C_12 
REMARK   11  A    between atoms: C_12  and  C_13 
REMARK   12  A    between atoms: C_13  and  C_14 
ROOT
HETATM    1  C   UNK N   1      31.162  16.785   8.765  0.00  0.00     0.000 C 
ENDROOT
BRANCH   1   2
HETATM    2  C   UNK N   1      31.246  16.163   7.394  0.00  0.00     0.001 C 
BRANCH   2   3
HETATM    3  C   UNK N   1      31.650  17.255   6.438  0.00  0.00     0.010 C 
BRANCH   3   4
HETATM    4  C   UNK N   1      32.758  16.779   5.523  0.00  0.00     0.110 C 
BRANCH   4   5
HETATM    5  C   UNK N   1      34.101  17.015   6.143  0.00  0.00     0.139 C 
HETATM    6  O   UNK N   1      34.985  16.190   5.991  0.00  0.00    -0.650 OA
BRANCH   5   7
HETATM    7  O   UNK N   1      34.345  18.127   6.867  0.00  0.00    -0.776 OA
HETATM    8  H   UNK N   1      34.085  18.965   6.540  0.00  0.00     0.167 HD
ENDBRANCH   5   7
ENDBRANCH   4   5
ENDBRANCH   3   4
ENDBRANCH   2   3
ENDBRANCH   1   2
BRANCH   1   9
HETATM    9  C   UNK N   1      30.652  18.198   8.663  0.00  0.00     0.000 C 
BRANCH   9  10
HETATM   10  C   UNK N   1      29.526  18.352   9.653  0.00  0.00     0.000 C 
BRANCH  10  11
HETATM   11  C   UNK N   1      28.210  18.292   8.922  0.00  0.00     0.000 C 
BRANCH  11  12
HETATM   12  C   UNK N   1      28.443  18.699   7.489  0.00  0.00     0.000 C 
BRANCH  12  13
HETATM   13  C   UNK N   1      27.655  19.952   7.197  0.00  0.00     0.001 C 
BRANCH  13  14
HETATM   14  C   UNK N   1      27.584  20.140   5.701  0.00  0.00     0.011 C 
BRANCH  14  15
HETATM   15  C   UNK N   1      26.209  19.751   5.211  0.00  0.00     0.085 C 
HETATM   16 Br   UNK N   1      26.040  20.265   3.358  0.00  0.00    -0.097 Br
ENDBRANCH  14  15
ENDBRANCH  13  14
ENDBRANCH  12  13
ENDBRANCH  11  12
ENDBRANCH  10  11
ENDBRANCH   9  10
ENDBRANCH   1   9
TORSDOF 12
ENDMDL
MODEL 6
REMARK VINA RESULT:      -4.3      1.269      2.120
REMARK  12 active torsions:
REMARK  status: ('A' for Active; 'I' for Inactive)
REMARK    1  A    between atoms: C_1  and  O_3 
REMARK    2  A    between atoms: C_1  and  C_4 
REMARK    3  A    between atoms: C_4  and  C_5 
REMARK    4  A    between atoms: C_5  and  C_6 
REMARK    5  A    between atoms: C_6  and  C_7 
REMARK    6  A    between atoms: C_7  and  C_8 
REMARK    7  A    between atoms: C_8  and  C_9 
REMARK    8  A    between atoms: C_9  and  C_10 
REMARK    9  A    between atoms: C_10  and  C_11 
REMARK   10  A    between atoms: C_11  and  C_12 
REMARK   11  A    between atoms: C_12  and  C_13 
REMARK   12  A    between atoms: C_13  and  C_14 
ROOT
HETATM    1  C   UNK N   1      29.372  22.136  -6.168  0.00  0.00     0.000 C 
ENDROOT
BRANCH   1   2
HETATM    2  C   UNK N   1      30.190  20.895  -5.915  0.00  0.00     0.001 C 
BRANCH   2   3
HETATM    3  C   UNK N   1      30.617  20.934  -4.471  0.00  0.00     0.010 C 
BRANCH   3   4
HETATM    4  C   UNK N   1      30.240  22.257  -3.840  0.00  0.00     0.110 C 
BRANCH   4   5
HETATM    5  C   UNK N   1      30.919  22.430  -2.515  0.00  0.00     0.139 C 
HETATM    6  O   UNK N   1      32.030  21.958  -2.345  0.00  0.00    -0.650 OA
BRANCH   5   7
HETATM    7  O   UNK N   1      30.319  23.100  -1.510  0.00  0.00    -0.776 OA
HETATM    8  H   UNK N   1      29.686  23.763  -1.701  0.00  0.00     0.167 HD
ENDBRANCH   5   7
ENDBRANCH   4   5
ENDBRANCH   3   4
ENDBRANCH   2   3
ENDBRANCH   1   2
BRANCH   1   9
HETATM    9  C   UNK N   1      28.317  21.858  -7.206  0.00  0.00     0.000 C 
BRANCH   9  10
HETATM   10  C   UNK N   1      27.105  22.686  -6.862  0.00  0.00     0.000 C 
BRANCH  10  11
HETATM   11  C   UNK N   1      27.498  24.139  -6.799  0.00  0.00     0.000 C 
BRANCH  11  12
HETATM   12  C   UNK N   1      26.567  24.842  -5.844  0.00  0.00     0.000 C 
BRANCH  12  13
HETATM   13  C   UNK N   1      26.683  24.206  -4.482  0.00  0.00     0.001 C 
BRANCH  13  14
HETATM   14  C   UNK N   1      26.724  25.299  -3.441  0.00  0.00     0.011 C 
BRANCH  14  15
HETATM   15  C   UNK N   1      27.126  26.599  -4.095  0.00  0.00     0.085 C 
HETATM   16 Br   UNK N   1      25.768  27.922  -3.737  0.00  0.00    -0.097 Br
ENDBRANCH  14  15
ENDBRANCH  13  14
ENDBRANCH  12  13
ENDBRANCH  11  12
ENDBRANCH  10  11
ENDBRANCH   9  10
ENDBRANCH   1   9
TORSDOF 12
ENDMDL
MODEL 7
REMARK VINA RESULT:      -4.3      1.036      1.868
REMARK  12 active torsions:
REMARK  status: ('A' for Active; 'I' for Inactive)
REMARK    1  A    between atoms: C_1  and  O_3 
REMARK    2  A    between atoms: C_1  and  C_4 
REMARK    3  A    between atoms: C_4  and  C_5 
REMARK    4  A    between atoms: C_5  and  C_6 
REMARK    5  A    between atoms: C_6  and  C_7 
REMARK    6  A    between atoms: C_7  and  C_8 
REMARK    7  A    between atoms: C_8  and  C_9 
REMARK    8  A    between atoms: C_9  and  C_10 
REMARK    9  A    between atoms: C_10  and  C_11 
REMARK   10  A    between atoms: C_11  and  C_12 
REMARK   11  A    between atoms: C_12  and  C_13 
REMARK   12  A    between atoms: C_13  and  C_14 
ROOT
HETATM    1  C   UNK N   1      27.855  23.476  -5.864  0.00  0.00     0.000 C 
ENDROOT
BRANCH   1   2
HETATM    2  C   UNK N   1      28.428  23.807  -4.509  0.00  0.00     0.001 C 
BRANCH   2   3
HETATM    3  C   UNK N   1      29.850  23.309  -4.498  0.00  0.00     0.010 C 
BRANCH   3   4
HETATM    4  C   UNK N   1      29.980  22.089  -3.611  0.00  0.00     0.110 C 
BRANCH   4   5
HETATM    5  C   UNK N   1      30.837  22.384  -2.418  0.00  0.00     0.139 C 
HETATM    6  O   UNK N   1      30.404  23.099  -1.531  0.00  0.00    -0.650 OA
BRANCH   5   7
HETATM    7  O   UNK N   1      32.080  21.869  -2.313  0.00  0.00    -0.776 OA
HETATM    8  H   UNK N   1      32.375  21.524  -1.494  0.00  0.00     0.167 HD
ENDBRANCH   5   7
ENDBRANCH   4   5
ENDBRANCH   3   4
ENDBRANCH   2   3
ENDBRANCH   1   2
BRANCH   1   9
HETATM    9  C   UNK N   1      26.370  23.728  -5.873  0.00  0.00     0.000 C 
BRANCH   9  10
HETATM   10  C   UNK N   1      26.108  24.956  -5.039  0.00  0.00     0.000 C 
BRANCH  10  11
HETATM   11  C   UNK N   1      25.223  25.901  -5.811  0.00  0.00     0.000 C 
BRANCH  11  12
HETATM   12  C   UNK N   1      26.087  26.693  -6.760  0.00  0.00     0.000 C 
BRANCH  12  13
HETATM   13  C   UNK N   1      27.323  27.159  -6.031  0.00  0.00     0.001 C 
BRANCH  13  14
HETATM   14  C   UNK N   1      27.435  28.657  -6.180  0.00  0.00     0.011 C 
BRANCH  14  15
HETATM   15  C   UNK N   1      27.789  29.267  -4.845  0.00  0.00     0.085 C 
HETATM   16 Br   UNK N   1      26.315  29.000  -3.627  0.00  0.00    -0.097 Br
ENDBRANCH  14  15
ENDBRANCH  13  14
ENDBRANCH  12  13
ENDBRANCH  11  12
ENDBRANCH  10  11
ENDBRANCH   9  10
ENDBRANCH   1   9
TORSDOF 12
ENDMDL
MODEL 8
REMARK VINA RESULT:      -4.2     10.488     12.510
REMARK  12 active torsions:
REMARK  status: ('A' for Active; 'I' for Inactive)
REMARK    1  A    between atoms: C_1  and  O_3 
REMARK    2  A    between atoms: C_1  and  C_4 
REMARK    3  A    between atoms: C_4  and  C_5 
REMARK    4  A    between atoms: C_5  and  C_6 
REMARK    5  A    between atoms: C_6  and  C_7 
REMARK    6  A    between atoms: C_7  and  C_8 
REMARK    7  A    between atoms: C_8  and  C_9 
REMARK    8  A    between atoms: C_9  and  C_10 
REMARK    9  A    between atoms: C_10  and  C_11 
REMARK   10  A    between atoms: C_11  and  C_12 
REMARK   11  A    between atoms: C_12  and  C_13 
REMARK   12  A    between atoms: C_13  and  C_14 
ROOT
HETATM    1  C   UNK N   1      24.397  18.875   3.789  0.00  0.00     0.000 C 
ENDROOT
BRANCH   1   2
HETATM    2  C   UNK N   1      23.029  18.914   4.421  0.00  0.00     0.001 C 
BRANCH   2   3
HETATM    3  C   UNK N   1      22.045  18.461   3.373  0.00  0.00     0.010 C 
BRANCH   3   4
HETATM    4  C   UNK N   1      20.918  19.463   3.233  0.00  0.00     0.110 C 
BRANCH   4   5
HETATM    5  C   UNK N   1      21.271  20.527   2.240  0.00  0.00     0.139 C 
HETATM    6  O   UNK N   1      21.268  20.262   1.050  0.00  0.00    -0.650 OA
BRANCH   5   7
HETATM    7  O   UNK N   1      21.590  21.775   2.644  0.00  0.00    -0.776 OA
HETATM    8  H   UNK N   1      21.818  22.428   2.012  0.00  0.00     0.167 HD
ENDBRANCH   5   7
ENDBRANCH   4   5
ENDBRANCH   3   4
ENDBRANCH   2   3
ENDBRANCH   1   2
BRANCH   1   9
HETATM    9  C   UNK N   1      24.712  20.203   3.153  0.00  0.00     0.000 C 
BRANCH   9  10
HETATM   10  C   UNK N   1      26.207  20.385   3.186  0.00  0.00     0.000 C 
BRANCH  10  11
HETATM   11  C   UNK N   1      26.734  19.924   4.521  0.00  0.00     0.000 C 
BRANCH  11  12
HETATM   12  C   UNK N   1      26.926  21.134   5.400  0.00  0.00     0.000 C 
BRANCH  12  13
HETATM   13  C   UNK N   1      27.547  20.703   6.705  0.00  0.00     0.001 C 
BRANCH  13  14
HETATM   14  C   UNK N   1      27.837  19.224   6.636  0.00  0.00     0.011 C 
BRANCH  14  15
HETATM   15  C   UNK N   1      28.405  18.762   7.957  0.00  0.00     0.085 C 
HETATM   16 Br   UNK N   1      29.766  17.435   7.619  0.00  0.00    -0.097 Br
ENDBRANCH  14  15
ENDBRANCH  13  14
ENDBRANCH  12  13
ENDBRANCH  11  12
ENDBRANCH  10  11
ENDBRANCH   9  10
ENDBRANCH   1   9
TORSDOF 12
ENDMDL
MODEL 9
REMARK VINA RESULT:      -4.2     19.902     23.240
REMARK  12 active torsions:
REMARK  status: ('A' for Active; 'I' for Inactive)
REMARK    1  A    between atoms: C_1  and  O_3 
REMARK    2  A    between atoms: C_1  and  C_4 
REMARK    3  A    between atoms: C_4  and  C_5 
REMARK    4  A    between atoms: C_5  and  C_6 
REMARK    5  A    between atoms: C_6  and  C_7 
REMARK    6  A    between atoms: C_7  and  C_8 
REMARK    7  A    between atoms: C_8  and  C_9 
REMARK    8  A    between atoms: C_9  and  C_10 
REMARK    9  A    between atoms: C_10  and  C_11 
REMARK   10  A    between atoms: C_11  and  C_12 
REMARK   11  A    between atoms: C_12  and  C_13 
REMARK   12  A    between atoms: C_13  and  C_14 
ROOT
HETATM    1  C   UNK N   1      36.510  13.282  15.015  0.00  0.00     0.000 C 
ENDROOT
BRANCH   1   2
HETATM    2  C   UNK N   1      35.587  13.653  13.882  0.00  0.00     0.001 C 
BRANCH   2   3
HETATM    3  C   UNK N   1      36.376  14.519  12.934  0.00  0.00     0.010 C 
BRANCH   3   4
HETATM    4  C   UNK N   1      36.392  13.913  11.547  0.00  0.00     0.110 C 
BRANCH   4   5
HETATM    5  C   UNK N   1      36.498  14.980  10.500  0.00  0.00     0.139 C 
HETATM    6  O   UNK N   1      36.206  14.719   9.346  0.00  0.00    -0.650 OA
BRANCH   5   7
HETATM    7  O   UNK N   1      36.913  16.224  10.817  0.00  0.00    -0.776 OA
HETATM    8  H   UNK N   1      36.940  16.891  10.160  0.00  0.00     0.167 HD
ENDBRANCH   5   7
ENDBRANCH   4   5
ENDBRANCH   3   4
ENDBRANCH   2   3
ENDBRANCH   1   2
BRANCH   1   9
HETATM    9  C   UNK N   1      35.811  13.474  16.335  0.00  0.00     0.000 C 
BRANCH   9  10
HETATM   10  C   UNK N   1      34.858  12.321  16.522  0.00  0.00     0.000 C 
BRANCH  10  11
HETATM   11  C   UNK N   1      35.610  11.025  16.367  0.00  0.00     0.000 C 
BRANCH  11  12
HETATM   12  C   UNK N   1      34.695  10.019  15.716  0.00  0.00     0.000 C 
BRANCH  12  13
HETATM   13  C   UNK N   1      33.678  10.749  14.874  0.00  0.00     0.001 C 
BRANCH  13  14
HETATM   14  C   UNK N   1      33.944  10.439  13.421  0.00  0.00     0.011 C 
BRANCH  14  15
HETATM   15  C   UNK N   1      35.040   9.406  13.321  0.00  0.00     0.085 C 
HETATM   16 Br   UNK N   1      36.543  10.181  12.389  0.00  0.00    -0.097 Br
ENDBRANCH  14  15
ENDBRANCH  13  14
ENDBRANCH  12  13
ENDBRANCH  11  12
ENDBRANCH  10  11
ENDBRANCH   9  10
ENDBRANCH   1   9
TORSDOF 12
ENDMDL
