REMARK  4 active torsions:
REMARK  status: ('A' for Active; 'I' for Inactive)
REMARK    1  A    between atoms: C_9  and  C_15 
REMARK    2  A    between atoms: C_12  and  C_20 
REMARK    3  A    between atoms: C_15  and  C_18 
REMARK    4  A    between atoms: C_20  and  O_21 
ROOT
HETATM    1  C   UNK N   1      -0.539   0.382   0.127  0.00  0.00    -0.001 A 
HETATM    2  C   UNK N   1       0.668   1.056   0.351  0.00  0.00     0.024 A 
HETATM    3  C   UNK N   1       1.846   0.315   0.329  0.00  0.00    -0.021 A 
HETATM    4  C   UNK N   1       1.846  -1.018   0.090  0.00  0.00     0.078 A 
HETATM    5  C   UNK N   1       0.666  -1.721  -0.173  0.00  0.00     0.075 A 
HETATM    6  C   UNK N   1      -0.549  -1.009  -0.149  0.00  0.00     0.092 A 
HETATM    7  O   UNK N   1      -1.703  -1.641  -0.341  0.00  0.00    -0.274 OA
HETATM    8  C   UNK N   1      -2.884  -1.021  -0.260  0.00  0.00     0.295 A 
HETATM    9  C   UNK N   1      -2.951   0.365   0.042  0.00  0.00     0.030 A 
HETATM   10  C   UNK N   1      -1.746   1.055   0.219  0.00  0.00     0.028 A 
HETATM   11  O   UNK N   1       3.066  -1.541   0.202  0.00  0.00    -0.342 OA
HETATM   12  C   UNK N   1       3.983  -0.578   0.620  0.00  0.00     0.166 C 
HETATM   13  C   UNK N   1       3.219   0.784   0.597  0.00  0.00     0.077 C 
HETATM   14  O   UNK N   1      -3.903  -1.665  -0.427  0.00  0.00    -0.259 OA
ENDROOT
BRANCH   9  15
HETATM   15  C   UNK N   1      -4.284   1.095   0.208  0.00  0.00     0.003 C 
HETATM   16  C   UNK N   1      -5.066   0.447   1.350  0.00  0.00     0.025 C 
HETATM   17  C   UNK N   1      -4.090   2.558   0.593  0.00  0.00     0.025 C 
BRANCH  15  18
HETATM   18  C   UNK N   1      -5.043   1.088  -1.098  0.00  0.00    -0.023 C 
HETATM   19  C   UNK N   1      -6.272   0.584  -1.235  0.00  0.00     0.008 C 
ENDBRANCH  15  18
ENDBRANCH   9  15
BRANCH  12  20
HETATM   20  C   UNK N   1       5.255  -0.571  -0.243  0.00  0.00     0.077 C 
HETATM   21  C   UNK N   1       5.964  -1.909  -0.123  0.00  0.00     0.048 C 
HETATM   22  C   UNK N   1       6.212   0.511   0.231  0.00  0.00     0.048 C 
BRANCH  20  23
HETATM   23  O   UNK N   1       4.935  -0.344  -1.582  0.00  0.00    -0.388 OA
HETATM   24  H   UNK N   1       4.961  -0.072  -2.513  0.00  0.00     0.210 HD
ENDBRANCH  20  23
ENDBRANCH  12  20
TORSDOF 4
