MODEL 1
REMARK VINA RESULT:      -7.5      0.000      0.000
REMARK  4 active torsions:
REMARK  status: ('A' for Active; 'I' for Inactive)
REMARK    1  A    between atoms: C_9  and  C_15 
REMARK    2  A    between atoms: C_12  and  C_20 
REMARK    3  A    between atoms: C_15  and  C_18 
REMARK    4  A    between atoms: C_20  and  O_21 
ROOT
HETATM    1  C   UNK N   1      34.088  15.294   9.766  0.00  0.00    -0.001 A 
HETATM    2  C   UNK N   1      34.122  14.104  10.504  0.00  0.00     0.024 A 
HETATM    3  C   UNK N   1      34.955  14.047  11.618  0.00  0.00    -0.021 A 
HETATM    4  C   UNK N   1      35.710  15.105  11.998  0.00  0.00     0.078 A 
HETATM    5  C   UNK N   1      35.678  16.322  11.309  0.00  0.00     0.075 A 
HETATM    6  C   UNK N   1      34.855  16.416  10.169  0.00  0.00     0.092 A 
HETATM    7  O   UNK N   1      34.829  17.533   9.449  0.00  0.00    -0.274 OA
HETATM    8  C   UNK N   1      34.117  17.646   8.323  0.00  0.00     0.295 A 
HETATM    9  C   UNK N   1      33.349  16.553   7.844  0.00  0.00     0.030 A 
HETATM   10  C   UNK N   1      33.340  15.377   8.603  0.00  0.00     0.028 A 
HETATM   11  O   UNK N   1      36.495  14.807  13.032  0.00  0.00    -0.342 OA
HETATM   12  C   UNK N   1      36.377  13.460  13.373  0.00  0.00     0.166 C 
HETATM   13  C   UNK N   1      35.207  12.896  12.506  0.00  0.00     0.077 C 
HETATM   14  O   UNK N   1      34.155  18.692   7.703  0.00  0.00    -0.259 OA
ENDROOT
BRANCH   9  15
HETATM   15  C   UNK N   1      32.575  16.621   6.527  0.00  0.00     0.003 C 
HETATM   16  C   UNK N   1      32.230  15.201   6.080  0.00  0.00     0.025 C 
HETATM   17  C   UNK N   1      31.249  17.360   6.681  0.00  0.00     0.025 C 
BRANCH  15  18
HETATM   18  C   UNK N   1      33.376  17.381   5.496  0.00  0.00    -0.023 C 
HETATM   19  C   UNK N   1      32.938  17.634   4.260  0.00  0.00     0.008 C 
ENDBRANCH  15  18
ENDBRANCH   9  15
BRANCH  12  20
HETATM   20  C   UNK N   1      36.162  13.258  14.881  0.00  0.00     0.077 C 
HETATM   21  C   UNK N   1      36.904  14.334  15.655  0.00  0.00     0.048 C 
HETATM   22  C   UNK N   1      36.706  11.907  15.318  0.00  0.00     0.048 C 
BRANCH  20  23
HETATM   23  O   UNK N   1      34.804  13.327  15.194  0.00  0.00    -0.388 OA
HETATM   24  H   UNK N   1      33.836  13.373  15.139  0.00  0.00     0.210 HD
ENDBRANCH  20  23
ENDBRANCH  12  20
TORSDOF 4
ENDMDL
MODEL 2
REMARK VINA RESULT:      -7.4      1.266      7.760
REMARK  4 active torsions:
REMARK  status: ('A' for Active; 'I' for Inactive)
REMARK    1  A    between atoms: C_9  and  C_15 
REMARK    2  A    between atoms: C_12  and  C_20 
REMARK    3  A    between atoms: C_15  and  C_18 
REMARK    4  A    between atoms: C_20  and  O_21 
ROOT
HETATM    1  C   UNK N   1      34.938  13.940  11.564  0.00  0.00    -0.001 A 
HETATM    2  C   UNK N   1      34.206  13.793  10.379  0.00  0.00     0.024 A 
HETATM    3  C   UNK N   1      34.035  14.914   9.571  0.00  0.00    -0.021 A 
HETATM    4  C   UNK N   1      34.563  16.117   9.899  0.00  0.00     0.078 A 
HETATM    5  C   UNK N   1      35.329  16.297  11.055  0.00  0.00     0.075 A 
HETATM    6  C   UNK N   1      35.516  15.190  11.905  0.00  0.00     0.092 A 
HETATM    7  O   UNK N   1      36.192  15.321  13.042  0.00  0.00    -0.274 OA
HETATM    8  C   UNK N   1      36.337  14.317  13.913  0.00  0.00     0.295 A 
HETATM    9  C   UNK N   1      35.760  13.047  13.650  0.00  0.00     0.030 A 
HETATM   10  C   UNK N   1      35.068  12.879  12.444  0.00  0.00     0.028 A 
HETATM   11  O   UNK N   1      34.206  17.066   9.035  0.00  0.00    -0.342 OA
HETATM   12  C   UNK N   1      33.317  16.565   8.086  0.00  0.00     0.166 C 
HETATM   13  C   UNK N   1      33.259  15.022   8.321  0.00  0.00     0.077 C 
HETATM   14  O   UNK N   1      36.952  14.513  14.944  0.00  0.00    -0.259 OA
ENDROOT
BRANCH   9  15
HETATM   15  C   UNK N   1      35.847  11.894  14.650  0.00  0.00     0.003 C 
HETATM   16  C   UNK N   1      37.291  11.398  14.711  0.00  0.00     0.025 C 
HETATM   17  C   UNK N   1      35.482  12.335  16.064  0.00  0.00     0.025 C 
BRANCH  15  18
HETATM   18  C   UNK N   1      34.871  10.806  14.271  0.00  0.00    -0.023 C 
HETATM   19  C   UNK N   1      33.655  10.683  14.810  0.00  0.00     0.008 C 
ENDBRANCH  15  18
ENDBRANCH   9  15
BRANCH  12  20
HETATM   20  C   UNK N   1      33.722  16.942   6.652  0.00  0.00     0.077 C 
HETATM   21  C   UNK N   1      32.481  17.242   5.829  0.00  0.00     0.048 C 
HETATM   22  C   UNK N   1      34.458  15.789   5.988  0.00  0.00     0.048 C 
BRANCH  20  23
HETATM   23  O   UNK N   1      34.546  18.068   6.658  0.00  0.00    -0.388 OA
HETATM   24  H   UNK N   1      34.913  18.954   6.808  0.00  0.00     0.210 HD
ENDBRANCH  20  23
ENDBRANCH  12  20
TORSDOF 4
ENDMDL
MODEL 3
REMARK VINA RESULT:      -7.1      1.583      8.074
REMARK  4 active torsions:
REMARK  status: ('A' for Active; 'I' for Inactive)
REMARK    1  A    between atoms: C_9  and  C_15 
REMARK    2  A    between atoms: C_12  and  C_20 
REMARK    3  A    between atoms: C_15  and  C_18 
REMARK    4  A    between atoms: C_20  and  O_21 
ROOT
HETATM    1  C   UNK N   1      35.219  14.561  11.811  0.00  0.00    -0.001 A 
HETATM    2  C   UNK N   1      35.241  15.822  11.202  0.00  0.00     0.024 A 
HETATM    3  C   UNK N   1      34.866  15.910   9.865  0.00  0.00    -0.021 A 
HETATM    4  C   UNK N   1      34.478  14.821   9.159  0.00  0.00     0.078 A 
HETATM    5  C   UNK N   1      34.409  13.551   9.740  0.00  0.00     0.075 A 
HETATM    6  C   UNK N   1      34.790  13.418  11.089  0.00  0.00     0.092 A 
HETATM    7  O   UNK N   1      34.792  12.223  11.673  0.00  0.00    -0.274 OA
HETATM    8  C   UNK N   1      35.210  12.037  12.928  0.00  0.00     0.295 A 
HETATM    9  C   UNK N   1      35.680  13.132  13.701  0.00  0.00     0.030 A 
HETATM   10  C   UNK N   1      35.660  14.403  13.114  0.00  0.00     0.028 A 
HETATM   11  O   UNK N   1      34.249  15.116   7.880  0.00  0.00    -0.342 OA
HETATM   12  C   UNK N   1      34.559  16.449   7.614  0.00  0.00     0.166 C 
HETATM   13  C   UNK N   1      34.870  17.104   8.997  0.00  0.00     0.077 C 
HETATM   14  O   UNK N   1      35.204  10.913  13.394  0.00  0.00    -0.259 OA
ENDROOT
BRANCH   9  15
HETATM   15  C   UNK N   1      36.228  12.950  15.116  0.00  0.00     0.003 C 
HETATM   16  C   UNK N   1      37.263  11.825  15.107  0.00  0.00     0.025 C 
HETATM   17  C   UNK N   1      36.951  14.197  15.614  0.00  0.00     0.025 C 
BRANCH  15  18
HETATM   18  C   UNK N   1      35.094  12.693  16.080  0.00  0.00    -0.023 C 
HETATM   19  C   UNK N   1      35.115  13.069  17.361  0.00  0.00     0.008 C 
ENDBRANCH  15  18
ENDBRANCH   9  15
BRANCH  12  20
HETATM   20  C   UNK N   1      33.437  17.165   6.845  0.00  0.00     0.077 C 
HETATM   21  C   UNK N   1      32.624  18.020   7.802  0.00  0.00     0.048 C 
HETATM   22  C   UNK N   1      32.499  16.153   6.208  0.00  0.00     0.048 C 
BRANCH  20  23
HETATM   23  O   UNK N   1      33.973  17.982   5.849  0.00  0.00    -0.388 OA
HETATM   24  H   UNK N   1      34.135  18.709   5.227  0.00  0.00     0.210 HD
ENDBRANCH  20  23
ENDBRANCH  12  20
TORSDOF 4
ENDMDL
MODEL 4
REMARK VINA RESULT:      -7.0      3.200      9.952
REMARK  4 active torsions:
REMARK  status: ('A' for Active; 'I' for Inactive)
REMARK    1  A    between atoms: C_9  and  C_15 
REMARK    2  A    between atoms: C_12  and  C_20 
REMARK    3  A    between atoms: C_15  and  C_18 
REMARK    4  A    between atoms: C_20  and  O_21 
ROOT
HETATM    1  C   UNK N   1      35.261  12.223  15.868  0.00  0.00    -0.001 A 
HETATM    2  C   UNK N   1      35.531  13.401  15.160  0.00  0.00     0.024 A 
HETATM    3  C   UNK N   1      35.369  13.386  13.778  0.00  0.00    -0.021 A 
HETATM    4  C   UNK N   1      34.955  12.278  13.120  0.00  0.00     0.078 A 
HETATM    5  C   UNK N   1      34.642  11.093  13.793  0.00  0.00     0.075 A 
HETATM    6  C   UNK N   1      34.803  11.063  15.192  0.00  0.00     0.092 A 
HETATM    7  O   UNK N   1      34.569   9.945  15.873  0.00  0.00    -0.274 OA
HETATM    8  C   UNK N   1      34.773   9.850  17.190  0.00  0.00     0.295 A 
HETATM    9  C   UNK N   1      35.259  10.963  17.927  0.00  0.00     0.030 A 
HETATM   10  C   UNK N   1      35.484  12.158  17.233  0.00  0.00     0.028 A 
HETATM   11  O   UNK N   1      34.954  12.457  11.800  0.00  0.00    -0.342 OA
HETATM   12  C   UNK N   1      35.465  13.711  11.468  0.00  0.00     0.166 C 
HETATM   13  C   UNK N   1      35.650  14.472  12.819  0.00  0.00     0.077 C 
HETATM   14  O   UNK N   1      34.557   8.790  17.747  0.00  0.00    -0.259 OA
ENDROOT
BRANCH   9  15
HETATM   15  C   UNK N   1      35.567  10.874  19.422  0.00  0.00     0.003 C 
HETATM   16  C   UNK N   1      35.688  12.288  19.988  0.00  0.00     0.025 C 
HETATM   17  C   UNK N   1      34.444  10.193  20.197  0.00  0.00     0.025 C 
BRANCH  15  18
HETATM   18  C   UNK N   1      36.810  10.047  19.644  0.00  0.00    -0.023 C 
HETATM   19  C   UNK N   1      37.513  10.061  20.780  0.00  0.00     0.008 C 
ENDBRANCH  15  18
ENDBRANCH   9  15
BRANCH  12  20
HETATM   20  C   UNK N   1      34.566  14.461  10.471  0.00  0.00     0.077 C 
HETATM   21  C   UNK N   1      34.154  13.525   9.348  0.00  0.00     0.048 C 
HETATM   22  C   UNK N   1      35.318  15.630   9.856  0.00  0.00     0.048 C 
BRANCH  20  23
HETATM   23  O   UNK N   1      33.421  14.938  11.109  0.00  0.00    -0.388 OA
HETATM   24  H   UNK N   1      32.594  15.401  11.315  0.00  0.00     0.210 HD
ENDBRANCH  20  23
ENDBRANCH  12  20
TORSDOF 4
ENDMDL
MODEL 5
REMARK VINA RESULT:      -6.9     15.391     18.765
REMARK  4 active torsions:
REMARK  status: ('A' for Active; 'I' for Inactive)
REMARK    1  A    between atoms: C_9  and  C_15 
REMARK    2  A    between atoms: C_12  and  C_20 
REMARK    3  A    between atoms: C_15  and  C_18 
REMARK    4  A    between atoms: C_20  and  O_21 
ROOT
HETATM    1  C   UNK N   1      28.567  24.325  -4.774  0.00  0.00    -0.001 A 
HETATM    2  C   UNK N   1      29.456  23.793  -3.832  0.00  0.00     0.024 A 
HETATM    3  C   UNK N   1      30.095  22.595  -4.137  0.00  0.00    -0.021 A 
HETATM    4  C   UNK N   1      29.884  21.952  -5.311  0.00  0.00     0.078 A 
HETATM    5  C   UNK N   1      29.033  22.469  -6.292  0.00  0.00     0.075 A 
HETATM    6  C   UNK N   1      28.358  23.674  -6.017  0.00  0.00     0.092 A 
HETATM    7  O   UNK N   1      27.497  24.179  -6.896  0.00  0.00    -0.274 OA
HETATM    8  C   UNK N   1      26.784  25.282  -6.650  0.00  0.00     0.295 A 
HETATM    9  C   UNK N   1      26.921  25.969  -5.415  0.00  0.00     0.030 A 
HETATM   10  C   UNK N   1      27.843  25.470  -4.488  0.00  0.00     0.028 A 
HETATM   11  O   UNK N   1      30.526  20.786  -5.359  0.00  0.00    -0.342 OA
HETATM   12  C   UNK N   1      31.163  20.519  -4.148  0.00  0.00     0.166 C 
HETATM   13  C   UNK N   1      31.015  21.814  -3.288  0.00  0.00     0.077 C 
HETATM   14  O   UNK N   1      25.999  25.678  -7.492  0.00  0.00    -0.259 OA
ENDROOT
BRANCH   9  15
HETATM   15  C   UNK N   1      26.075  27.195  -5.071  0.00  0.00     0.003 C 
HETATM   16  C   UNK N   1      24.660  26.989  -5.608  0.00  0.00     0.025 C 
HETATM   17  C   UNK N   1      25.941  27.393  -3.565  0.00  0.00     0.025 C 
BRANCH  15  18
HETATM   18  C   UNK N   1      26.730  28.443  -5.614  0.00  0.00    -0.023 C 
HETATM   19  C   UNK N   1      27.069  29.489  -4.856  0.00  0.00     0.008 C 
ENDBRANCH  15  18
ENDBRANCH   9  15
BRANCH  12  20
HETATM   20  C   UNK N   1      32.625  20.086  -4.342  0.00  0.00     0.077 C 
HETATM   21  C   UNK N   1      33.533  20.944  -3.477  0.00  0.00     0.048 C 
HETATM   22  C   UNK N   1      33.046  20.271  -5.791  0.00  0.00     0.048 C 
BRANCH  20  23
HETATM   23  O   UNK N   1      32.789  18.747  -3.985  0.00  0.00    -0.388 OA
HETATM   24  H   UNK N   1      32.674  17.789  -3.885  0.00  0.00     0.210 HD
ENDBRANCH  20  23
ENDBRANCH  12  20
TORSDOF 4
ENDMDL
MODEL 6
REMARK VINA RESULT:      -6.9      5.895     11.794
REMARK  4 active torsions:
REMARK  status: ('A' for Active; 'I' for Inactive)
REMARK    1  A    between atoms: C_9  and  C_15 
REMARK    2  A    between atoms: C_12  and  C_20 
REMARK    3  A    between atoms: C_15  and  C_18 
REMARK    4  A    between atoms: C_20  and  O_21 
ROOT
HETATM    1  C   UNK N   1      34.511   9.786  18.402  0.00  0.00    -0.001 A 
HETATM    2  C   UNK N   1      34.681  10.097  17.047  0.00  0.00     0.024 A 
HETATM    3  C   UNK N   1      35.102  11.382  16.718  0.00  0.00    -0.021 A 
HETATM    4  C   UNK N   1      35.355  12.315  17.666  0.00  0.00     0.078 A 
HETATM    5  C   UNK N   1      35.231  12.034  19.030  0.00  0.00     0.075 A 
HETATM    6  C   UNK N   1      34.796  10.748  19.405  0.00  0.00     0.092 A 
HETATM    7  O   UNK N   1      34.612  10.446  20.687  0.00  0.00    -0.274 OA
HETATM    8  C   UNK N   1      34.136   9.263  21.086  0.00  0.00     0.295 A 
HETATM    9  C   UNK N   1      33.801   8.263  20.135  0.00  0.00     0.030 A 
HETATM   10  C   UNK N   1      34.015   8.550  18.781  0.00  0.00     0.028 A 
HETATM   11  O   UNK N   1      35.659  13.496  17.130  0.00  0.00    -0.342 OA
HETATM   12  C   UNK N   1      35.545  13.456  15.741  0.00  0.00     0.166 C 
HETATM   13  C   UNK N   1      35.289  11.960  15.373  0.00  0.00     0.077 C 
HETATM   14  O   UNK N   1      33.973   9.061  22.275  0.00  0.00    -0.259 OA
ENDROOT
BRANCH   9  15
HETATM   15  C   UNK N   1      33.194   6.923  20.548  0.00  0.00     0.003 C 
HETATM   16  C   UNK N   1      33.224   5.974  19.350  0.00  0.00     0.025 C 
HETATM   17  C   UNK N   1      33.997   6.248  21.654  0.00  0.00     0.025 C 
BRANCH  15  18
HETATM   18  C   UNK N   1      31.800   7.133  21.091  0.00  0.00    -0.023 C 
HETATM   19  C   UNK N   1      30.757   7.480  20.333  0.00  0.00     0.008 C 
ENDBRANCH  15  18
ENDBRANCH   9  15
BRANCH  12  20
HETATM   20  C   UNK N   1      36.777  14.048  15.038  0.00  0.00     0.077 C 
HETATM   21  C   UNK N   1      37.297  15.236  15.829  0.00  0.00     0.048 C 
HETATM   22  C   UNK N   1      36.409  14.537  13.646  0.00  0.00     0.048 C 
BRANCH  20  23
HETATM   23  O   UNK N   1      37.787  13.092  14.935  0.00  0.00    -0.388 OA
HETATM   24  H   UNK N   1      38.475  12.496  14.599  0.00  0.00     0.210 HD
ENDBRANCH  20  23
ENDBRANCH  12  20
TORSDOF 4
ENDMDL
MODEL 7
REMARK VINA RESULT:      -6.6      4.100      9.792
REMARK  4 active torsions:
REMARK  status: ('A' for Active; 'I' for Inactive)
REMARK    1  A    between atoms: C_9  and  C_15 
REMARK    2  A    between atoms: C_12  and  C_20 
REMARK    3  A    between atoms: C_15  and  C_18 
REMARK    4  A    between atoms: C_20  and  O_21 
ROOT
HETATM    1  C   UNK N   1      36.337  11.446  15.799  0.00  0.00    -0.001 A 
HETATM    2  C   UNK N   1      36.783  11.028  14.539  0.00  0.00     0.024 A 
HETATM    3  C   UNK N   1      36.637  11.907  13.469  0.00  0.00    -0.021 A 
HETATM    4  C   UNK N   1      36.091  13.136  13.624  0.00  0.00     0.078 A 
HETATM    5  C   UNK N   1      35.667  13.603  14.872  0.00  0.00     0.075 A 
HETATM    6  C   UNK N   1      35.788  12.740  15.979  0.00  0.00     0.092 A 
HETATM    7  O   UNK N   1      35.351  13.118  17.177  0.00  0.00    -0.274 OA
HETATM    8  C   UNK N   1      35.382  12.309  18.240  0.00  0.00     0.295 A 
HETATM    9  C   UNK N   1      35.892  10.988  18.127  0.00  0.00     0.030 A 
HETATM   10  C   UNK N   1      36.383  10.582  16.881  0.00  0.00     0.028 A 
HETATM   11  O   UNK N   1      35.967  13.774  12.461  0.00  0.00    -0.342 OA
HETATM   12  C   UNK N   1      36.355  12.955  11.402  0.00  0.00     0.166 C 
HETATM   13  C   UNK N   1      36.968  11.672  12.050  0.00  0.00     0.077 C 
HETATM   14  O   UNK N   1      34.947  12.712  19.303  0.00  0.00    -0.259 OA
ENDROOT
BRANCH   9  15
HETATM   15  C   UNK N   1      35.883  10.012  19.303  0.00  0.00     0.003 C 
HETATM   16  C   UNK N   1      36.669   8.760  18.915  0.00  0.00     0.025 C 
HETATM   17  C   UNK N   1      36.574  10.593  20.533  0.00  0.00     0.025 C 
BRANCH  15  18
HETATM   18  C   UNK N   1      34.461   9.706  19.710  0.00  0.00    -0.023 C 
HETATM   19  C   UNK N   1      33.725   8.740  19.155  0.00  0.00     0.008 C 
ENDBRANCH  15  18
ENDBRANCH   9  15
BRANCH  12  20
HETATM   20  C   UNK N   1      37.321  13.665  10.440  0.00  0.00     0.077 C 
HETATM   21  C   UNK N   1      36.830  13.508   9.011  0.00  0.00     0.048 C 
HETATM   22  C   UNK N   1      38.708  13.048  10.529  0.00  0.00     0.048 C 
BRANCH  20  23
HETATM   23  O   UNK N   1      37.403  15.023  10.746  0.00  0.00    -0.388 OA
HETATM   24  H   UNK N   1      37.435  15.991  10.687  0.00  0.00     0.210 HD
ENDBRANCH  20  23
ENDBRANCH  12  20
TORSDOF 4
ENDMDL
MODEL 8
REMARK VINA RESULT:      -6.5      2.408      8.069
REMARK  4 active torsions:
REMARK  status: ('A' for Active; 'I' for Inactive)
REMARK    1  A    between atoms: C_9  and  C_15 
REMARK    2  A    between atoms: C_12  and  C_20 
REMARK    3  A    between atoms: C_15  and  C_18 
REMARK    4  A    between atoms: C_20  and  O_21 
ROOT
HETATM    1  C   UNK N   1      33.215  15.516   8.224  0.00  0.00    -0.001 A 
HETATM    2  C   UNK N   1      32.237  14.981   7.376  0.00  0.00     0.024 A 
HETATM    3  C   UNK N   1      31.265  15.841   6.872  0.00  0.00    -0.021 A 
HETATM    4  C   UNK N   1      31.254  17.161   7.174  0.00  0.00     0.078 A 
HETATM    5  C   UNK N   1      32.233  17.740   7.988  0.00  0.00     0.075 A 
HETATM    6  C   UNK N   1      33.228  16.901   8.527  0.00  0.00     0.092 A 
HETATM    7  O   UNK N   1      34.151  17.394   9.348  0.00  0.00    -0.274 OA
HETATM    8  C   UNK N   1      35.072  16.626   9.937  0.00  0.00     0.295 A 
HETATM    9  C   UNK N   1      35.100  15.225   9.702  0.00  0.00     0.030 A 
HETATM   10  C   UNK N   1      34.156  14.691   8.818  0.00  0.00     0.028 A 
HETATM   11  O   UNK N   1      30.192  17.778   6.660  0.00  0.00    -0.342 OA
HETATM   12  C   UNK N   1      29.346  16.867   6.029  0.00  0.00     0.166 C 
HETATM   13  C   UNK N   1      30.108  15.504   6.021  0.00  0.00     0.077 C 
HETATM   14  O   UNK N   1      35.875  17.139  10.694  0.00  0.00    -0.259 OA
ENDROOT
BRANCH   9  15
HETATM   15  C   UNK N   1      36.097  14.305  10.407  0.00  0.00     0.003 C 
HETATM   16  C   UNK N   1      35.748  12.853  10.081  0.00  0.00     0.025 C 
HETATM   17  C   UNK N   1      37.524  14.526   9.917  0.00  0.00     0.025 C 
BRANCH  15  18
HETATM   18  C   UNK N   1      36.100  14.587  11.891  0.00  0.00    -0.023 C 
HETATM   19  C   UNK N   1      35.401  13.875  12.779  0.00  0.00     0.008 C 
ENDBRANCH  15  18
ENDBRANCH   9  15
BRANCH  12  20
HETATM   20  C   UNK N   1      28.931  17.335   4.624  0.00  0.00     0.077 C 
HETATM   21  C   UNK N   1      28.281  18.705   4.710  0.00  0.00     0.048 C 
HETATM   22  C   UNK N   1      27.918  16.373   4.023  0.00  0.00     0.048 C 
BRANCH  20  23
HETATM   23  O   UNK N   1      30.044  17.410   3.786  0.00  0.00    -0.388 OA
HETATM   24  H   UNK N   1      30.632  17.563   3.030  0.00  0.00     0.210 HD
ENDBRANCH  20  23
ENDBRANCH  12  20
TORSDOF 4
ENDMDL
MODEL 9
REMARK VINA RESULT:      -6.5      3.772      6.181
REMARK  4 active torsions:
REMARK  status: ('A' for Active; 'I' for Inactive)
REMARK    1  A    between atoms: C_9  and  C_15 
REMARK    2  A    between atoms: C_12  and  C_20 
REMARK    3  A    between atoms: C_15  and  C_18 
REMARK    4  A    between atoms: C_20  and  O_21 
ROOT
HETATM    1  C   UNK N   1      29.790  17.132   6.654  0.00  0.00    -0.001 A 
HETATM    2  C   UNK N   1      30.782  16.143   6.642  0.00  0.00     0.024 A 
HETATM    3  C   UNK N   1      31.762  16.186   7.630  0.00  0.00    -0.021 A 
HETATM    4  C   UNK N   1      31.767  17.143   8.588  0.00  0.00     0.078 A 
HETATM    5  C   UNK N   1      30.775  18.127   8.655  0.00  0.00     0.075 A 
HETATM    6  C   UNK N   1      29.772  18.124   7.667  0.00  0.00     0.092 A 
HETATM    7  O   UNK N   1      28.836  19.069   7.656  0.00  0.00    -0.274 OA
HETATM    8  C   UNK N   1      27.905  19.147   6.700  0.00  0.00     0.295 A 
HETATM    9  C   UNK N   1      27.882  18.205   5.638  0.00  0.00     0.030 A 
HETATM   10  C   UNK N   1      28.840  17.185   5.647  0.00  0.00     0.028 A 
HETATM   11  O   UNK N   1      32.837  17.049   9.375  0.00  0.00    -0.342 OA
HETATM   12  C   UNK N   1      33.694  16.043   8.932  0.00  0.00     0.166 C 
HETATM   13  C   UNK N   1      32.932  15.302   7.787  0.00  0.00     0.077 C 
HETATM   14  O   UNK N   1      27.091  20.051   6.740  0.00  0.00    -0.259 OA
ENDROOT
BRANCH   9  15
HETATM   15  C   UNK N   1      26.874  18.300   4.492  0.00  0.00     0.003 C 
HETATM   16  C   UNK N   1      27.111  19.603   3.730  0.00  0.00     0.025 C 
HETATM   17  C   UNK N   1      27.050  17.170   3.482  0.00  0.00     0.025 C 
BRANCH  15  18
HETATM   18  C   UNK N   1      25.467  18.185   5.030  0.00  0.00    -0.023 C 
HETATM   19  C   UNK N   1      24.424  18.839   4.514  0.00  0.00     0.008 C 
ENDBRANCH  15  18
ENDBRANCH   9  15
BRANCH  12  20
HETATM   20  C   UNK N   1      34.131  15.106  10.070  0.00  0.00     0.077 C 
HETATM   21  C   UNK N   1      35.348  15.685  10.772  0.00  0.00     0.048 C 
HETATM   22  C   UNK N   1      34.513  13.743   9.518  0.00  0.00     0.048 C 
BRANCH  20  23
HETATM   23  O   UNK N   1      33.101  14.952  10.998  0.00  0.00    -0.388 OA
HETATM   24  H   UNK N   1      32.381  14.591  11.540  0.00  0.00     0.210 HD
ENDBRANCH  20  23
ENDBRANCH  12  20
TORSDOF 4
ENDMDL
