MODEL 1
REMARK VINA RESULT:      -7.4      0.000      0.000
REMARK  5 active torsions:
REMARK  status: ('A' for Active; 'I' for Inactive)
REMARK    1  A    between atoms: C_3  and  S_11 
REMARK    2  A    between atoms: C_6  and  C_7 
REMARK       I    between atoms: C_7  and  N_9 
REMARK    3  A    between atoms: N_9  and  C_10 
REMARK    4  A    between atoms: C_10  and  C_15 
REMARK    5  A    between atoms: S_11  and  N_12 
ROOT
HETATM    1  C   UNK N   1      35.602  15.787  11.594  0.00  0.00     0.018 A 
HETATM    2  C   UNK N   1      35.321  16.817  10.706  0.00  0.00     0.026 A 
HETATM    3  C   UNK N   1      34.988  16.523   9.387  0.00  0.00     0.079 A 
HETATM    4  C   UNK N   1      34.963  15.191   8.948  0.00  0.00     0.026 A 
HETATM    5  C   UNK N   1      35.241  14.151   9.845  0.00  0.00     0.018 A 
HETATM    6  C   UNK N   1      35.543  14.447  11.180  0.00  0.00     0.032 A 
ENDROOT
BRANCH   6   7
HETATM    7  C   UNK N   1      35.674  13.398  12.207  0.00  0.00     0.251 C 
HETATM    8  O   UNK N   1      34.868  12.477  12.282  0.00  0.00    -0.268 OA
HETATM    9  N   UNK N   1      36.643  13.549  13.132  0.00  0.00    -0.353 N 
HETATM   10  H   UNK N   1      37.316  14.245  12.959  0.00  0.00     0.163 HD
BRANCH   9  11
HETATM   11  C   UNK N   1      36.790  12.793  14.347  0.00  0.00     0.161 C 
BRANCH  11  12
HETATM   12  C   UNK N   1      36.624  13.742  15.507  0.00  0.00    -0.041 A 
HETATM   13  C   UNK N   1      35.766  13.417  16.562  0.00  0.00     0.009 A 
HETATM   14  C   UNK N   1      35.614  14.298  17.640  0.00  0.00     0.001 A 
HETATM   15  C   UNK N   1      36.318  15.508  17.667  0.00  0.00     0.000 A 
HETATM   16  C   UNK N   1      37.175  15.840  16.619  0.00  0.00     0.001 A 
HETATM   17  C   UNK N   1      37.327  14.964  15.546  0.00  0.00     0.009 A 
ENDBRANCH  11  12
ENDBRANCH   9  11
ENDBRANCH   6   7
BRANCH   3  18
HETATM   18  S   UNK N   1      34.412  17.835   8.325  0.00  0.00     0.256 S 
HETATM   19  O   UNK N   1      34.699  17.554   6.840  0.00  0.00    -0.201 OA
HETATM   20  O   UNK N   1      35.232  19.114   8.548  0.00  0.00    -0.201 OA
BRANCH  18  21
HETATM   21  N   UNK N   1      32.727  18.351   8.385  0.00  0.00    -0.324 N 
HETATM   22  H   UNK N   1      31.950  18.131   7.763  0.00  0.00     0.169 HD
HETATM   23  H   UNK N   1      32.493  18.966   9.165  0.00  0.00     0.169 HD
ENDBRANCH  18  21
ENDBRANCH   3  18
TORSDOF 5
ENDMDL
MODEL 2
REMARK VINA RESULT:      -7.1      1.362      2.208
REMARK  5 active torsions:
REMARK  status: ('A' for Active; 'I' for Inactive)
REMARK    1  A    between atoms: C_3  and  S_11 
REMARK    2  A    between atoms: C_6  and  C_7 
REMARK       I    between atoms: C_7  and  N_9 
REMARK    3  A    between atoms: N_9  and  C_10 
REMARK    4  A    between atoms: C_10  and  C_15 
REMARK    5  A    between atoms: S_11  and  N_12 
ROOT
HETATM    1  C   UNK N   1      35.858  14.254   9.583  0.00  0.00     0.018 A 
HETATM    2  C   UNK N   1      35.229  15.224   8.813  0.00  0.00     0.026 A 
HETATM    3  C   UNK N   1      34.976  16.482   9.354  0.00  0.00     0.079 A 
HETATM    4  C   UNK N   1      35.330  16.760  10.682  0.00  0.00     0.026 A 
HETATM    5  C   UNK N   1      35.968  15.784  11.458  0.00  0.00     0.018 A 
HETATM    6  C   UNK N   1      36.253  14.530  10.902  0.00  0.00     0.032 A 
ENDROOT
BRANCH   6   7
HETATM    7  C   UNK N   1      37.072  13.527  11.604  0.00  0.00     0.251 C 
HETATM    8  O   UNK N   1      37.925  12.875  11.013  0.00  0.00    -0.268 OA
HETATM    9  N   UNK N   1      36.772  13.270  12.893  0.00  0.00    -0.353 N 
HETATM   10  H   UNK N   1      36.154  13.893  13.337  0.00  0.00     0.163 HD
BRANCH   9  11
HETATM   11  C   UNK N   1      37.267  12.174  13.684  0.00  0.00     0.161 C 
BRANCH  11  12
HETATM   12  C   UNK N   1      36.559  12.206  15.016  0.00  0.00    -0.041 A 
HETATM   13  C   UNK N   1      36.004  13.399  15.486  0.00  0.00     0.009 A 
HETATM   14  C   UNK N   1      35.346  13.428  16.722  0.00  0.00     0.001 A 
HETATM   15  C   UNK N   1      35.240  12.264  17.492  0.00  0.00     0.000 A 
HETATM   16  C   UNK N   1      35.791  11.069  17.030  0.00  0.00     0.001 A 
HETATM   17  C   UNK N   1      36.447  11.041  15.801  0.00  0.00     0.009 A 
ENDBRANCH  11  12
ENDBRANCH   9  11
ENDBRANCH   6   7
BRANCH   3  18
HETATM   18  S   UNK N   1      34.379  17.780   8.287  0.00  0.00     0.256 S 
HETATM   19  O   UNK N   1      34.678  17.501   6.804  0.00  0.00    -0.201 OA
HETATM   20  O   UNK N   1      35.173  19.075   8.510  0.00  0.00    -0.201 OA
BRANCH  18  21
HETATM   21  N   UNK N   1      32.684  18.264   8.339  0.00  0.00    -0.324 N 
HETATM   22  H   UNK N   1      31.995  18.325   7.590  0.00  0.00     0.169 HD
HETATM   23  H   UNK N   1      32.339  18.522   9.263  0.00  0.00     0.169 HD
ENDBRANCH  18  21
ENDBRANCH   3  18
TORSDOF 5
ENDMDL
MODEL 3
REMARK VINA RESULT:      -6.7      7.704     11.626
REMARK  5 active torsions:
REMARK  status: ('A' for Active; 'I' for Inactive)
REMARK    1  A    between atoms: C_3  and  S_11 
REMARK    2  A    between atoms: C_6  and  C_7 
REMARK       I    between atoms: C_7  and  N_9 
REMARK    3  A    between atoms: N_9  and  C_10 
REMARK    4  A    between atoms: C_10  and  C_15 
REMARK    5  A    between atoms: S_11  and  N_12 
ROOT
HETATM    1  C   UNK N   1      30.590  17.130   6.315  0.00  0.00     0.018 A 
HETATM    2  C   UNK N   1      31.937  17.241   6.633  0.00  0.00     0.026 A 
HETATM    3  C   UNK N   1      32.317  17.758   7.868  0.00  0.00     0.079 A 
HETATM    4  C   UNK N   1      31.343  18.191   8.779  0.00  0.00     0.026 A 
HETATM    5  C   UNK N   1      29.983  18.074   8.462  0.00  0.00     0.018 A 
HETATM    6  C   UNK N   1      29.601  17.522   7.232  0.00  0.00     0.032 A 
ENDROOT
BRANCH   6   7
HETATM    7  C   UNK N   1      28.197  17.214   6.912  0.00  0.00     0.251 C 
HETATM    8  O   UNK N   1      27.510  16.526   7.660  0.00  0.00    -0.268 OA
HETATM    9  N   UNK N   1      27.727  17.618   5.715  0.00  0.00    -0.353 N 
HETATM   10  H   UNK N   1      28.288  18.249   5.209  0.00  0.00     0.163 HD
BRANCH   9  11
HETATM   11  C   UNK N   1      26.489  17.217   5.102  0.00  0.00     0.161 C 
BRANCH  11  12
HETATM   12  C   UNK N   1      25.931  18.406   4.361  0.00  0.00    -0.041 A 
HETATM   13  C   UNK N   1      26.789  19.394   3.872  0.00  0.00     0.009 A 
HETATM   14  C   UNK N   1      26.270  20.497   3.183  0.00  0.00     0.001 A 
HETATM   15  C   UNK N   1      24.890  20.616   2.980  0.00  0.00     0.000 A 
HETATM   16  C   UNK N   1      24.026  19.636   3.466  0.00  0.00     0.001 A 
HETATM   17  C   UNK N   1      24.543  18.538   4.152  0.00  0.00     0.009 A 
ENDBRANCH  11  12
ENDBRANCH   9  11
ENDBRANCH   6   7
BRANCH   3  18
HETATM   18  S   UNK N   1      34.034  17.684   8.348  0.00  0.00     0.256 S 
HETATM   19  O   UNK N   1      34.738  19.044   8.208  0.00  0.00    -0.201 OA
HETATM   20  O   UNK N   1      34.838  16.831   7.357  0.00  0.00    -0.201 OA
BRANCH  18  21
HETATM   21  N   UNK N   1      34.485  17.085   9.943  0.00  0.00    -0.324 N 
HETATM   22  H   UNK N   1      34.843  16.174  10.226  0.00  0.00     0.169 HD
HETATM   23  H   UNK N   1      34.369  17.756  10.703  0.00  0.00     0.169 HD
ENDBRANCH  18  21
ENDBRANCH   3  18
TORSDOF 5
ENDMDL
MODEL 4
REMARK VINA RESULT:      -6.6      3.787      8.030
REMARK  5 active torsions:
REMARK  status: ('A' for Active; 'I' for Inactive)
REMARK    1  A    between atoms: C_3  and  S_11 
REMARK    2  A    between atoms: C_6  and  C_7 
REMARK       I    between atoms: C_7  and  N_9 
REMARK    3  A    between atoms: N_9  and  C_10 
REMARK    4  A    between atoms: C_10  and  C_15 
REMARK    5  A    between atoms: S_11  and  N_12 
ROOT
HETATM    1  C   UNK N   1      34.564  14.809   9.193  0.00  0.00     0.018 A 
HETATM    2  C   UNK N   1      35.032  14.128  10.309  0.00  0.00     0.026 A 
HETATM    3  C   UNK N   1      35.634  14.832  11.348  0.00  0.00     0.079 A 
HETATM    4  C   UNK N   1      35.792  16.222  11.257  0.00  0.00     0.026 A 
HETATM    5  C   UNK N   1      35.316  16.911  10.134  0.00  0.00     0.018 A 
HETATM    6  C   UNK N   1      34.680  16.205   9.104  0.00  0.00     0.032 A 
ENDROOT
BRANCH   6   7
HETATM    7  C   UNK N   1      34.007  16.886   7.984  0.00  0.00     0.251 C 
HETATM    8  O   UNK N   1      34.535  17.827   7.402  0.00  0.00    -0.268 OA
HETATM    9  N   UNK N   1      32.744  16.513   7.697  0.00  0.00    -0.353 N 
HETATM   10  H   UNK N   1      32.416  15.690   8.126  0.00  0.00     0.163 HD
BRANCH   9  11
HETATM   11  C   UNK N   1      31.826  17.199   6.827  0.00  0.00     0.161 C 
BRANCH  11  12
HETATM   12  C   UNK N   1      30.590  17.533   7.624  0.00  0.00    -0.041 A 
HETATM   13  C   UNK N   1      30.704  18.192   8.851  0.00  0.00     0.009 A 
HETATM   14  C   UNK N   1      29.556  18.503   9.590  0.00  0.00     0.001 A 
HETATM   15  C   UNK N   1      28.290  18.156   9.106  0.00  0.00     0.000 A 
HETATM   16  C   UNK N   1      28.167  17.499   7.883  0.00  0.00     0.001 A 
HETATM   17  C   UNK N   1      29.309  17.188   7.147  0.00  0.00     0.009 A 
ENDBRANCH  11  12
ENDBRANCH   9  11
ENDBRANCH   6   7
BRANCH   3  18
HETATM   18  S   UNK N   1      36.022  13.976  12.865  0.00  0.00     0.256 S 
HETATM   19  O   UNK N   1      36.886  12.727  12.626  0.00  0.00    -0.201 OA
HETATM   20  O   UNK N   1      34.759  13.352  13.474  0.00  0.00    -0.201 OA
BRANCH  18  21
HETATM   21  N   UNK N   1      36.800  14.834  14.194  0.00  0.00    -0.324 N 
HETATM   22  H   UNK N   1      37.017  15.824  14.300  0.00  0.00     0.169 HD
HETATM   23  H   UNK N   1      37.075  14.247  14.982  0.00  0.00     0.169 HD
ENDBRANCH  18  21
ENDBRANCH   3  18
TORSDOF 5
ENDMDL
MODEL 5
REMARK VINA RESULT:      -6.6     10.570     13.050
REMARK  5 active torsions:
REMARK  status: ('A' for Active; 'I' for Inactive)
REMARK    1  A    between atoms: C_3  and  S_11 
REMARK    2  A    between atoms: C_6  and  C_7 
REMARK       I    between atoms: C_7  and  N_9 
REMARK    3  A    between atoms: N_9  and  C_10 
REMARK    4  A    between atoms: C_10  and  C_15 
REMARK    5  A    between atoms: S_11  and  N_12 
ROOT
HETATM    1  C   UNK N   1      24.507  18.359   4.674  0.00  0.00     0.018 A 
HETATM    2  C   UNK N   1      23.215  18.664   4.267  0.00  0.00     0.026 A 
HETATM    3  C   UNK N   1      22.991  19.755   3.430  0.00  0.00     0.079 A 
HETATM    4  C   UNK N   1      24.064  20.559   3.021  0.00  0.00     0.026 A 
HETATM    5  C   UNK N   1      25.369  20.248   3.427  0.00  0.00     0.018 A 
HETATM    6  C   UNK N   1      25.596  19.131   4.241  0.00  0.00     0.032 A 
ENDROOT
BRANCH   6   7
HETATM    7  C   UNK N   1      26.954  18.653   4.558  0.00  0.00     0.251 C 
HETATM    8  O   UNK N   1      27.936  19.091   3.969  0.00  0.00    -0.268 OA
HETATM    9  N   UNK N   1      27.067  17.637   5.437  0.00  0.00    -0.353 N 
HETATM   10  H   UNK N   1      26.260  17.402   5.949  0.00  0.00     0.163 HD
BRANCH   9  11
HETATM   11  C   UNK N   1      28.250  16.861   5.699  0.00  0.00     0.161 C 
BRANCH  11  12
HETATM   12  C   UNK N   1      28.881  17.389   6.964  0.00  0.00    -0.041 A 
HETATM   13  C   UNK N   1      30.262  17.288   7.153  0.00  0.00     0.009 A 
HETATM   14  C   UNK N   1      30.846  17.781   8.327  0.00  0.00     0.001 A 
HETATM   15  C   UNK N   1      30.053  18.375   9.315  0.00  0.00     0.000 A 
HETATM   16  C   UNK N   1      28.675  18.480   9.134  0.00  0.00     0.001 A 
HETATM   17  C   UNK N   1      28.092  17.989   7.967  0.00  0.00     0.009 A 
ENDBRANCH  11  12
ENDBRANCH   9  11
ENDBRANCH   6   7
BRANCH   3  18
HETATM   18  S   UNK N   1      21.365  19.997   2.737  0.00  0.00     0.256 S 
HETATM   19  O   UNK N   1      21.343  21.108   1.675  0.00  0.00    -0.201 OA
HETATM   20  O   UNK N   1      20.407  20.574   3.789  0.00  0.00    -0.201 OA
BRANCH  18  21
HETATM   21  N   UNK N   1      20.497  18.643   2.016  0.00  0.00    -0.324 N 
HETATM   22  H   UNK N   1      20.300  17.715   2.390  0.00  0.00     0.169 HD
HETATM   23  H   UNK N   1      20.134  18.815   1.079  0.00  0.00     0.169 HD
ENDBRANCH  18  21
ENDBRANCH   3  18
TORSDOF 5
ENDMDL
MODEL 6
REMARK VINA RESULT:      -6.5      6.079      8.846
REMARK  5 active torsions:
REMARK  status: ('A' for Active; 'I' for Inactive)
REMARK    1  A    between atoms: C_3  and  S_11 
REMARK    2  A    between atoms: C_6  and  C_7 
REMARK       I    between atoms: C_7  and  N_9 
REMARK    3  A    between atoms: N_9  and  C_10 
REMARK    4  A    between atoms: C_10  and  C_15 
REMARK    5  A    between atoms: S_11  and  N_12 
ROOT
HETATM    1  C   UNK N   1      35.631  10.731  17.872  0.00  0.00     0.018 A 
HETATM    2  C   UNK N   1      35.856  11.304  16.628  0.00  0.00     0.026 A 
HETATM    3  C   UNK N   1      35.741  12.683  16.468  0.00  0.00     0.079 A 
HETATM    4  C   UNK N   1      35.374  13.488  17.556  0.00  0.00     0.026 A 
HETATM    5  C   UNK N   1      35.152  12.912  18.813  0.00  0.00     0.018 A 
HETATM    6  C   UNK N   1      35.301  11.528  18.980  0.00  0.00     0.032 A 
ENDROOT
BRANCH   6   7
HETATM    7  C   UNK N   1      35.253  10.887  20.305  0.00  0.00     0.251 C 
HETATM    8  O   UNK N   1      36.247  10.363  20.796  0.00  0.00    -0.268 OA
HETATM    9  N   UNK N   1      34.051  10.795  20.910  0.00  0.00    -0.353 N 
HETATM   10  H   UNK N   1      33.317  11.321  20.519  0.00  0.00     0.163 HD
BRANCH   9  11
HETATM   11  C   UNK N   1      33.735  10.004  22.069  0.00  0.00     0.161 C 
BRANCH  11  12
HETATM   12  C   UNK N   1      32.746   8.944  21.653  0.00  0.00    -0.041 A 
HETATM   13  C   UNK N   1      32.595   7.786  22.420  0.00  0.00     0.009 A 
HETATM   14  C   UNK N   1      31.675   6.803  22.033  0.00  0.00     0.001 A 
HETATM   15  C   UNK N   1      30.904   6.974  20.878  0.00  0.00     0.000 A 
HETATM   16  C   UNK N   1      31.049   8.126  20.106  0.00  0.00     0.001 A 
HETATM   17  C   UNK N   1      31.964   9.104  20.490  0.00  0.00     0.009 A 
ENDBRANCH  11  12
ENDBRANCH   9  11
ENDBRANCH   6   7
BRANCH   3  18
HETATM   18  S   UNK N   1      36.251  13.423  14.928  0.00  0.00     0.256 S 
HETATM   19  O   UNK N   1      35.068  13.663  13.975  0.00  0.00    -0.201 OA
HETATM   20  O   UNK N   1      37.097  12.439  14.106  0.00  0.00    -0.201 OA
BRANCH  18  21
HETATM   21  N   UNK N   1      37.166  14.930  14.927  0.00  0.00    -0.324 N 
HETATM   22  H   UNK N   1      37.365  15.577  14.164  0.00  0.00     0.169 HD
HETATM   23  H   UNK N   1      37.556  15.197  15.830  0.00  0.00     0.169 HD
ENDBRANCH  18  21
ENDBRANCH   3  18
TORSDOF 5
ENDMDL
MODEL 7
REMARK VINA RESULT:      -6.3      5.508      7.982
REMARK  5 active torsions:
REMARK  status: ('A' for Active; 'I' for Inactive)
REMARK    1  A    between atoms: C_3  and  S_11 
REMARK    2  A    between atoms: C_6  and  C_7 
REMARK       I    between atoms: C_7  and  N_9 
REMARK    3  A    between atoms: N_9  and  C_10 
REMARK    4  A    between atoms: C_10  and  C_15 
REMARK    5  A    between atoms: S_11  and  N_12 
ROOT
HETATM    1  C   UNK N   1      36.430  10.671  16.498  0.00  0.00     0.018 A 
HETATM    2  C   UNK N   1      36.547  11.401  15.323  0.00  0.00     0.026 A 
HETATM    3  C   UNK N   1      35.922  12.641  15.212  0.00  0.00     0.079 A 
HETATM    4  C   UNK N   1      35.154  13.139  16.274  0.00  0.00     0.026 A 
HETATM    5  C   UNK N   1      35.040  12.405  17.462  0.00  0.00     0.018 A 
HETATM    6  C   UNK N   1      35.697  11.173  17.585  0.00  0.00     0.032 A 
ENDROOT
BRANCH   6   7
HETATM    7  C   UNK N   1      35.759  10.439  18.861  0.00  0.00     0.251 C 
HETATM    8  O   UNK N   1      36.756   9.802  19.181  0.00  0.00    -0.268 OA
HETATM    9  N   UNK N   1      34.640  10.399  19.611  0.00  0.00    -0.353 N 
HETATM   10  H   UNK N   1      33.912  11.010  19.355  0.00  0.00     0.163 HD
BRANCH   9  11
HETATM   11  C   UNK N   1      34.402   9.550  20.748  0.00  0.00     0.161 C 
BRANCH  11  12
HETATM   12  C   UNK N   1      33.284   8.601  20.395  0.00  0.00    -0.041 A 
HETATM   13  C   UNK N   1      33.573   7.362  19.818  0.00  0.00     0.009 A 
HETATM   14  C   UNK N   1      32.534   6.480  19.492  0.00  0.00     0.001 A 
HETATM   15  C   UNK N   1      31.204   6.835  19.741  0.00  0.00     0.000 A 
HETATM   16  C   UNK N   1      30.907   8.070  20.315  0.00  0.00     0.001 A 
HETATM   17  C   UNK N   1      31.940   8.948  20.640  0.00  0.00     0.009 A 
ENDBRANCH  11  12
ENDBRANCH   9  11
ENDBRANCH   6   7
BRANCH   3  18
HETATM   18  S   UNK N   1      36.268  13.662  13.791  0.00  0.00     0.256 S 
HETATM   19  O   UNK N   1      36.691  15.087  14.185  0.00  0.00    -0.201 OA
HETATM   20  O   UNK N   1      34.982  13.943  12.999  0.00  0.00    -0.201 OA
BRANCH  18  21
HETATM   21  N   UNK N   1      37.446  13.141  12.588  0.00  0.00    -0.324 N 
HETATM   22  H   UNK N   1      37.780  12.205  12.358  0.00  0.00     0.169 HD
HETATM   23  H   UNK N   1      37.857  13.892  12.034  0.00  0.00     0.169 HD
ENDBRANCH  18  21
ENDBRANCH   3  18
TORSDOF 5
ENDMDL
MODEL 8
REMARK VINA RESULT:      -6.3      5.848      9.929
REMARK  5 active torsions:
REMARK  status: ('A' for Active; 'I' for Inactive)
REMARK    1  A    between atoms: C_3  and  S_11 
REMARK    2  A    between atoms: C_6  and  C_7 
REMARK       I    between atoms: C_7  and  N_9 
REMARK    3  A    between atoms: N_9  and  C_10 
REMARK    4  A    between atoms: C_10  and  C_15 
REMARK    5  A    between atoms: S_11  and  N_12 
ROOT
HETATM    1  C   UNK N   1      32.340  17.721   7.561  0.00  0.00     0.018 A 
HETATM    2  C   UNK N   1      33.194  17.443   8.620  0.00  0.00     0.026 A 
HETATM    3  C   UNK N   1      33.766  16.179   8.736  0.00  0.00     0.079 A 
HETATM    4  C   UNK N   1      33.458  15.180   7.802  0.00  0.00     0.026 A 
HETATM    5  C   UNK N   1      32.601  15.460   6.730  0.00  0.00     0.018 A 
HETATM    6  C   UNK N   1      32.053  16.743   6.595  0.00  0.00     0.032 A 
ENDROOT
BRANCH   6   7
HETATM    7  C   UNK N   1      31.288  17.149   5.403  0.00  0.00     0.251 C 
HETATM    8  O   UNK N   1      31.839  17.678   4.444  0.00  0.00    -0.268 OA
HETATM    9  N   UNK N   1      29.947  17.023   5.451  0.00  0.00    -0.353 N 
HETATM   10  H   UNK N   1      29.577  16.500   6.198  0.00  0.00     0.163 HD
BRANCH   9  11
HETATM   11  C   UNK N   1      29.002  17.577   4.518  0.00  0.00     0.161 C 
BRANCH  11  12
HETATM   12  C   UNK N   1      28.318  18.742   5.188  0.00  0.00    -0.041 A 
HETATM   13  C   UNK N   1      28.232  18.798   6.582  0.00  0.00     0.009 A 
HETATM   14  C   UNK N   1      27.598  19.881   7.203  0.00  0.00     0.001 A 
HETATM   15  C   UNK N   1      27.047  20.913   6.434  0.00  0.00     0.000 A 
HETATM   16  C   UNK N   1      27.127  20.865   5.043  0.00  0.00     0.001 A 
HETATM   17  C   UNK N   1      27.758  19.786   4.424  0.00  0.00     0.009 A 
ENDBRANCH  11  12
ENDBRANCH   9  11
ENDBRANCH   6   7
BRANCH   3  18
HETATM   18  S   UNK N   1      35.030  15.909   9.965  0.00  0.00     0.256 S 
HETATM   19  O   UNK N   1      34.454  15.375  11.288  0.00  0.00    -0.201 OA
HETATM   20  O   UNK N   1      35.636  17.243  10.424  0.00  0.00    -0.201 OA
BRANCH  18  21
HETATM   21  N   UNK N   1      36.411  14.875   9.606  0.00  0.00    -0.324 N 
HETATM   22  H   UNK N   1      36.633  13.936   9.936  0.00  0.00     0.169 HD
HETATM   23  H   UNK N   1      37.096  15.279   8.967  0.00  0.00     0.169 HD
ENDBRANCH  18  21
ENDBRANCH   3  18
TORSDOF 5
ENDMDL
MODEL 9
REMARK VINA RESULT:      -6.3      3.430      8.040
REMARK  5 active torsions:
REMARK  status: ('A' for Active; 'I' for Inactive)
REMARK    1  A    between atoms: C_3  and  S_11 
REMARK    2  A    between atoms: C_6  and  C_7 
REMARK       I    between atoms: C_7  and  N_9 
REMARK    3  A    between atoms: N_9  and  C_10 
REMARK    4  A    between atoms: C_10  and  C_15 
REMARK    5  A    between atoms: S_11  and  N_12 
ROOT
HETATM    1  C   UNK N   1      34.820  14.258   9.974  0.00  0.00     0.018 A 
HETATM    2  C   UNK N   1      34.722  13.115  10.756  0.00  0.00     0.026 A 
HETATM    3  C   UNK N   1      35.101  13.157  12.095  0.00  0.00     0.079 A 
HETATM    4  C   UNK N   1      35.607  14.343  12.646  0.00  0.00     0.026 A 
HETATM    5  C   UNK N   1      35.702  15.498  11.858  0.00  0.00     0.018 A 
HETATM    6  C   UNK N   1      35.288  15.463  10.520  0.00  0.00     0.032 A 
ENDROOT
BRANCH   6   7
HETATM    7  C   UNK N   1      35.200  16.679   9.693  0.00  0.00     0.251 C 
HETATM    8  O   UNK N   1      35.523  17.776  10.137  0.00  0.00    -0.268 OA
HETATM    9  N   UNK N   1      34.646  16.562   8.470  0.00  0.00    -0.353 N 
HETATM   10  H   UNK N   1      34.504  15.649   8.133  0.00  0.00     0.163 HD
BRANCH   9  11
HETATM   11  C   UNK N   1      34.239  17.641   7.609  0.00  0.00     0.161 C 
BRANCH  11  12
HETATM   12  C   UNK N   1      32.747  17.538   7.409  0.00  0.00    -0.041 A 
HETATM   13  C   UNK N   1      31.877  17.818   8.466  0.00  0.00     0.009 A 
HETATM   14  C   UNK N   1      30.492  17.725   8.279  0.00  0.00     0.001 A 
HETATM   15  C   UNK N   1      29.972  17.351   7.034  0.00  0.00     0.000 A 
HETATM   16  C   UNK N   1      30.833  17.070   5.974  0.00  0.00     0.001 A 
HETATM   17  C   UNK N   1      32.211  17.162   6.160  0.00  0.00     0.009 A 
ENDBRANCH  11  12
ENDBRANCH   9  11
ENDBRANCH   6   7
BRANCH   3  18
HETATM   18  S   UNK N   1      34.757  11.752  13.139  0.00  0.00     0.256 S 
HETATM   19  O   UNK N   1      34.171  12.164  14.499  0.00  0.00    -0.201 OA
HETATM   20  O   UNK N   1      36.060  11.066  13.573  0.00  0.00    -0.201 OA
BRANCH  18  21
HETATM   21  N   UNK N   1      33.721  10.448  12.559  0.00  0.00    -0.324 N 
HETATM   22  H   UNK N   1      33.110  10.407  11.744  0.00  0.00     0.169 HD
HETATM   23  H   UNK N   1      33.735   9.602  13.129  0.00  0.00     0.169 HD
ENDBRANCH  18  21
ENDBRANCH   3  18
TORSDOF 5
ENDMDL
