MODEL 1
REMARK VINA RESULT:      -8.7      0.000      0.000
REMARK  5 active torsions:
REMARK  status: ('A' for Active; 'I' for Inactive)
REMARK    1  A    between atoms: C_5  and  C_26 
REMARK    2  A    between atoms: C_7  and  S_19 
REMARK    3  A    between atoms: C_8  and  C_11 
REMARK    4  A    between atoms: N_18  and  S_19 
REMARK    5  A    between atoms: C_26  and  O_28 
ROOT
HETATM    1  O   UNK N   1      28.245  16.162   4.576  0.00  0.00    -0.206 OA
HETATM    2  S   UNK N   1      28.124  17.426   5.448  0.00  0.00     0.244 S 
HETATM    3  O   UNK N   1      29.126  18.276   4.653  0.00  0.00    -0.206 OA
ENDROOT
BRANCH   2   4
HETATM    4  C   UNK N   1      26.523  18.059   4.900  0.00  0.00     0.074 A 
HETATM    5  C   UNK N   1      25.470  17.146   4.969  0.00  0.00     0.025 A 
HETATM    6  C   UNK N   1      24.200  17.475   4.528  0.00  0.00     0.014 A 
HETATM    7  C   UNK N   1      23.937  18.735   3.990  0.00  0.00    -0.026 A 
HETATM    8  C   UNK N   1      24.992  19.671   3.901  0.00  0.00     0.014 A 
HETATM    9  C   UNK N   1      26.290  19.331   4.349  0.00  0.00     0.025 A 
BRANCH   7  10
HETATM   10  C   UNK N   1      22.545  19.047   3.571  0.00  0.00    -0.026 A 
HETATM   11  C   UNK N   1      22.275  20.253   2.891  0.00  0.00     0.012 A 
HETATM   12  C   UNK N   1      20.986  20.552   2.449  0.00  0.00     0.001 A 
HETATM   13  C   UNK N   1      19.947  19.650   2.678  0.00  0.00     0.000 A 
HETATM   14  C   UNK N   1      20.198  18.452   3.357  0.00  0.00     0.001 A 
HETATM   15  C   UNK N   1      21.492  18.149   3.801  0.00  0.00     0.012 A 
ENDBRANCH   7  10
ENDBRANCH   2   4
BRANCH   2  16
HETATM   16  N   UNK N   1      29.108  16.906   6.862  0.00  0.00    -0.187 NA
HETATM   17  C   UNK N   1      30.358  16.362   6.259  0.00  0.00     0.147 C 
HETATM   18  C   UNK N   1      31.666  16.922   6.738  0.00  0.00    -0.038 A 
HETATM   19  C   UNK N   1      32.823  16.758   5.964  0.00  0.00     0.009 A 
HETATM   20  C   UNK N   1      31.740  17.586   7.959  0.00  0.00    -0.049 A 
HETATM   21  C   UNK N   1      34.049  17.256   6.417  0.00  0.00     0.001 A 
HETATM   22  C   UNK N   1      34.121  17.916   7.648  0.00  0.00     0.001 A 
HETATM   23  C   UNK N   1      32.964  18.082   8.420  0.00  0.00     0.008 A 
HETATM   24  C   UNK N   1      30.506  17.721   8.769  0.00  0.00     0.070 C 
HETATM   25  C   UNK N   1      29.286  17.986   7.869  0.00  0.00     0.176 C 
BRANCH  25  26
HETATM   26  C   UNK N   1      28.063  18.058   8.757  0.00  0.00     0.159 C 
HETATM   27  O   UNK N   1      27.767  17.119   9.470  0.00  0.00    -0.649 OA
BRANCH  26  28
HETATM   28  O   UNK N   1      27.288  19.167   8.775  0.00  0.00    -0.775 OA
HETATM   29  H   UNK N   1      27.424  19.902   8.209  0.00  0.00     0.167 HD
ENDBRANCH  26  28
ENDBRANCH  25  26
ENDBRANCH   2  16
TORSDOF 5
ENDMDL
MODEL 2
REMARK VINA RESULT:      -8.4      7.945     13.334
REMARK  5 active torsions:
REMARK  status: ('A' for Active; 'I' for Inactive)
REMARK    1  A    between atoms: C_5  and  C_26 
REMARK    2  A    between atoms: C_7  and  S_19 
REMARK    3  A    between atoms: C_8  and  C_11 
REMARK    4  A    between atoms: N_18  and  S_19 
REMARK    5  A    between atoms: C_26  and  O_28 
ROOT
HETATM    1  O   UNK N   1      36.486  12.107  10.319  0.00  0.00    -0.206 OA
HETATM    2  S   UNK N   1      35.248  12.952  10.676  0.00  0.00     0.244 S 
HETATM    3  O   UNK N   1      34.208  11.978  10.102  0.00  0.00    -0.206 OA
ENDROOT
BRANCH   2   4
HETATM    4  C   UNK N   1      35.145  12.660  12.456  0.00  0.00     0.074 A 
HETATM    5  C   UNK N   1      35.738  13.642  13.252  0.00  0.00     0.025 A 
HETATM    6  C   UNK N   1      35.786  13.521  14.629  0.00  0.00     0.014 A 
HETATM    7  C   UNK N   1      35.247  12.403  15.266  0.00  0.00    -0.026 A 
HETATM    8  C   UNK N   1      34.652  11.392  14.477  0.00  0.00     0.014 A 
HETATM    9  C   UNK N   1      34.607  11.517  13.069  0.00  0.00     0.025 A 
BRANCH   7  10
HETATM   10  C   UNK N   1      35.290  12.346  16.752  0.00  0.00    -0.026 A 
HETATM   11  C   UNK N   1      35.149  13.533  17.499  0.00  0.00     0.012 A 
HETATM   12  C   UNK N   1      35.144  13.504  18.894  0.00  0.00     0.001 A 
HETATM   13  C   UNK N   1      35.277  12.287  19.563  0.00  0.00     0.000 A 
HETATM   14  C   UNK N   1      35.424  11.102  18.834  0.00  0.00     0.001 A 
HETATM   15  C   UNK N   1      35.428  11.129  17.434  0.00  0.00     0.012 A 
ENDBRANCH   7  10
ENDBRANCH   2   4
BRANCH   2  16
HETATM   16  N   UNK N   1      35.355  14.196   9.380  0.00  0.00    -0.187 NA
HETATM   17  C   UNK N   1      34.792  13.521   8.176  0.00  0.00     0.147 C 
HETATM   18  C   UNK N   1      33.670  14.208   7.451  0.00  0.00    -0.038 A 
HETATM   19  C   UNK N   1      32.849  13.478   6.582  0.00  0.00     0.009 A 
HETATM   20  C   UNK N   1      33.456  15.572   7.621  0.00  0.00    -0.049 A 
HETATM   21  C   UNK N   1      31.819  14.118   5.885  0.00  0.00     0.001 A 
HETATM   22  C   UNK N   1      31.611  15.491   6.053  0.00  0.00     0.001 A 
HETATM   23  C   UNK N   1      32.431  16.219   6.924  0.00  0.00     0.008 A 
HETATM   24  C   UNK N   1      34.358  16.324   8.526  0.00  0.00     0.070 C 
HETATM   25  C   UNK N   1      34.718  15.484   9.764  0.00  0.00     0.176 C 
BRANCH  25  26
HETATM   26  C   UNK N   1      35.679  16.293  10.609  0.00  0.00     0.159 C 
HETATM   27  O   UNK N   1      35.282  17.253  11.239  0.00  0.00    -0.649 OA
BRANCH  26  28
HETATM   28  O   UNK N   1      36.987  15.957  10.678  0.00  0.00    -0.775 OA
HETATM   29  H   UNK N   1      37.666  16.564  10.899  0.00  0.00     0.167 HD
ENDBRANCH  26  28
ENDBRANCH  25  26
ENDBRANCH   2  16
TORSDOF 5
ENDMDL
MODEL 3
REMARK VINA RESULT:      -8.2      7.190     11.923
REMARK  5 active torsions:
REMARK  status: ('A' for Active; 'I' for Inactive)
REMARK    1  A    between atoms: C_5  and  C_26 
REMARK    2  A    between atoms: C_7  and  S_19 
REMARK    3  A    between atoms: C_8  and  C_11 
REMARK    4  A    between atoms: N_18  and  S_19 
REMARK    5  A    between atoms: C_26  and  O_28 
ROOT
HETATM    1  O   UNK N   1      36.702  14.008   7.742  0.00  0.00    -0.206 OA
HETATM    2  S   UNK N   1      35.359  14.587   8.225  0.00  0.00     0.244 S 
HETATM    3  O   UNK N   1      34.466  13.561   7.511  0.00  0.00    -0.206 OA
ENDROOT
BRANCH   2   4
HETATM    4  C   UNK N   1      35.346  14.020   9.940  0.00  0.00     0.074 A 
HETATM    5  C   UNK N   1      34.956  12.693  10.122  0.00  0.00     0.025 A 
HETATM    6  C   UNK N   1      34.844  12.141  11.386  0.00  0.00     0.014 A 
HETATM    7  C   UNK N   1      35.112  12.903  12.523  0.00  0.00    -0.026 A 
HETATM    8  C   UNK N   1      35.498  14.254  12.361  0.00  0.00     0.014 A 
HETATM    9  C   UNK N   1      35.608  14.816  11.068  0.00  0.00     0.025 A 
BRANCH   7  10
HETATM   10  C   UNK N   1      35.017  12.247  13.853  0.00  0.00    -0.026 A 
HETATM   11  C   UNK N   1      34.203  11.106  14.011  0.00  0.00     0.012 A 
HETATM   12  C   UNK N   1      34.127  10.444  15.237  0.00  0.00     0.001 A 
HETATM   13  C   UNK N   1      34.865  10.913  16.325  0.00  0.00     0.000 A 
HETATM   14  C   UNK N   1      35.671  12.049  16.185  0.00  0.00     0.001 A 
HETATM   15  C   UNK N   1      35.750  12.713  14.954  0.00  0.00     0.012 A 
ENDBRANCH   7  10
ENDBRANCH   2   4
BRANCH   2  16
HETATM   16  N   UNK N   1      35.242  16.013   7.133  0.00  0.00    -0.187 NA
HETATM   17  C   UNK N   1      35.143  15.423   5.767  0.00  0.00     0.147 C 
HETATM   18  C   UNK N   1      33.987  15.843   4.907  0.00  0.00    -0.038 A 
HETATM   19  C   UNK N   1      33.613  15.061   3.806  0.00  0.00     0.009 A 
HETATM   20  C   UNK N   1      33.297  17.019   5.184  0.00  0.00    -0.049 A 
HETATM   21  C   UNK N   1      32.552  15.461   2.987  0.00  0.00     0.001 A 
HETATM   22  C   UNK N   1      31.866  16.647   3.265  0.00  0.00     0.001 A 
HETATM   23  C   UNK N   1      32.238  17.427   4.366  0.00  0.00     0.008 A 
HETATM   24  C   UNK N   1      33.731  17.841   6.339  0.00  0.00     0.070 C 
HETATM   25  C   UNK N   1      34.152  16.948   7.520  0.00  0.00     0.176 C 
BRANCH  25  26
HETATM   26  C   UNK N   1      34.631  17.852   8.635  0.00  0.00     0.159 C 
HETATM   27  O   UNK N   1      34.507  17.512   9.795  0.00  0.00    -0.649 OA
BRANCH  26  28
HETATM   28  O   UNK N   1      35.207  19.044   8.358  0.00  0.00    -0.775 OA
HETATM   29  H   UNK N   1      36.113  19.229   8.509  0.00  0.00     0.167 HD
ENDBRANCH  26  28
ENDBRANCH  25  26
ENDBRANCH   2  16
TORSDOF 5
ENDMDL
MODEL 4
REMARK VINA RESULT:      -8.0      8.445     13.902
REMARK  5 active torsions:
REMARK  status: ('A' for Active; 'I' for Inactive)
REMARK    1  A    between atoms: C_5  and  C_26 
REMARK    2  A    between atoms: C_7  and  S_19 
REMARK    3  A    between atoms: C_8  and  C_11 
REMARK    4  A    between atoms: N_18  and  S_19 
REMARK    5  A    between atoms: C_26  and  O_28 
ROOT
HETATM    1  O   UNK N   1      34.064  14.812  11.484  0.00  0.00    -0.206 OA
HETATM    2  S   UNK N   1      35.462  14.163  11.481  0.00  0.00     0.244 S 
HETATM    3  O   UNK N   1      36.256  15.475  11.403  0.00  0.00    -0.206 OA
ENDROOT
BRANCH   2   4
HETATM    4  C   UNK N   1      35.617  13.691  13.218  0.00  0.00     0.074 A 
HETATM    5  C   UNK N   1      34.755  12.676  13.635  0.00  0.00     0.025 A 
HETATM    6  C   UNK N   1      34.723  12.253  14.952  0.00  0.00     0.014 A 
HETATM    7  C   UNK N   1      35.551  12.840  15.909  0.00  0.00    -0.026 A 
HETATM    8  C   UNK N   1      36.424  13.878  15.510  0.00  0.00     0.014 A 
HETATM    9  C   UNK N   1      36.452  14.310  14.163  0.00  0.00     0.025 A 
BRANCH   7  10
HETATM   10  C   UNK N   1      35.504  12.317  17.301  0.00  0.00    -0.026 A 
HETATM   11  C   UNK N   1      35.214  13.195  18.365  0.00  0.00     0.012 A 
HETATM   12  C   UNK N   1      35.122  12.724  19.676  0.00  0.00     0.001 A 
HETATM   13  C   UNK N   1      35.317  11.368  19.941  0.00  0.00     0.000 A 
HETATM   14  C   UNK N   1      35.612  10.487  18.895  0.00  0.00     0.001 A 
HETATM   15  C   UNK N   1      35.703  10.958  17.579  0.00  0.00     0.012 A 
ENDBRANCH   7  10
ENDBRANCH   2   4
BRANCH   2  16
HETATM   16  N   UNK N   1      35.516  13.587   9.777  0.00  0.00    -0.187 NA
HETATM   17  C   UNK N   1      34.131  13.808   9.270  0.00  0.00     0.147 C 
HETATM   18  C   UNK N   1      33.968  14.610   8.012  0.00  0.00    -0.038 A 
HETATM   19  C   UNK N   1      32.727  15.181   7.703  0.00  0.00     0.009 A 
HETATM   20  C   UNK N   1      35.039  14.771   7.138  0.00  0.00    -0.049 A 
HETATM   21  C   UNK N   1      32.563  15.909   6.519  0.00  0.00     0.001 A 
HETATM   22  C   UNK N   1      33.639  16.062   5.640  0.00  0.00     0.001 A 
HETATM   23  C   UNK N   1      34.880  15.494   5.951  0.00  0.00     0.008 A 
HETATM   24  C   UNK N   1      36.334  14.133   7.477  0.00  0.00     0.070 C 
HETATM   25  C   UNK N   1      36.608  14.219   8.989  0.00  0.00     0.176 C 
BRANCH  25  26
HETATM   26  C   UNK N   1      37.912  13.504   9.264  0.00  0.00     0.159 C 
HETATM   27  O   UNK N   1      38.207  12.504   8.639  0.00  0.00    -0.649 OA
BRANCH  26  28
HETATM   28  O   UNK N   1      38.768  13.967  10.204  0.00  0.00    -0.775 OA
HETATM   29  H   UNK N   1      39.153  14.821  10.176  0.00  0.00     0.167 HD
ENDBRANCH  26  28
ENDBRANCH  25  26
ENDBRANCH   2  16
TORSDOF 5
ENDMDL
MODEL 5
REMARK VINA RESULT:      -8.0      8.188     13.610
REMARK  5 active torsions:
REMARK  status: ('A' for Active; 'I' for Inactive)
REMARK    1  A    between atoms: C_5  and  C_26 
REMARK    2  A    between atoms: C_7  and  S_19 
REMARK    3  A    between atoms: C_8  and  C_11 
REMARK    4  A    between atoms: N_18  and  S_19 
REMARK    5  A    between atoms: C_26  and  O_28 
ROOT
HETATM    1  O   UNK N   1      37.418  12.500  10.514  0.00  0.00    -0.206 OA
HETATM    2  S   UNK N   1      36.033  13.111  10.799  0.00  0.00     0.244 S 
HETATM    3  O   UNK N   1      35.215  11.888  10.357  0.00  0.00    -0.206 OA
ENDROOT
BRANCH   2   4
HETATM    4  C   UNK N   1      35.985  13.007  12.602  0.00  0.00     0.074 A 
HETATM    5  C   UNK N   1      35.390  11.853  13.113  0.00  0.00     0.025 A 
HETATM    6  C   UNK N   1      35.232  11.666  14.475  0.00  0.00     0.014 A 
HETATM    7  C   UNK N   1      35.658  12.637  15.382  0.00  0.00    -0.026 A 
HETATM    8  C   UNK N   1      36.254  13.819  14.884  0.00  0.00     0.014 A 
HETATM    9  C   UNK N   1      36.411  14.008  13.491  0.00  0.00     0.025 A 
BRANCH   7  10
HETATM   10  C   UNK N   1      35.501  12.364  16.835  0.00  0.00    -0.026 A 
HETATM   11  C   UNK N   1      35.705  11.058  17.325  0.00  0.00     0.012 A 
HETATM   12  C   UNK N   1      35.605  10.782  18.690  0.00  0.00     0.001 A 
HETATM   13  C   UNK N   1      35.302  11.809  19.585  0.00  0.00     0.000 A 
HETATM   14  C   UNK N   1      35.090  13.108  19.111  0.00  0.00     0.001 A 
HETATM   15  C   UNK N   1      35.191  13.388  17.742  0.00  0.00     0.012 A 
ENDBRANCH   7  10
ENDBRANCH   2   4
BRANCH   2  16
HETATM   16  N   UNK N   1      35.889  14.197   9.371  0.00  0.00    -0.187 NA
HETATM   17  C   UNK N   1      35.455  13.295   8.266  0.00  0.00     0.147 C 
HETATM   18  C   UNK N   1      34.216  13.670   7.504  0.00  0.00    -0.038 A 
HETATM   19  C   UNK N   1      33.542  12.704   6.747  0.00  0.00     0.009 A 
HETATM   20  C   UNK N   1      33.747  14.980   7.529  0.00  0.00    -0.049 A 
HETATM   21  C   UNK N   1      32.402  13.054   6.015  0.00  0.00     0.001 A 
HETATM   22  C   UNK N   1      31.937  14.373   6.037  0.00  0.00     0.001 A 
HETATM   23  C   UNK N   1      32.611  15.338   6.796  0.00  0.00     0.008 A 
HETATM   24  C   UNK N   1      34.497  15.987   8.317  0.00  0.00     0.070 C 
HETATM   25  C   UNK N   1      35.022  15.377   9.629  0.00  0.00     0.176 C 
BRANCH  25  26
HETATM   26  C   UNK N   1      35.818  16.444  10.350  0.00  0.00     0.159 C 
HETATM   27  O   UNK N   1      35.381  17.573  10.448  0.00  0.00    -0.649 OA
BRANCH  26  28
HETATM   28  O   UNK N   1      37.020  16.154  10.897  0.00  0.00    -0.775 OA
HETATM   29  H   UNK N   1      37.610  15.517  10.544  0.00  0.00     0.167 HD
ENDBRANCH  26  28
ENDBRANCH  25  26
ENDBRANCH   2  16
TORSDOF 5
ENDMDL
MODEL 6
REMARK VINA RESULT:      -7.7     15.218     16.345
REMARK  5 active torsions:
REMARK  status: ('A' for Active; 'I' for Inactive)
REMARK    1  A    between atoms: C_5  and  C_26 
REMARK    2  A    between atoms: C_7  and  S_19 
REMARK    3  A    between atoms: C_8  and  C_11 
REMARK    4  A    between atoms: N_18  and  S_19 
REMARK    5  A    between atoms: C_26  and  O_28 
ROOT
HETATM    1  O   UNK N   1      40.525  20.783   1.653  0.00  0.00    -0.206 OA
HETATM    2  S   UNK N   1      41.653  21.796   1.382  0.00  0.00     0.244 S 
HETATM    3  O   UNK N   1      42.350  20.980   0.282  0.00  0.00    -0.206 OA
ENDROOT
BRANCH   2   4
HETATM    4  C   UNK N   1      40.755  23.057   0.450  0.00  0.00     0.074 A 
HETATM    5  C   UNK N   1      40.950  24.368   0.889  0.00  0.00     0.025 A 
HETATM    6  C   UNK N   1      40.281  25.430   0.306  0.00  0.00     0.014 A 
HETATM    7  C   UNK N   1      39.380  25.218  -0.737  0.00  0.00    -0.026 A 
HETATM    8  C   UNK N   1      39.159  23.896  -1.188  0.00  0.00     0.014 A 
HETATM    9  C   UNK N   1      39.842  22.813  -0.589  0.00  0.00     0.025 A 
BRANCH   7  10
HETATM   10  C   UNK N   1      38.721  26.401  -1.352  0.00  0.00    -0.026 A 
HETATM   11  C   UNK N   1      38.794  27.653  -0.709  0.00  0.00     0.012 A 
HETATM   12  C   UNK N   1      38.221  28.788  -1.284  0.00  0.00     0.001 A 
HETATM   13  C   UNK N   1      37.567  28.687  -2.513  0.00  0.00     0.000 A 
HETATM   14  C   UNK N   1      37.480  27.449  -3.159  0.00  0.00     0.001 A 
HETATM   15  C   UNK N   1      38.057  26.310  -2.584  0.00  0.00     0.012 A 
ENDBRANCH   7  10
ENDBRANCH   2   4
BRANCH   2  16
HETATM   16  N   UNK N   1      42.695  21.468   2.812  0.00  0.00    -0.187 NA
HETATM   17  C   UNK N   1      42.629  19.989   2.984  0.00  0.00     0.147 C 
HETATM   18  C   UNK N   1      43.926  19.234   3.036  0.00  0.00    -0.038 A 
HETATM   19  C   UNK N   1      43.941  17.853   2.800  0.00  0.00     0.009 A 
HETATM   20  C   UNK N   1      45.112  19.896   3.341  0.00  0.00    -0.049 A 
HETATM   21  C   UNK N   1      45.143  17.141   2.873  0.00  0.00     0.001 A 
HETATM   22  C   UNK N   1      46.332  17.808   3.187  0.00  0.00     0.001 A 
HETATM   23  C   UNK N   1      46.316  19.189   3.420  0.00  0.00     0.008 A 
HETATM   24  C   UNK N   1      45.061  21.352   3.613  0.00  0.00     0.070 C 
HETATM   25  C   UNK N   1      44.057  22.050   2.679  0.00  0.00     0.176 C 
BRANCH  25  26
HETATM   26  C   UNK N   1      44.022  23.517   3.050  0.00  0.00     0.159 C 
HETATM   27  O   UNK N   1      44.441  24.355   2.277  0.00  0.00    -0.649 OA
BRANCH  26  28
HETATM   28  O   UNK N   1      43.519  23.914   4.241  0.00  0.00    -0.775 OA
HETATM   29  H   UNK N   1      44.053  24.139   4.979  0.00  0.00     0.167 HD
ENDBRANCH  26  28
ENDBRANCH  25  26
ENDBRANCH   2  16
TORSDOF 5
ENDMDL
MODEL 7
REMARK VINA RESULT:      -7.7      8.596     13.666
REMARK  5 active torsions:
REMARK  status: ('A' for Active; 'I' for Inactive)
REMARK    1  A    between atoms: C_5  and  C_26 
REMARK    2  A    between atoms: C_7  and  S_19 
REMARK    3  A    between atoms: C_8  and  C_11 
REMARK    4  A    between atoms: N_18  and  S_19 
REMARK    5  A    between atoms: C_26  and  O_28 
ROOT
HETATM    1  O   UNK N   1      35.457  15.243  11.356  0.00  0.00    -0.206 OA
HETATM    2  S   UNK N   1      34.939  13.792  11.387  0.00  0.00     0.244 S 
HETATM    3  O   UNK N   1      36.130  13.171  10.642  0.00  0.00    -0.206 OA
ENDROOT
BRANCH   2   4
HETATM    4  C   UNK N   1      35.261  13.358  13.111  0.00  0.00     0.074 A 
HETATM    5  C   UNK N   1      34.550  12.255  13.587  0.00  0.00     0.025 A 
HETATM    6  C   UNK N   1      34.654  11.844  14.904  0.00  0.00     0.014 A 
HETATM    7  C   UNK N   1      35.470  12.531  15.803  0.00  0.00    -0.026 A 
HETATM    8  C   UNK N   1      36.190  13.658  15.344  0.00  0.00     0.014 A 
HETATM    9  C   UNK N   1      36.080  14.077  13.998  0.00  0.00     0.025 A 
BRANCH   7  10
HETATM   10  C   UNK N   1      35.575  12.019  17.195  0.00  0.00    -0.026 A 
HETATM   11  C   UNK N   1      36.062  10.716  17.424  0.00  0.00     0.012 A 
HETATM   12  C   UNK N   1      36.210  10.226  18.723  0.00  0.00     0.001 A 
HETATM   13  C   UNK N   1      35.876  11.033  19.811  0.00  0.00     0.000 A 
HETATM   14  C   UNK N   1      35.385  12.325  19.598  0.00  0.00     0.001 A 
HETATM   15  C   UNK N   1      35.237  12.819  18.296  0.00  0.00     0.012 A 
ENDBRANCH   7  10
ENDBRANCH   2   4
BRANCH   2  16
HETATM   16  N   UNK N   1      33.695  13.895  10.091  0.00  0.00    -0.187 NA
HETATM   17  C   UNK N   1      33.519  15.359   9.866  0.00  0.00     0.147 C 
HETATM   18  C   UNK N   1      33.677  15.874   8.464  0.00  0.00    -0.038 A 
HETATM   19  C   UNK N   1      33.915  17.236   8.243  0.00  0.00     0.009 A 
HETATM   20  C   UNK N   1      33.564  15.007   7.382  0.00  0.00    -0.049 A 
HETATM   21  C   UNK N   1      34.039  17.725   6.938  0.00  0.00     0.001 A 
HETATM   22  C   UNK N   1      33.918  16.852   5.852  0.00  0.00     0.001 A 
HETATM   23  C   UNK N   1      33.682  15.490   6.074  0.00  0.00     0.008 A 
HETATM   24  C   UNK N   1      33.284  13.575   7.645  0.00  0.00     0.070 C 
HETATM   25  C   UNK N   1      34.044  13.088   8.891  0.00  0.00     0.176 C 
BRANCH  25  26
HETATM   26  C   UNK N   1      33.668  11.641   9.127  0.00  0.00     0.159 C 
HETATM   27  O   UNK N   1      34.510  10.768   9.048  0.00  0.00    -0.649 OA
BRANCH  26  28
HETATM   28  O   UNK N   1      32.395  11.300   9.431  0.00  0.00    -0.775 OA
HETATM   29  H   UNK N   1      31.916  10.632   8.981  0.00  0.00     0.167 HD
ENDBRANCH  26  28
ENDBRANCH  25  26
ENDBRANCH   2  16
TORSDOF 5
ENDMDL
MODEL 8
REMARK VINA RESULT:      -7.6      9.809     13.992
REMARK  5 active torsions:
REMARK  status: ('A' for Active; 'I' for Inactive)
REMARK    1  A    between atoms: C_5  and  C_26 
REMARK    2  A    between atoms: C_7  and  S_19 
REMARK    3  A    between atoms: C_8  and  C_11 
REMARK    4  A    between atoms: N_18  and  S_19 
REMARK    5  A    between atoms: C_26  and  O_28 
ROOT
HETATM    1  O   UNK N   1      38.148  12.701  10.944  0.00  0.00    -0.206 OA
HETATM    2  S   UNK N   1      36.670  13.062  11.185  0.00  0.00     0.244 S 
HETATM    3  O   UNK N   1      36.078  11.843  10.461  0.00  0.00    -0.206 OA
ENDROOT
BRANCH   2   4
HETATM    4  C   UNK N   1      36.498  12.626  12.930  0.00  0.00     0.074 A 
HETATM    5  C   UNK N   1      35.424  13.227  13.588  0.00  0.00     0.025 A 
HETATM    6  C   UNK N   1      35.204  13.030  14.940  0.00  0.00     0.014 A 
HETATM    7  C   UNK N   1      36.062  12.227  15.691  0.00  0.00    -0.026 A 
HETATM    8  C   UNK N   1      37.163  11.618  15.046  0.00  0.00     0.014 A 
HETATM    9  C   UNK N   1      37.387  11.823  13.665  0.00  0.00     0.025 A 
BRANCH   7  10
HETATM   10  C   UNK N   1      35.754  12.017  17.131  0.00  0.00    -0.026 A 
HETATM   11  C   UNK N   1      35.392  13.118  17.933  0.00  0.00     0.012 A 
HETATM   12  C   UNK N   1      35.058  12.945  19.277  0.00  0.00     0.001 A 
HETATM   13  C   UNK N   1      35.078  11.667  19.838  0.00  0.00     0.000 A 
HETATM   14  C   UNK N   1      35.442  10.567  19.055  0.00  0.00     0.001 A 
HETATM   15  C   UNK N   1      35.777  10.738  17.706  0.00  0.00     0.012 A 
ENDBRANCH   7  10
ENDBRANCH   2   4
BRANCH   2  16
HETATM   16  N   UNK N   1      36.478  14.361   9.955  0.00  0.00    -0.187 NA
HETATM   17  C   UNK N   1      37.406  13.966   8.856  0.00  0.00     0.147 C 
HETATM   18  C   UNK N   1      36.840  13.858   7.470  0.00  0.00    -0.038 A 
HETATM   19  C   UNK N   1      37.527  13.131   6.489  0.00  0.00     0.009 A 
HETATM   20  C   UNK N   1      35.646  14.496   7.147  0.00  0.00    -0.049 A 
HETATM   21  C   UNK N   1      37.017  13.047   5.189  0.00  0.00     0.001 A 
HETATM   22  C   UNK N   1      35.820  13.695   4.867  0.00  0.00     0.001 A 
HETATM   23  C   UNK N   1      35.133  14.420   5.848  0.00  0.00     0.008 A 
HETATM   24  C   UNK N   1      34.954  15.281   8.198  0.00  0.00     0.070 C 
HETATM   25  C   UNK N   1      35.060  14.581   9.564  0.00  0.00     0.176 C 
BRANCH  25  26
HETATM   26  C   UNK N   1      34.382  15.463  10.590  0.00  0.00     0.159 C 
HETATM   27  O   UNK N   1      34.950  16.445  11.025  0.00  0.00    -0.649 OA
BRANCH  26  28
HETATM   28  O   UNK N   1      33.137  15.174  11.032  0.00  0.00    -0.775 OA
HETATM   29  H   UNK N   1      32.883  14.329  11.348  0.00  0.00     0.167 HD
ENDBRANCH  26  28
ENDBRANCH  25  26
ENDBRANCH   2  16
TORSDOF 5
ENDMDL
MODEL 9
REMARK VINA RESULT:      -7.5     11.611     13.457
REMARK  5 active torsions:
REMARK  status: ('A' for Active; 'I' for Inactive)
REMARK    1  A    between atoms: C_5  and  C_26 
REMARK    2  A    between atoms: C_7  and  S_19 
REMARK    3  A    between atoms: C_8  and  C_11 
REMARK    4  A    between atoms: N_18  and  S_19 
REMARK    5  A    between atoms: C_26  and  O_28 
ROOT
HETATM    1  O   UNK N   1      32.282  23.665  -3.783  0.00  0.00    -0.206 OA
HETATM    2  S   UNK N   1      30.859  23.146  -3.501  0.00  0.00     0.244 S 
HETATM    3  O   UNK N   1      31.000  23.088  -1.973  0.00  0.00    -0.206 OA
ENDROOT
BRANCH   2   4
HETATM    4  C   UNK N   1      29.895  24.650  -3.769  0.00  0.00     0.074 A 
HETATM    5  C   UNK N   1      30.608  25.842  -3.636  0.00  0.00     0.025 A 
HETATM    6  C   UNK N   1      29.985  27.072  -3.756  0.00  0.00     0.014 A 
HETATM    7  C   UNK N   1      28.616  27.156  -4.007  0.00  0.00    -0.026 A 
HETATM    8  C   UNK N   1      27.873  25.960  -4.133  0.00  0.00     0.014 A 
HETATM    9  C   UNK N   1      28.511  24.704  -4.007  0.00  0.00     0.025 A 
BRANCH   7  10
HETATM   10  C   UNK N   1      28.008  28.503  -4.168  0.00  0.00    -0.026 A 
HETATM   11  C   UNK N   1      26.802  28.808  -3.503  0.00  0.00     0.012 A 
HETATM   12  C   UNK N   1      26.231  30.077  -3.602  0.00  0.00     0.001 A 
HETATM   13  C   UNK N   1      26.859  31.062  -4.366  0.00  0.00     0.000 A 
HETATM   14  C   UNK N   1      28.052  30.772  -5.037  0.00  0.00     0.001 A 
HETATM   15  C   UNK N   1      28.627  29.499  -4.937  0.00  0.00     0.012 A 
ENDBRANCH   7  10
ENDBRANCH   2   4
BRANCH   2  16
HETATM   16  N   UNK N   1      31.076  21.421  -3.966  0.00  0.00    -0.187 NA
HETATM   17  C   UNK N   1      29.955  21.151  -4.910  0.00  0.00     0.147 C 
HETATM   18  C   UNK N   1      30.299  20.587  -6.259  0.00  0.00    -0.038 A 
HETATM   19  C   UNK N   1      29.378  20.678  -7.311  0.00  0.00     0.009 A 
HETATM   20  C   UNK N   1      31.521  19.953  -6.464  0.00  0.00    -0.049 A 
HETATM   21  C   UNK N   1      29.683  20.133  -8.562  0.00  0.00     0.001 A 
HETATM   22  C   UNK N   1      30.909  19.490  -8.762  0.00  0.00     0.001 A 
HETATM   23  C   UNK N   1      31.830  19.401  -7.711  0.00  0.00     0.008 A 
HETATM   24  C   UNK N   1      32.465  19.846  -5.326  0.00  0.00     0.070 C 
HETATM   25  C   UNK N   1      32.443  21.128  -4.474  0.00  0.00     0.176 C 
BRANCH  25  26
HETATM   26  C   UNK N   1      33.386  20.924  -3.308  0.00  0.00     0.159 C 
HETATM   27  O   UNK N   1      34.553  20.650  -3.504  0.00  0.00    -0.649 OA
BRANCH  26  28
HETATM   28  O   UNK N   1      32.945  21.049  -2.035  0.00  0.00    -0.775 OA
HETATM   29  H   UNK N   1      32.224  20.561  -1.687  0.00  0.00     0.167 HD
ENDBRANCH  26  28
ENDBRANCH  25  26
ENDBRANCH   2  16
TORSDOF 5
ENDMDL
