MODEL 1
REMARK VINA RESULT:      -5.0      0.000      0.000
REMARK  6 active torsions:
REMARK  status: ('A' for Active; 'I' for Inactive)
REMARK    1  A    between atoms: C_1  and  O_3 
REMARK    2  A    between atoms: C_1  and  C_4 
REMARK    3  A    between atoms: C_4  and  C_5 
REMARK    4  A    between atoms: C_4  and  C_12 
REMARK    5  A    between atoms: C_5  and  C_6 
REMARK    6  A    between atoms: C_12  and  S_13 
ROOT
HETATM    1  C   UNK N   1      33.302  17.933   7.568  0.00  0.00     0.097 C 
ENDROOT
BRANCH   1   2
HETATM    2  C   UNK N   1      34.410  18.182   8.563  0.00  0.00     0.144 C 
HETATM    3  O   UNK N   1      35.228  19.080   8.383  0.00  0.00    -0.650 OA
BRANCH   2   4
HETATM    4  O   UNK N   1      34.503  17.424   9.668  0.00  0.00    -0.776 OA
HETATM    5  H   UNK N   1      34.599  17.792  10.524  0.00  0.00     0.167 HD
ENDBRANCH   2   4
ENDBRANCH   1   2
BRANCH   1   6
HETATM    6  C   UNK N   1      32.260  16.993   8.201  0.00  0.00     0.054 C 
BRANCH   6   7
HETATM    7  C   UNK N   1      30.854  17.500   8.105  0.00  0.00    -0.057 A 
HETATM    8  C   UNK N   1      30.103  17.303   6.942  0.00  0.00     0.007 A 
HETATM    9  C   UNK N   1      28.792  17.788   6.867  0.00  0.00     0.001 A 
HETATM   10  C   UNK N   1      28.234  18.473   7.953  0.00  0.00     0.000 A 
HETATM   11  C   UNK N   1      28.988  18.680   9.109  0.00  0.00     0.001 A 
HETATM   12  C   UNK N   1      30.296  18.199   9.183  0.00  0.00     0.007 A 
ENDBRANCH   6   7
ENDBRANCH   1   6
BRANCH   1  13
HETATM   13  C   UNK N   1      33.822  17.420   6.212  0.00  0.00     0.086 C 
BRANCH  13  14
HETATM   14  S   UNK N   1      34.530  15.738   6.276  0.00  0.00    -0.181 SA
HETATM   15  H   UNK N   1      35.216  14.952   7.149  0.00  0.00     0.101 HD
ENDBRANCH  13  14
ENDBRANCH   1  13
TORSDOF 6
ENDMDL
MODEL 2
REMARK VINA RESULT:      -4.9      2.912      4.502
REMARK  6 active torsions:
REMARK  status: ('A' for Active; 'I' for Inactive)
REMARK    1  A    between atoms: C_1  and  O_3 
REMARK    2  A    between atoms: C_1  and  C_4 
REMARK    3  A    between atoms: C_4  and  C_5 
REMARK    4  A    between atoms: C_4  and  C_12 
REMARK    5  A    between atoms: C_5  and  C_6 
REMARK    6  A    between atoms: C_12  and  S_13 
ROOT
HETATM    1  C   UNK N   1      33.932  17.046   7.929  0.00  0.00     0.097 C 
ENDROOT
BRANCH   1   2
HETATM    2  C   UNK N   1      34.837  17.884   8.800  0.00  0.00     0.144 C 
HETATM    3  O   UNK N   1      35.272  17.445   9.861  0.00  0.00    -0.650 OA
BRANCH   2   4
HETATM    4  O   UNK N   1      35.184  19.121   8.411  0.00  0.00    -0.776 OA
HETATM    5  H   UNK N   1      35.003  19.881   8.930  0.00  0.00     0.167 HD
ENDBRANCH   2   4
ENDBRANCH   1   2
BRANCH   1   6
HETATM    6  C   UNK N   1      33.528  17.864   6.690  0.00  0.00     0.054 C 
BRANCH   6   7
HETATM    7  C   UNK N   1      33.479  17.061   5.426  0.00  0.00    -0.057 A 
HETATM    8  C   UNK N   1      34.137  15.830   5.338  0.00  0.00     0.007 A 
HETATM    9  C   UNK N   1      34.086  15.094   4.149  0.00  0.00     0.001 A 
HETATM   10  C   UNK N   1      33.381  15.591   3.047  0.00  0.00     0.000 A 
HETATM   11  C   UNK N   1      32.735  16.826   3.130  0.00  0.00     0.001 A 
HETATM   12  C   UNK N   1      32.788  17.560   4.316  0.00  0.00     0.007 A 
ENDBRANCH   6   7
ENDBRANCH   1   6
BRANCH   1  13
HETATM   13  C   UNK N   1      32.718  16.486   8.694  0.00  0.00     0.086 C 
BRANCH  13  14
HETATM   14  S   UNK N   1      31.182  17.441   8.451  0.00  0.00    -0.181 SA
HETATM   15  H   UNK N   1      29.963  17.284   7.866  0.00  0.00     0.101 HD
ENDBRANCH  13  14
ENDBRANCH   1  13
TORSDOF 6
ENDMDL
MODEL 3
REMARK VINA RESULT:      -4.8      3.408      4.809
REMARK  6 active torsions:
REMARK  status: ('A' for Active; 'I' for Inactive)
REMARK    1  A    between atoms: C_1  and  O_3 
REMARK    2  A    between atoms: C_1  and  C_4 
REMARK    3  A    between atoms: C_4  and  C_5 
REMARK    4  A    between atoms: C_4  and  C_12 
REMARK    5  A    between atoms: C_5  and  C_6 
REMARK    6  A    between atoms: C_12  and  S_13 
ROOT
HETATM    1  C   UNK N   1      29.376  18.119   7.920  0.00  0.00     0.097 C 
ENDROOT
BRANCH   1   2
HETATM    2  C   UNK N   1      28.804  18.318   9.303  0.00  0.00     0.144 C 
HETATM    3  O   UNK N   1      29.514  18.702  10.228  0.00  0.00    -0.650 OA
BRANCH   2   4
HETATM    4  O   UNK N   1      27.501  18.085   9.530  0.00  0.00    -0.776 OA
HETATM    5  H   UNK N   1      27.187  17.269   9.866  0.00  0.00     0.167 HD
ENDBRANCH   2   4
ENDBRANCH   1   2
BRANCH   1   6
HETATM    6  C   UNK N   1      28.257  17.642   6.977  0.00  0.00     0.054 C 
BRANCH   6   7
HETATM    7  C   UNK N   1      27.777  18.697   6.028  0.00  0.00    -0.057 A 
HETATM    8  C   UNK N   1      27.485  19.986   6.485  0.00  0.00     0.007 A 
HETATM    9  C   UNK N   1      27.033  20.960   5.587  0.00  0.00     0.001 A 
HETATM   10  C   UNK N   1      26.868  20.643   4.234  0.00  0.00     0.000 A 
HETATM   11  C   UNK N   1      27.147  19.352   3.780  0.00  0.00     0.001 A 
HETATM   12  C   UNK N   1      27.596  18.381   4.677  0.00  0.00     0.007 A 
ENDBRANCH   6   7
ENDBRANCH   1   6
BRANCH   1  13
HETATM   13  C   UNK N   1      30.601  17.186   7.909  0.00  0.00     0.086 C 
BRANCH  13  14
HETATM   14  S   UNK N   1      31.344  16.954   6.258  0.00  0.00    -0.181 SA
HETATM   15  H   UNK N   1      30.939  16.797   4.969  0.00  0.00     0.101 HD
ENDBRANCH  13  14
ENDBRANCH   1  13
TORSDOF 6
ENDMDL
MODEL 4
REMARK VINA RESULT:      -4.8     13.660     14.684
REMARK  6 active torsions:
REMARK  status: ('A' for Active; 'I' for Inactive)
REMARK    1  A    between atoms: C_1  and  O_3 
REMARK    2  A    between atoms: C_1  and  C_4 
REMARK    3  A    between atoms: C_4  and  C_5 
REMARK    4  A    between atoms: C_4  and  C_12 
REMARK    5  A    between atoms: C_5  and  C_6 
REMARK    6  A    between atoms: C_12  and  S_13 
ROOT
HETATM    1  C   UNK N   1      28.529  24.085  -3.430  0.00  0.00     0.097 C 
ENDROOT
BRANCH   1   2
HETATM    2  C   UNK N   1      29.037  23.403  -2.182  0.00  0.00     0.144 C 
HETATM    3  O   UNK N   1      28.259  22.882  -1.389  0.00  0.00    -0.650 OA
BRANCH   2   4
HETATM    4  O   UNK N   1      30.357  23.351  -1.936  0.00  0.00    -0.776 OA
HETATM    5  H   UNK N   1      30.815  24.044  -1.503  0.00  0.00     0.167 HD
ENDBRANCH   2   4
ENDBRANCH   1   2
BRANCH   1   6
HETATM    6  C   UNK N   1      26.990  24.038  -3.437  0.00  0.00     0.054 C 
BRANCH   6   7
HETATM    7  C   UNK N   1      26.352  25.264  -4.016  0.00  0.00    -0.057 A 
HETATM    8  C   UNK N   1      25.715  25.215  -5.260  0.00  0.00     0.007 A 
HETATM    9  C   UNK N   1      25.128  26.371  -5.790  0.00  0.00     0.001 A 
HETATM   10  C   UNK N   1      25.183  27.574  -5.077  0.00  0.00     0.000 A 
HETATM   11  C   UNK N   1      25.830  27.625  -3.841  0.00  0.00     0.001 A 
HETATM   12  C   UNK N   1      26.417  26.474  -3.315  0.00  0.00     0.007 A 
ENDBRANCH   6   7
ENDBRANCH   1   6
BRANCH   1  13
HETATM   13  C   UNK N   1      29.148  23.511  -4.718  0.00  0.00     0.086 C 
BRANCH  13  14
HETATM   14  S   UNK N   1      29.922  24.767  -5.793  0.00  0.00    -0.181 SA
HETATM   15  H   UNK N   1      30.954  25.653  -5.750  0.00  0.00     0.101 HD
ENDBRANCH  13  14
ENDBRANCH   1  13
TORSDOF 6
ENDMDL
MODEL 5
REMARK VINA RESULT:      -4.8      2.385      3.392
REMARK  6 active torsions:
REMARK  status: ('A' for Active; 'I' for Inactive)
REMARK    1  A    between atoms: C_1  and  O_3 
REMARK    2  A    between atoms: C_1  and  C_4 
REMARK    3  A    between atoms: C_4  and  C_5 
REMARK    4  A    between atoms: C_4  and  C_12 
REMARK    5  A    between atoms: C_5  and  C_6 
REMARK    6  A    between atoms: C_12  and  S_13 
ROOT
HETATM    1  C   UNK N   1      34.122  17.047   7.686  0.00  0.00     0.097 C 
ENDROOT
BRANCH   1   2
HETATM    2  C   UNK N   1      34.826  17.986   8.636  0.00  0.00     0.144 C 
HETATM    3  O   UNK N   1      34.999  19.166   8.341  0.00  0.00    -0.650 OA
BRANCH   2   4
HETATM    4  O   UNK N   1      35.260  17.537   9.824  0.00  0.00    -0.776 OA
HETATM    5  H   UNK N   1      35.171  16.642  10.086  0.00  0.00     0.167 HD
ENDBRANCH   2   4
ENDBRANCH   1   2
BRANCH   1   6
HETATM    6  C   UNK N   1      32.743  17.633   7.329  0.00  0.00     0.054 C 
BRANCH   6   7
HETATM    7  C   UNK N   1      32.310  17.342   5.925  0.00  0.00    -0.057 A 
HETATM    8  C   UNK N   1      33.214  17.449   4.863  0.00  0.00     0.007 A 
HETATM    9  C   UNK N   1      32.792  17.179   3.556  0.00  0.00     0.001 A 
HETATM   10  C   UNK N   1      31.465  16.806   3.311  0.00  0.00     0.000 A 
HETATM   11  C   UNK N   1      30.560  16.712   4.369  0.00  0.00     0.001 A 
HETATM   12  C   UNK N   1      30.980  16.983   5.672  0.00  0.00     0.007 A 
ENDBRANCH   6   7
ENDBRANCH   1   6
BRANCH   1  13
HETATM   13  C   UNK N   1      34.035  15.607   8.225  0.00  0.00     0.086 C 
BRANCH  13  14
HETATM   14  S   UNK N   1      32.467  15.226   9.077  0.00  0.00    -0.181 SA
HETATM   15  H   UNK N   1      31.892  15.424  10.295  0.00  0.00     0.101 HD
ENDBRANCH  13  14
ENDBRANCH   1  13
TORSDOF 6
ENDMDL
MODEL 6
REMARK VINA RESULT:      -4.7      8.950     10.223
REMARK  6 active torsions:
REMARK  status: ('A' for Active; 'I' for Inactive)
REMARK    1  A    between atoms: C_1  and  O_3 
REMARK    2  A    between atoms: C_1  and  C_4 
REMARK    3  A    between atoms: C_4  and  C_5 
REMARK    4  A    between atoms: C_4  and  C_12 
REMARK    5  A    between atoms: C_5  and  C_6 
REMARK    6  A    between atoms: C_12  and  S_13 
ROOT
HETATM    1  C   UNK N   1      35.300  12.786  13.704  0.00  0.00     0.097 C 
ENDROOT
BRANCH   1   2
HETATM    2  C   UNK N   1      35.609  14.124  13.075  0.00  0.00     0.144 C 
HETATM    3  O   UNK N   1      34.858  14.612  12.235  0.00  0.00    -0.650 OA
BRANCH   2   4
HETATM    4  O   UNK N   1      36.710  14.799  13.442  0.00  0.00    -0.776 OA
HETATM    5  H   UNK N   1      37.316  15.150  12.819  0.00  0.00     0.167 HD
ENDBRANCH   2   4
ENDBRANCH   1   2
BRANCH   1   6
HETATM    6  C   UNK N   1      36.421  12.426  14.696  0.00  0.00     0.054 C 
BRANCH   6   7
HETATM    7  C   UNK N   1      35.976  12.403  16.126  0.00  0.00    -0.057 A 
HETATM    8  C   UNK N   1      35.899  11.196  16.828  0.00  0.00     0.007 A 
HETATM    9  C   UNK N   1      35.476  11.190  18.163  0.00  0.00     0.001 A 
HETATM   10  C   UNK N   1      35.127  12.390  18.793  0.00  0.00     0.000 A 
HETATM   11  C   UNK N   1      35.193  13.593  18.088  0.00  0.00     0.001 A 
HETATM   12  C   UNK N   1      35.612  13.598  16.757  0.00  0.00     0.007 A 
ENDBRANCH   6   7
ENDBRANCH   1   6
BRANCH   1  13
HETATM   13  C   UNK N   1      35.049  11.680  12.662  0.00  0.00     0.086 C 
BRANCH  13  14
HETATM   14  S   UNK N   1      34.171  10.223  13.323  0.00  0.00    -0.181 SA
HETATM   15  H   UNK N   1      34.184   9.441  14.437  0.00  0.00     0.101 HD
ENDBRANCH  13  14
ENDBRANCH   1  13
TORSDOF 6
ENDMDL
MODEL 7
REMARK VINA RESULT:      -4.6     15.634     16.779
REMARK  6 active torsions:
REMARK  status: ('A' for Active; 'I' for Inactive)
REMARK    1  A    between atoms: C_1  and  O_3 
REMARK    2  A    between atoms: C_1  and  C_4 
REMARK    3  A    between atoms: C_4  and  C_5 
REMARK    4  A    between atoms: C_4  and  C_12 
REMARK    5  A    between atoms: C_5  and  C_6 
REMARK    6  A    between atoms: C_12  and  S_13 
ROOT
HETATM    1  C   UNK N   1      26.398  24.804  -5.394  0.00  0.00     0.097 C 
ENDROOT
BRANCH   1   2
HETATM    2  C   UNK N   1      27.041  24.612  -4.042  0.00  0.00     0.144 C 
HETATM    3  O   UNK N   1      28.198  24.971  -3.839  0.00  0.00    -0.650 OA
BRANCH   2   4
HETATM    4  O   UNK N   1      26.343  24.053  -3.040  0.00  0.00    -0.776 OA
HETATM    5  H   UNK N   1      26.076  23.155  -3.053  0.00  0.00     0.167 HD
ENDBRANCH   2   4
ENDBRANCH   1   2
BRANCH   1   6
HETATM    6  C   UNK N   1      25.378  25.954  -5.307  0.00  0.00     0.054 C 
BRANCH   6   7
HETATM    7  C   UNK N   1      26.005  27.306  -5.152  0.00  0.00    -0.057 A 
HETATM    8  C   UNK N   1      26.941  27.768  -6.083  0.00  0.00     0.007 A 
HETATM    9  C   UNK N   1      27.522  29.031  -5.921  0.00  0.00     0.001 A 
HETATM   10  C   UNK N   1      27.170  29.829  -4.826  0.00  0.00     0.000 A 
HETATM   11  C   UNK N   1      26.245  29.363  -3.890  0.00  0.00     0.001 A 
HETATM   12  C   UNK N   1      25.668  28.102  -4.051  0.00  0.00     0.007 A 
ENDBRANCH   6   7
ENDBRANCH   1   6
BRANCH   1  13
HETATM   13  C   UNK N   1      25.785  23.507  -5.954  0.00  0.00     0.086 C 
BRANCH  13  14
HETATM   14  S   UNK N   1      26.135  23.222  -7.723  0.00  0.00    -0.181 SA
HETATM   15  H   UNK N   1      26.761  22.302  -8.505  0.00  0.00     0.101 HD
ENDBRANCH  13  14
ENDBRANCH   1  13
TORSDOF 6
ENDMDL
MODEL 8
REMARK VINA RESULT:      -4.6      3.173      5.069
REMARK  6 active torsions:
REMARK  status: ('A' for Active; 'I' for Inactive)
REMARK    1  A    between atoms: C_1  and  O_3 
REMARK    2  A    between atoms: C_1  and  C_4 
REMARK    3  A    between atoms: C_4  and  C_5 
REMARK    4  A    between atoms: C_4  and  C_12 
REMARK    5  A    between atoms: C_5  and  C_6 
REMARK    6  A    between atoms: C_12  and  S_13 
ROOT
HETATM    1  C   UNK N   1      29.449  17.464   8.270  0.00  0.00     0.097 C 
ENDROOT
BRANCH   1   2
HETATM    2  C   UNK N   1      28.371  17.535   9.324  0.00  0.00     0.144 C 
HETATM    3  O   UNK N   1      28.344  16.733  10.253  0.00  0.00    -0.650 OA
BRANCH   2   4
HETATM    4  O   UNK N   1      27.431  18.493   9.259  0.00  0.00    -0.776 OA
HETATM    5  H   UNK N   1      26.706  18.446   8.668  0.00  0.00     0.167 HD
ENDBRANCH   2   4
ENDBRANCH   1   2
BRANCH   1   6
HETATM    6  C   UNK N   1      30.672  18.268   8.747  0.00  0.00     0.054 C 
BRANCH   6   7
HETATM    7  C   UNK N   1      31.981  17.589   8.483  0.00  0.00    -0.057 A 
HETATM    8  C   UNK N   1      32.110  16.205   8.641  0.00  0.00     0.007 A 
HETATM    9  C   UNK N   1      33.341  15.585   8.396  0.00  0.00     0.001 A 
HETATM   10  C   UNK N   1      34.444  16.350   7.998  0.00  0.00     0.000 A 
HETATM   11  C   UNK N   1      34.318  17.733   7.853  0.00  0.00     0.001 A 
HETATM   12  C   UNK N   1      33.091  18.351   8.100  0.00  0.00     0.007 A 
ENDBRANCH   6   7
ENDBRANCH   1   6
BRANCH   1  13
HETATM   13  C   UNK N   1      28.954  17.903   6.879  0.00  0.00     0.086 C 
BRANCH  13  14
HETATM   14  S   UNK N   1      29.900  17.183   5.493  0.00  0.00    -0.181 SA
HETATM   15  H   UNK N   1      30.027  15.988   4.855  0.00  0.00     0.101 HD
ENDBRANCH  13  14
ENDBRANCH   1  13
TORSDOF 6
ENDMDL
MODEL 9
REMARK VINA RESULT:      -4.6      6.263      7.877
REMARK  6 active torsions:
REMARK  status: ('A' for Active; 'I' for Inactive)
REMARK    1  A    between atoms: C_1  and  O_3 
REMARK    2  A    between atoms: C_1  and  C_4 
REMARK    3  A    between atoms: C_4  and  C_5 
REMARK    4  A    between atoms: C_4  and  C_12 
REMARK    5  A    between atoms: C_5  and  C_6 
REMARK    6  A    between atoms: C_12  and  S_13 
ROOT
HETATM    1  C   UNK N   1      35.049  14.863  11.486  0.00  0.00     0.097 C 
ENDROOT
BRANCH   1   2
HETATM    2  C   UNK N   1      35.792  16.094  11.024  0.00  0.00     0.144 C 
HETATM    3  O   UNK N   1      35.199  17.151  10.830  0.00  0.00    -0.650 OA
BRANCH   2   4
HETATM    4  O   UNK N   1      37.120  16.043  10.832  0.00  0.00    -0.776 OA
HETATM    5  H   UNK N   1      37.648  15.338  11.152  0.00  0.00     0.167 HD
ENDBRANCH   2   4
ENDBRANCH   1   2
BRANCH   1   6
HETATM    6  C   UNK N   1      36.058  13.855  12.065  0.00  0.00     0.054 C 
BRANCH   6   7
HETATM    7  C   UNK N   1      35.821  13.526  13.508  0.00  0.00    -0.057 A 
HETATM    8  C   UNK N   1      36.577  14.140  14.511  0.00  0.00     0.007 A 
HETATM    9  C   UNK N   1      36.347  13.818  15.855  0.00  0.00     0.001 A 
HETATM   10  C   UNK N   1      35.366  12.879  16.192  0.00  0.00     0.000 A 
HETATM   11  C   UNK N   1      34.620  12.257  15.189  0.00  0.00     0.001 A 
HETATM   12  C   UNK N   1      34.851  12.577  13.850  0.00  0.00     0.007 A 
ENDBRANCH   6   7
ENDBRANCH   1   6
BRANCH   1  13
HETATM   13  C   UNK N   1      34.164  14.252  10.384  0.00  0.00     0.086 C 
BRANCH  13  14
HETATM   14  S   UNK N   1      35.100  13.436   9.046  0.00  0.00    -0.181 SA
HETATM   15  H   UNK N   1      35.417  13.656   7.741  0.00  0.00     0.101 HD
ENDBRANCH  13  14
ENDBRANCH   1  13
TORSDOF 6
ENDMDL
