REMARK  6 active torsions:
REMARK  status: ('A' for Active; 'I' for Inactive)
REMARK    1  A    between atoms: C_6  and  S_11 
REMARK    2  A    between atoms: S_11  and  C_12 
REMARK    3  A    between atoms: C_12  and  C_13 
REMARK    4  A    between atoms: C_13  and  C_14 
REMARK    5  A    between atoms: C_14  and  S_15 
REMARK    6  A    between atoms: S_15  and  O_18 
ROOT
HETATM    1  C   UNK N   1      -4.940  -1.131  -0.162  0.00  0.00     0.002 A 
HETATM    2  C   UNK N   1      -4.219   0.078  -0.130  0.00  0.00     0.031 A 
HETATM    3  C   UNK N   1      -4.273  -2.371  -0.051  0.00  0.00     0.002 A 
HETATM    4  N   UNK N   1      -2.009   1.123   0.069  0.00  0.00    -0.344 N 
ATOM      5  HN  UNK N   1      -2.333   2.088   0.000  1.00  0.00     0.167 HD
HETATM    6  C   UNK N   1      -0.707   0.759   0.224  0.00  0.00     0.113 A 
HETATM    7  S   UNK N   1      -0.589  -0.900   0.303  0.00  0.00    -0.063 SA
HETATM    8  C   UNK N   1      -2.193  -1.213   0.128  0.00  0.00     0.034 A 
HETATM    9  C   UNK N   1      -2.836   0.020   0.015  0.00  0.00     0.050 A 
HETATM   10  C   UNK N   1      -2.878  -2.420   0.097  0.00  0.00     0.021 A 
ENDROOT
BRANCH   6  11
HETATM   11  S   UNK N   1       0.644   1.924   0.393  0.00  0.00    -0.105 SA
BRANCH  11  12
HETATM   12  C   UNK N   1       1.729   1.049  -0.771  0.00  0.00     0.082 C 
BRANCH  12  13
HETATM   13  C   UNK N   1       2.620   0.090  -0.003  0.00  0.00     0.027 C 
BRANCH  13  14
HETATM   14  C   UNK N   1       4.037   0.187  -0.547  0.00  0.00     0.156 C 
BRANCH  14  15
HETATM   15  S   UNK N   1       5.147   0.895   0.712  0.00  0.00     0.094 S 
HETATM   16  O   UNK N   1       6.444   1.563   0.234  0.00  0.00    -0.601 OA
HETATM   17  O   UNK N   1       5.810  -0.336   0.075  0.00  0.00    -0.601 OA
BRANCH  15  18
HETATM   18  O   UNK N   1       4.658   1.907  -0.587  0.00  0.00    -0.296 OA
HETATM   19  H   UNK N   1       5.014   2.432  -1.321  0.00  0.00     0.232 HD
ENDBRANCH  15  18
ENDBRANCH  14  15
ENDBRANCH  13  14
ENDBRANCH  12  13
ENDBRANCH  11  12
ENDBRANCH   6  11
TORSDOF 6
