MODEL 1
REMARK VINA RESULT:      -5.7      0.000      0.000
REMARK  6 active torsions:
REMARK  status: ('A' for Active; 'I' for Inactive)
REMARK    1  A    between atoms: C_6  and  S_11 
REMARK    2  A    between atoms: S_11  and  C_12 
REMARK    3  A    between atoms: C_12  and  C_13 
REMARK    4  A    between atoms: C_13  and  C_14 
REMARK    5  A    between atoms: C_14  and  S_15 
REMARK    6  A    between atoms: S_15  and  O_18 
ROOT
HETATM    1  C   UNK N   1      34.957  12.548  16.164  0.00  0.00     0.002 A 
HETATM    2  C   UNK N   1      34.397  12.146  14.937  0.00  0.00     0.031 A 
HETATM    3  C   UNK N   1      36.058  13.433  16.199  0.00  0.00     0.002 A 
HETATM    4  N   UNK N   1      34.501  12.339  12.494  0.00  0.00    -0.344 N 
ATOM      5  HN  UNK N   1      33.719  11.714  12.297  1.00  0.00     0.167 HD
HETATM    6  C   UNK N   1      35.233  12.978  11.541  0.00  0.00     0.113 A 
HETATM    7  S   UNK N   1      36.411  13.909  12.261  0.00  0.00    -0.063 SA
HETATM    8  C   UNK N   1      36.038  13.519  13.813  0.00  0.00     0.034 A 
HETATM    9  C   UNK N   1      34.953  12.643  13.762  0.00  0.00     0.050 A 
HETATM   10  C   UNK N   1      36.611  13.930  15.009  0.00  0.00     0.021 A 
ENDROOT
BRANCH   6  11
HETATM   11  S   UNK N   1      34.899  12.870   9.784  0.00  0.00    -0.105 SA
BRANCH  11  12
HETATM   12  C   UNK N   1      35.685  14.459   9.394  0.00  0.00     0.082 C 
BRANCH  12  13
HETATM   13  C   UNK N   1      34.650  15.566   9.479  0.00  0.00     0.027 C 
BRANCH  13  14
HETATM   14  C   UNK N   1      34.541  16.248   8.124  0.00  0.00     0.156 C 
BRANCH  14  15
HETATM   15  S   UNK N   1      34.048  17.989   8.334  0.00  0.00     0.094 S 
HETATM   16  O   UNK N   1      35.081  19.075   8.000  0.00  0.00    -0.601 OA
HETATM   17  O   UNK N   1      35.104  17.623   9.388  0.00  0.00    -0.601 OA
BRANCH  15  18
HETATM   18  O   UNK N   1      34.696  17.516   6.815  0.00  0.00    -0.296 OA
HETATM   19  H   UNK N   1      34.981  17.877   5.961  0.00  0.00     0.232 HD
ENDBRANCH  15  18
ENDBRANCH  14  15
ENDBRANCH  13  14
ENDBRANCH  12  13
ENDBRANCH  11  12
ENDBRANCH   6  11
TORSDOF 6
ENDMDL
MODEL 2
REMARK VINA RESULT:      -5.7      6.739      9.600
REMARK  6 active torsions:
REMARK  status: ('A' for Active; 'I' for Inactive)
REMARK    1  A    between atoms: C_6  and  S_11 
REMARK    2  A    between atoms: S_11  and  C_12 
REMARK    3  A    between atoms: C_12  and  C_13 
REMARK    4  A    between atoms: C_13  and  C_14 
REMARK    5  A    between atoms: C_14  and  S_15 
REMARK    6  A    between atoms: S_15  and  O_18 
ROOT
HETATM    1  C   UNK N   1      27.135  20.870   5.144  0.00  0.00     0.002 A 
HETATM    2  C   UNK N   1      27.834  19.818   4.521  0.00  0.00     0.031 A 
HETATM    3  C   UNK N   1      26.947  20.880   6.543  0.00  0.00     0.002 A 
HETATM    4  N   UNK N   1      29.043  17.708   4.842  0.00  0.00    -0.344 N 
ATOM      5  HN  UNK N   1      29.260  17.551   3.858  1.00  0.00     0.167 HD
HETATM    6  C   UNK N   1      29.411  16.875   5.853  0.00  0.00     0.113 A 
HETATM    7  S   UNK N   1      28.877  17.482   7.309  0.00  0.00    -0.063 SA
HETATM    8  C   UNK N   1      28.144  18.821   6.699  0.00  0.00     0.034 A 
HETATM    9  C   UNK N   1      28.335  18.793   5.318  0.00  0.00     0.050 A 
HETATM   10  C   UNK N   1      27.457  19.843   7.340  0.00  0.00     0.021 A 
ENDROOT
BRANCH   6  11
HETATM   11  S   UNK N   1      30.394  15.395   5.622  0.00  0.00    -0.105 SA
BRANCH  11  12
HETATM   12  C   UNK N   1      31.629  15.850   6.873  0.00  0.00     0.082 C 
BRANCH  12  13
HETATM   13  C   UNK N   1      32.404  17.064   6.395  0.00  0.00     0.027 C 
BRANCH  13  14
HETATM   14  C   UNK N   1      32.871  17.861   7.604  0.00  0.00     0.156 C 
BRANCH  14  15
HETATM   15  S   UNK N   1      34.441  17.184   8.233  0.00  0.00     0.094 S 
HETATM   16  O   UNK N   1      35.211  18.004   9.278  0.00  0.00    -0.601 OA
HETATM   17  O   UNK N   1      34.724  18.428   7.376  0.00  0.00    -0.601 OA
BRANCH  15  18
HETATM   18  O   UNK N   1      33.250  17.648   9.380  0.00  0.00    -0.296 OA
HETATM   19  H   UNK N   1      32.299  17.818   9.466  0.00  0.00     0.232 HD
ENDBRANCH  15  18
ENDBRANCH  14  15
ENDBRANCH  13  14
ENDBRANCH  12  13
ENDBRANCH  11  12
ENDBRANCH   6  11
TORSDOF 6
ENDMDL
MODEL 3
REMARK VINA RESULT:      -5.6      1.340      1.913
REMARK  6 active torsions:
REMARK  status: ('A' for Active; 'I' for Inactive)
REMARK    1  A    between atoms: C_6  and  S_11 
REMARK    2  A    between atoms: S_11  and  C_12 
REMARK    3  A    between atoms: C_12  and  C_13 
REMARK    4  A    between atoms: C_13  and  C_14 
REMARK    5  A    between atoms: C_14  and  S_15 
REMARK    6  A    between atoms: S_15  and  O_18 
ROOT
HETATM    1  C   UNK N   1      35.994  13.227  16.473  0.00  0.00     0.002 A 
HETATM    2  C   UNK N   1      36.641  13.949  15.451  0.00  0.00     0.031 A 
HETATM    3  C   UNK N   1      34.970  12.304  16.166  0.00  0.00     0.002 A 
HETATM    4  N   UNK N   1      36.799  14.358  13.038  0.00  0.00    -0.344 N 
ATOM      5  HN  UNK N   1      37.544  15.053  13.090  1.00  0.00     0.167 HD
HETATM    6  C   UNK N   1      36.221  13.935  11.881  0.00  0.00     0.113 A 
HETATM    7  S   UNK N   1      35.056  12.794  12.215  0.00  0.00    -0.063 SA
HETATM    8  C   UNK N   1      35.238  12.808  13.848  0.00  0.00     0.034 A 
HETATM    9  C   UNK N   1      36.247  13.728  14.135  0.00  0.00     0.050 A 
HETATM   10  C   UNK N   1      34.581  12.086  14.835  0.00  0.00     0.021 A 
ENDROOT
BRANCH   6  11
HETATM   11  S   UNK N   1      36.721  14.491  10.252  0.00  0.00    -0.105 SA
BRANCH  11  12
HETATM   12  C   UNK N   1      35.703  15.994  10.299  0.00  0.00     0.082 C 
BRANCH  12  13
HETATM   13  C   UNK N   1      34.868  16.075   9.035  0.00  0.00     0.027 C 
BRANCH  13  14
HETATM   14  C   UNK N   1      33.838  17.183   9.191  0.00  0.00     0.156 C 
BRANCH  14  15
HETATM   15  S   UNK N   1      33.447  17.912   7.568  0.00  0.00     0.094 S 
HETATM   16  O   UNK N   1      34.506  17.813   6.461  0.00  0.00    -0.601 OA
HETATM   17  O   UNK N   1      34.556  18.731   8.247  0.00  0.00    -0.601 OA
BRANCH  15  18
HETATM   18  O   UNK N   1      33.963  16.274   7.609  0.00  0.00    -0.296 OA
HETATM   19  H   UNK N   1      34.758  15.727   7.705  0.00  0.00     0.232 HD
ENDBRANCH  15  18
ENDBRANCH  14  15
ENDBRANCH  13  14
ENDBRANCH  12  13
ENDBRANCH  11  12
ENDBRANCH   6  11
TORSDOF 6
ENDMDL
MODEL 4
REMARK VINA RESULT:      -5.5      1.983      2.369
REMARK  6 active torsions:
REMARK  status: ('A' for Active; 'I' for Inactive)
REMARK    1  A    between atoms: C_6  and  S_11 
REMARK    2  A    between atoms: S_11  and  C_12 
REMARK    3  A    between atoms: C_12  and  C_13 
REMARK    4  A    between atoms: C_13  and  C_14 
REMARK    5  A    between atoms: C_14  and  S_15 
REMARK    6  A    between atoms: S_15  and  O_18 
ROOT
HETATM    1  C   UNK N   1      35.591  11.285  17.371  0.00  0.00     0.002 A 
HETATM    2  C   UNK N   1      36.065  10.891  16.106  0.00  0.00     0.031 A 
HETATM    3  C   UNK N   1      35.287  12.638  17.637  0.00  0.00     0.002 A 
HETATM    4  N   UNK N   1      36.674  11.620  13.844  0.00  0.00    -0.344 N 
ATOM      5  HN  UNK N   1      36.938  10.699  13.495  1.00  0.00     0.167 HD
HETATM    6  C   UNK N   1      36.720  12.763  13.108  0.00  0.00     0.113 A 
HETATM    7  S   UNK N   1      36.203  14.051  14.028  0.00  0.00    -0.063 SA
HETATM    8  C   UNK N   1      35.916  13.198  15.404  0.00  0.00     0.034 A 
HETATM    9  C   UNK N   1      36.226  11.866  15.126  0.00  0.00     0.050 A 
HETATM   10  C   UNK N   1      35.449  13.615  16.643  0.00  0.00     0.021 A 
ENDROOT
BRANCH   6  11
HETATM   11  S   UNK N   1      37.196  12.822  11.381  0.00  0.00    -0.105 SA
BRANCH  11  12
HETATM   12  C   UNK N   1      35.525  12.472  10.763  0.00  0.00     0.082 C 
BRANCH  12  13
HETATM   13  C   UNK N   1      35.099  13.576   9.813  0.00  0.00     0.027 C 
BRANCH  13  14
HETATM   14  C   UNK N   1      36.070  14.740   9.939  0.00  0.00     0.156 C 
BRANCH  14  15
HETATM   15  S   UNK N   1      35.241  16.169  10.706  0.00  0.00     0.094 S 
HETATM   16  O   UNK N   1      35.395  17.539  10.029  0.00  0.00    -0.601 OA
HETATM   17  O   UNK N   1      36.763  16.319  10.850  0.00  0.00    -0.601 OA
BRANCH  15  18
HETATM   18  O   UNK N   1      34.940  15.865   9.042  0.00  0.00    -0.296 OA
HETATM   19  H   UNK N   1      35.166  16.186   8.155  0.00  0.00     0.232 HD
ENDBRANCH  15  18
ENDBRANCH  14  15
ENDBRANCH  13  14
ENDBRANCH  12  13
ENDBRANCH  11  12
ENDBRANCH   6  11
TORSDOF 6
ENDMDL
MODEL 5
REMARK VINA RESULT:      -5.3     15.321     16.692
REMARK  6 active torsions:
REMARK  status: ('A' for Active; 'I' for Inactive)
REMARK    1  A    between atoms: C_6  and  S_11 
REMARK    2  A    between atoms: S_11  and  C_12 
REMARK    3  A    between atoms: C_12  and  C_13 
REMARK    4  A    between atoms: C_13  and  C_14 
REMARK    5  A    between atoms: C_14  and  S_15 
REMARK    6  A    between atoms: S_15  and  O_18 
ROOT
HETATM    1  C   UNK N   1      23.687  13.641   0.407  0.00  0.00     0.002 A 
HETATM    2  C   UNK N   1      24.195  14.568   1.337  0.00  0.00     0.031 A 
HETATM    3  C   UNK N   1      22.322  13.276   0.425  0.00  0.00     0.002 A 
HETATM    4  N   UNK N   1      23.682  16.036   3.233  0.00  0.00    -0.344 N 
ATOM      5  HN  UNK N   1      24.627  16.399   3.355  1.00  0.00     0.167 HD
HETATM    6  C   UNK N   1      22.616  16.396   3.999  0.00  0.00     0.113 A 
HETATM    7  S   UNK N   1      21.252  15.593   3.483  0.00  0.00    -0.063 SA
HETATM    8  C   UNK N   1      21.975  14.746   2.274  0.00  0.00     0.034 A 
HETATM    9  C   UNK N   1      23.321  15.114   2.272  0.00  0.00     0.050 A 
HETATM   10  C   UNK N   1      21.447  13.834   1.371  0.00  0.00     0.021 A 
ENDROOT
BRANCH   6  11
HETATM   11  S   UNK N   1      22.692  17.616   5.309  0.00  0.00    -0.105 SA
BRANCH  11  12
HETATM   12  C   UNK N   1      21.287  18.582   4.681  0.00  0.00     0.082 C 
BRANCH  12  13
HETATM   13  C   UNK N   1      21.724  19.368   3.459  0.00  0.00     0.027 C 
BRANCH  13  14
HETATM   14  C   UNK N   1      20.633  19.287   2.402  0.00  0.00     0.156 C 
BRANCH  14  15
HETATM   15  S   UNK N   1      20.635  20.796   1.381  0.00  0.00     0.094 S 
HETATM   16  O   UNK N   1      21.618  20.867   0.204  0.00  0.00    -0.601 OA
HETATM   17  O   UNK N   1      21.944  20.714   2.180  0.00  0.00    -0.601 OA
BRANCH  15  18
HETATM   18  O   UNK N   1      20.461  19.285   0.581  0.00  0.00    -0.296 OA
HETATM   19  H   UNK N   1      19.842  18.779   0.033  0.00  0.00     0.232 HD
ENDBRANCH  15  18
ENDBRANCH  14  15
ENDBRANCH  13  14
ENDBRANCH  12  13
ENDBRANCH  11  12
ENDBRANCH   6  11
TORSDOF 6
ENDMDL
MODEL 6
REMARK VINA RESULT:      -5.3     18.034     21.491
REMARK  6 active torsions:
REMARK  status: ('A' for Active; 'I' for Inactive)
REMARK    1  A    between atoms: C_6  and  S_11 
REMARK    2  A    between atoms: S_11  and  C_12 
REMARK    3  A    between atoms: C_12  and  C_13 
REMARK    4  A    between atoms: C_13  and  C_14 
REMARK    5  A    between atoms: C_14  and  S_15 
REMARK    6  A    between atoms: S_15  and  O_18 
ROOT
HETATM    1  C   UNK N   1      25.453  21.029  -8.962  0.00  0.00     0.002 A 
HETATM    2  C   UNK N   1      25.154  21.531  -7.681  0.00  0.00     0.031 A 
HETATM    3  C   UNK N   1      26.364  21.703  -9.805  0.00  0.00     0.002 A 
HETATM    4  N   UNK N   1      25.584  23.303  -6.040  0.00  0.00    -0.344 N 
ATOM      5  HN  UNK N   1      24.957  22.944  -5.319  1.00  0.00     0.167 HD
HETATM    6  C   UNK N   1      26.334  24.431  -5.914  0.00  0.00     0.113 A 
HETATM    7  S   UNK N   1      27.227  24.674  -7.298  0.00  0.00    -0.063 SA
HETATM    8  C   UNK N   1      26.679  23.356  -8.112  0.00  0.00     0.034 A 
HETATM    9  C   UNK N   1      25.778  22.705  -7.268  0.00  0.00     0.050 A 
HETATM   10  C   UNK N   1      26.990  22.885  -9.380  0.00  0.00     0.021 A 
ENDROOT
BRANCH   6  11
HETATM   11  S   UNK N   1      26.385  25.438  -4.432  0.00  0.00    -0.105 SA
BRANCH  11  12
HETATM   12  C   UNK N   1      27.054  24.114  -3.386  0.00  0.00     0.082 C 
BRANCH  12  13
HETATM   13  C   UNK N   1      28.563  24.251  -3.306  0.00  0.00     0.027 C 
BRANCH  13  14
HETATM   14  C   UNK N   1      29.165  22.904  -2.936  0.00  0.00     0.156 C 
BRANCH  14  15
HETATM   15  S   UNK N   1      30.981  23.023  -2.868  0.00  0.00     0.094 S 
HETATM   16  O   UNK N   1      31.757  21.849  -2.254  0.00  0.00    -0.601 OA
HETATM   17  O   UNK N   1      30.406  23.096  -1.444  0.00  0.00    -0.601 OA
BRANCH  15  18
HETATM   18  O   UNK N   1      30.296  21.626  -3.595  0.00  0.00    -0.296 OA
HETATM   19  H   UNK N   1      30.228  20.665  -3.485  0.00  0.00     0.232 HD
ENDBRANCH  15  18
ENDBRANCH  14  15
ENDBRANCH  13  14
ENDBRANCH  12  13
ENDBRANCH  11  12
ENDBRANCH   6  11
TORSDOF 6
ENDMDL
MODEL 7
REMARK VINA RESULT:      -5.1      4.013      7.826
REMARK  6 active torsions:
REMARK  status: ('A' for Active; 'I' for Inactive)
REMARK    1  A    between atoms: C_6  and  S_11 
REMARK    2  A    between atoms: S_11  and  C_12 
REMARK    3  A    between atoms: C_12  and  C_13 
REMARK    4  A    between atoms: C_13  and  C_14 
REMARK    5  A    between atoms: C_14  and  S_15 
REMARK    6  A    between atoms: S_15  and  O_18 
ROOT
HETATM    1  C   UNK N   1      32.651  17.563   4.671  0.00  0.00     0.002 A 
HETATM    2  C   UNK N   1      33.749  17.484   5.548  0.00  0.00     0.031 A 
HETATM    3  C   UNK N   1      31.381  17.082   5.060  0.00  0.00     0.002 A 
HETATM    4  N   UNK N   1      34.535  16.788   7.765  0.00  0.00    -0.344 N 
ATOM      5  HN  UNK N   1      35.504  17.082   7.640  1.00  0.00     0.167 HD
HETATM    6  C   UNK N   1      34.047  16.212   8.898  0.00  0.00     0.113 A 
HETATM    7  S   UNK N   1      32.425  15.886   8.713  0.00  0.00    -0.063 SA
HETATM    8  C   UNK N   1      32.290  16.455   7.177  0.00  0.00     0.034 A 
HETATM    9  C   UNK N   1      33.552  16.922   6.806  0.00  0.00     0.050 A 
HETATM   10  C   UNK N   1      31.191  16.518   6.332  0.00  0.00     0.021 A 
ENDROOT
BRANCH   6  11
HETATM   11  S   UNK N   1      35.020  15.934  10.377  0.00  0.00    -0.105 SA
BRANCH  11  12
HETATM   12  C   UNK N   1      35.808  14.426   9.743  0.00  0.00     0.082 C 
BRANCH  12  13
HETATM   13  C   UNK N   1      36.167  13.520  10.907  0.00  0.00     0.027 C 
BRANCH  13  14
HETATM   14  C   UNK N   1      35.892  14.255  12.210  0.00  0.00     0.156 C 
BRANCH  14  15
HETATM   15  S   UNK N   1      35.929  13.089  13.609  0.00  0.00     0.094 S 
HETATM   16  O   UNK N   1      34.885  13.266  14.721  0.00  0.00    -0.601 OA
HETATM   17  O   UNK N   1      36.352  14.485  14.091  0.00  0.00    -0.601 OA
BRANCH  15  18
HETATM   18  O   UNK N   1      34.441  13.295  12.775  0.00  0.00    -0.296 OA
HETATM   19  H   UNK N   1      34.056  13.729  11.997  0.00  0.00     0.232 HD
ENDBRANCH  15  18
ENDBRANCH  14  15
ENDBRANCH  13  14
ENDBRANCH  12  13
ENDBRANCH  11  12
ENDBRANCH   6  11
TORSDOF 6
ENDMDL
MODEL 8
REMARK VINA RESULT:      -5.0      4.327      7.465
REMARK  6 active torsions:
REMARK  status: ('A' for Active; 'I' for Inactive)
REMARK    1  A    between atoms: C_6  and  S_11 
REMARK    2  A    between atoms: S_11  and  C_12 
REMARK    3  A    between atoms: C_12  and  C_13 
REMARK    4  A    between atoms: C_13  and  C_14 
REMARK    5  A    between atoms: C_14  and  S_15 
REMARK    6  A    between atoms: S_15  and  O_18 
ROOT
HETATM    1  C   UNK N   1      28.162  17.876   7.829  0.00  0.00     0.002 A 
HETATM    2  C   UNK N   1      28.999  17.004   7.107  0.00  0.00     0.031 A 
HETATM    3  C   UNK N   1      28.686  18.691   8.858  0.00  0.00     0.002 A 
HETATM    4  N   UNK N   1      31.283  16.166   6.802  0.00  0.00    -0.344 N 
ATOM      5  HN  UNK N   1      31.067  15.519   6.044  1.00  0.00     0.167 HD
HETATM    6  C   UNK N   1      32.527  16.348   7.325  0.00  0.00     0.113 A 
HETATM    7  S   UNK N   1      32.469  17.489   8.536  0.00  0.00    -0.063 SA
HETATM    8  C   UNK N   1      30.854  17.780   8.447  0.00  0.00     0.034 A 
HETATM    9  C   UNK N   1      30.352  16.966   7.431  0.00  0.00     0.050 A 
HETATM   10  C   UNK N   1      30.052  18.647   9.176  0.00  0.00     0.021 A 
ENDROOT
BRANCH   6  11
HETATM   11  S   UNK N   1      33.997  15.522   6.720  0.00  0.00    -0.105 SA
BRANCH  11  12
HETATM   12  C   UNK N   1      34.973  15.862   8.213  0.00  0.00     0.082 C 
BRANCH  12  13
HETATM   13  C   UNK N   1      34.972  14.632   9.103  0.00  0.00     0.027 C 
BRANCH  13  14
HETATM   14  C   UNK N   1      35.322  15.049  10.523  0.00  0.00     0.156 C 
BRANCH  14  15
HETATM   15  S   UNK N   1      35.318  13.597  11.624  0.00  0.00     0.094 S 
HETATM   16  O   UNK N   1      34.666  13.744  13.006  0.00  0.00    -0.601 OA
HETATM   17  O   UNK N   1      36.251  14.675  12.197  0.00  0.00    -0.601 OA
BRANCH  15  18
HETATM   18  O   UNK N   1      33.817  14.373  11.313  0.00  0.00    -0.296 OA
HETATM   19  H   UNK N   1      32.956  14.227  10.891  0.00  0.00     0.232 HD
ENDBRANCH  15  18
ENDBRANCH  14  15
ENDBRANCH  13  14
ENDBRANCH  12  13
ENDBRANCH  11  12
ENDBRANCH   6  11
TORSDOF 6
ENDMDL
MODEL 9
REMARK VINA RESULT:      -5.0      2.030      2.998
REMARK  6 active torsions:
REMARK  status: ('A' for Active; 'I' for Inactive)
REMARK    1  A    between atoms: C_6  and  S_11 
REMARK    2  A    between atoms: S_11  and  C_12 
REMARK    3  A    between atoms: C_12  and  C_13 
REMARK    4  A    between atoms: C_13  and  C_14 
REMARK    5  A    between atoms: C_14  and  S_15 
REMARK    6  A    between atoms: S_15  and  O_18 
ROOT
HETATM    1  C   UNK N   1      35.065  10.668  18.037  0.00  0.00     0.002 A 
HETATM    2  C   UNK N   1      35.346  11.959  17.551  0.00  0.00     0.031 A 
HETATM    3  C   UNK N   1      34.881   9.587  17.148  0.00  0.00     0.002 A 
HETATM    4  N   UNK N   1      35.718  13.347  15.563  0.00  0.00    -0.344 N 
ATOM      5  HN  UNK N   1      35.873  14.223  16.063  1.00  0.00     0.167 HD
HETATM    6  C   UNK N   1      35.755  13.218  14.208  0.00  0.00     0.113 A 
HETATM    7  S   UNK N   1      35.461  11.636  13.782  0.00  0.00    -0.063 SA
HETATM    8  C   UNK N   1      35.261  11.062  15.309  0.00  0.00     0.034 A 
HETATM    9  C   UNK N   1      35.440  12.142  16.174  0.00  0.00     0.050 A 
HETATM   10  C   UNK N   1      34.979   9.780  15.761  0.00  0.00     0.021 A 
ENDROOT
BRANCH   6  11
HETATM   11  S   UNK N   1      36.145  14.560  13.087  0.00  0.00    -0.105 SA
BRANCH  11  12
HETATM   12  C   UNK N   1      36.541  13.466  11.693  0.00  0.00     0.082 C 
BRANCH  12  13
HETATM   13  C   UNK N   1      36.134  14.139  10.395  0.00  0.00     0.027 C 
BRANCH  13  14
HETATM   14  C   UNK N   1      36.111  15.645  10.604  0.00  0.00     0.156 C 
BRANCH  14  15
HETATM   15  S   UNK N   1      34.609  16.360   9.861  0.00  0.00     0.094 S 
HETATM   16  O   UNK N   1      34.735  17.028   8.484  0.00  0.00    -0.601 OA
HETATM   17  O   UNK N   1      35.579  17.488  10.247  0.00  0.00    -0.601 OA
BRANCH  15  18
HETATM   18  O   UNK N   1      35.515  15.244   8.921  0.00  0.00    -0.296 OA
HETATM   19  H   UNK N   1      35.853  14.335   8.933  0.00  0.00     0.232 HD
ENDBRANCH  15  18
ENDBRANCH  14  15
ENDBRANCH  13  14
ENDBRANCH  12  13
ENDBRANCH  11  12
ENDBRANCH   6  11
TORSDOF 6
ENDMDL
