MODEL 1
REMARK VINA RESULT:      -7.1      0.000      0.000
REMARK  9 active torsions:
REMARK  status: ('A' for Active; 'I' for Inactive)
REMARK    1  A    between atoms: C_1  and  C_2 
REMARK    2  A    between atoms: C_1  and  C_5 
REMARK    3  A    between atoms: C_1  and  C_12 
REMARK    4  A    between atoms: C_2  and  O_4 
REMARK    5  A    between atoms: C_5  and  C_6 
REMARK    6  A    between atoms: C_12  and  C_13 
REMARK    7  A    between atoms: C_12  and  C_16 
REMARK    8  A    between atoms: C_13  and  O_15 
REMARK    9  A    between atoms: C_16  and  C_17 
ROOT
HETATM    1  C   UNK N   1      20.755  16.576   7.034  0.00  0.00     0.102 C 
ENDROOT
BRANCH   1   2
HETATM    2  C   UNK N   1      20.344  16.226   8.499  0.00  0.00     0.102 C 
BRANCH   2   3
HETATM    3  C   UNK N   1      18.967  16.778   8.892  0.00  0.00     0.145 C 
HETATM    4  O   UNK N   1      17.999  16.043   9.018  0.00  0.00    -0.650 OA
BRANCH   3   5
HETATM    5  O   UNK N   1      18.791  18.102   9.050  0.00  0.00    -0.776 OA
HETATM    6  H   UNK N   1      18.809  18.575   9.858  0.00  0.00     0.167 HD
ENDBRANCH   3   5
ENDBRANCH   2   3
BRANCH   2   7
HETATM    7  C   UNK N   1      20.338  14.682   8.514  0.00  0.00     0.054 C 
BRANCH   7   8
HETATM    8  C   UNK N   1      21.041  13.803   9.490  0.00  0.00    -0.057 A 
HETATM    9  C   UNK N   1      22.429  13.698   9.356  0.00  0.00     0.007 A 
HETATM   10  C   UNK N   1      23.161  12.867  10.203  0.00  0.00     0.001 A 
HETATM   11  C   UNK N   1      22.504  12.132  11.191  0.00  0.00     0.000 A 
HETATM   12  C   UNK N   1      21.117  12.238  11.336  0.00  0.00     0.001 A 
HETATM   13  C   UNK N   1      20.386  13.076  10.488  0.00  0.00     0.007 A 
ENDBRANCH   7   8
ENDBRANCH   2   7
ENDBRANCH   1   2
BRANCH   1  14
HETATM   14  C   UNK N   1      21.366  17.966   6.865  0.00  0.00     0.145 C 
HETATM   15  O   UNK N   1      20.804  18.964   7.275  0.00  0.00    -0.650 OA
BRANCH  14  16
HETATM   16  O   UNK N   1      22.526  18.111   6.196  0.00  0.00    -0.776 OA
HETATM   17  H   UNK N   1      22.598  18.749   5.514  0.00  0.00     0.167 HD
ENDBRANCH  14  16
ENDBRANCH   1  14
BRANCH   1  18
HETATM   18  C   UNK N   1      19.705  16.150   6.005  0.00  0.00     0.054 C 
BRANCH  18  19
HETATM   19  C   UNK N   1      19.649  16.069   4.524  0.00  0.00    -0.054 A 
HETATM   20  C   UNK N   1      20.047  14.824   4.021  0.00  0.00     0.047 A 
HETATM   21  C   UNK N   1      20.502  14.758   2.719  0.00  0.00     0.105 A 
HETATM   22  O   UNK N   1      21.015  13.712   2.091  0.00  0.00    -0.323 OA
HETATM   23  C   UNK N   1      20.569  15.839   1.937  0.00  0.00     0.105 A 
HETATM   24  C   UNK N   1      21.472  14.137   0.838  0.00  0.00     0.352 A 
HETATM   25  O   UNK N   1      21.146  15.496   0.784  0.00  0.00    -0.323 OA
HETATM   26  C   UNK N   1      20.134  17.092   2.353  0.00  0.00     0.040 A 
HETATM   27  C   UNK N   1      19.688  17.208   3.686  0.00  0.00     0.010 A 
ENDBRANCH  18  19
ENDBRANCH   1  18
TORSDOF 9
ENDMDL
MODEL 2
REMARK VINA RESULT:      -7.0     15.412     17.393
REMARK  9 active torsions:
REMARK  status: ('A' for Active; 'I' for Inactive)
REMARK    1  A    between atoms: C_1  and  C_2 
REMARK    2  A    between atoms: C_1  and  C_5 
REMARK    3  A    between atoms: C_1  and  C_12 
REMARK    4  A    between atoms: C_2  and  O_4 
REMARK    5  A    between atoms: C_5  and  C_6 
REMARK    6  A    between atoms: C_12  and  C_13 
REMARK    7  A    between atoms: C_12  and  C_16 
REMARK    8  A    between atoms: C_13  and  O_15 
REMARK    9  A    between atoms: C_16  and  C_17 
ROOT
HETATM    1  C   UNK N   1      25.778  22.528  -7.006  0.00  0.00     0.102 C 
ENDROOT
BRANCH   1   2
HETATM    2  C   UNK N   1      26.875  22.298  -8.092  0.00  0.00     0.102 C 
BRANCH   2   3
HETATM    3  C   UNK N   1      26.594  23.039  -9.406  0.00  0.00     0.145 C 
HETATM    4  O   UNK N   1      25.700  22.684 -10.159  0.00  0.00    -0.650 OA
BRANCH   3   5
HETATM    5  O   UNK N   1      27.373  24.071  -9.778  0.00  0.00    -0.776 OA
HETATM    6  H   UNK N   1      28.206  24.300  -9.417  0.00  0.00     0.167 HD
ENDBRANCH   3   5
ENDBRANCH   2   3
BRANCH   2   7
HETATM    7  C   UNK N   1      28.161  22.834  -7.427  0.00  0.00     0.054 C 
BRANCH   7   8
HETATM    8  C   UNK N   1      29.085  22.070  -6.542  0.00  0.00    -0.057 A 
HETATM    9  C   UNK N   1      29.329  22.607  -5.275  0.00  0.00     0.007 A 
HETATM   10  C   UNK N   1      30.211  21.978  -4.397  0.00  0.00     0.001 A 
HETATM   11  C   UNK N   1      30.857  20.804  -4.787  0.00  0.00     0.000 A 
HETATM   12  C   UNK N   1      30.612  20.256  -6.050  0.00  0.00     0.001 A 
HETATM   13  C   UNK N   1      29.723  20.887  -6.926  0.00  0.00     0.007 A 
ENDBRANCH   7   8
ENDBRANCH   2   7
ENDBRANCH   1   2
BRANCH   1  14
HETATM   14  C   UNK N   1      24.506  21.706  -7.209  0.00  0.00     0.145 C 
HETATM   15  O   UNK N   1      24.306  20.678  -6.590  0.00  0.00    -0.650 OA
BRANCH  14  16
HETATM   16  O   UNK N   1      23.606  22.084  -8.136  0.00  0.00    -0.776 OA
HETATM   17  H   UNK N   1      23.540  21.615  -8.945  0.00  0.00     0.167 HD
ENDBRANCH  14  16
ENDBRANCH   1  14
BRANCH   1  18
HETATM   18  C   UNK N   1      25.599  24.004  -6.646  0.00  0.00     0.054 C 
BRANCH  18  19
HETATM   19  C   UNK N   1      25.582  24.792  -5.387  0.00  0.00    -0.054 A 
HETATM   20  C   UNK N   1      25.229  26.133  -5.577  0.00  0.00     0.047 A 
HETATM   21  C   UNK N   1      25.632  27.056  -4.632  0.00  0.00     0.105 A 
HETATM   22  O   UNK N   1      25.493  28.372  -4.672  0.00  0.00    -0.323 OA
HETATM   23  C   UNK N   1      26.341  26.705  -3.556  0.00  0.00     0.105 A 
HETATM   24  C   UNK N   1      26.174  28.916  -3.577  0.00  0.00     0.352 A 
HETATM   25  O   UNK N   1      26.679  27.808  -2.888  0.00  0.00    -0.323 OA
HETATM   26  C   UNK N   1      26.672  25.383  -3.277  0.00  0.00     0.040 A 
HETATM   27  C   UNK N   1      26.303  24.412  -4.231  0.00  0.00     0.010 A 
ENDBRANCH  18  19
ENDBRANCH   1  18
TORSDOF 9
ENDMDL
MODEL 3
REMARK VINA RESULT:      -6.9     15.020     18.060
REMARK  9 active torsions:
REMARK  status: ('A' for Active; 'I' for Inactive)
REMARK    1  A    between atoms: C_1  and  C_2 
REMARK    2  A    between atoms: C_1  and  C_5 
REMARK    3  A    between atoms: C_1  and  C_12 
REMARK    4  A    between atoms: C_2  and  O_4 
REMARK    5  A    between atoms: C_5  and  C_6 
REMARK    6  A    between atoms: C_12  and  C_13 
REMARK    7  A    between atoms: C_12  and  C_16 
REMARK    8  A    between atoms: C_13  and  O_15 
REMARK    9  A    between atoms: C_16  and  C_17 
ROOT
HETATM    1  C   UNK N   1      26.329  23.227  -7.590  0.00  0.00     0.102 C 
ENDROOT
BRANCH   1   2
HETATM    2  C   UNK N   1      26.432  24.544  -8.421  0.00  0.00     0.102 C 
BRANCH   2   3
HETATM    3  C   UNK N   1      26.060  24.360  -9.899  0.00  0.00     0.145 C 
HETATM    4  O   UNK N   1      24.930  24.584 -10.303  0.00  0.00    -0.650 OA
BRANCH   3   5
HETATM    5  O   UNK N   1      26.971  23.891 -10.770  0.00  0.00    -0.776 OA
HETATM    6  H   UNK N   1      27.832  24.230 -10.915  0.00  0.00     0.167 HD
ENDBRANCH   3   5
ENDBRANCH   2   3
BRANCH   2   7
HETATM    7  C   UNK N   1      25.435  25.492  -7.721  0.00  0.00     0.054 C 
BRANCH   7   8
HETATM    8  C   UNK N   1      25.772  26.582  -6.763  0.00  0.00    -0.057 A 
HETATM    9  C   UNK N   1      26.971  27.268  -6.988  0.00  0.00     0.007 A 
HETATM   10  C   UNK N   1      27.383  28.277  -6.118  0.00  0.00     0.001 A 
HETATM   11  C   UNK N   1      26.595  28.603  -5.013  0.00  0.00     0.000 A 
HETATM   12  C   UNK N   1      25.393  27.927  -4.786  0.00  0.00     0.001 A 
HETATM   13  C   UNK N   1      24.979  26.919  -5.663  0.00  0.00     0.007 A 
ENDBRANCH   7   8
ENDBRANCH   2   7
ENDBRANCH   1   2
BRANCH   1  14
HETATM   14  C   UNK N   1      25.400  22.172  -8.190  0.00  0.00     0.145 C 
HETATM   15  O   UNK N   1      25.834  21.170  -8.725  0.00  0.00    -0.650 OA
BRANCH  14  16
HETATM   16  O   UNK N   1      24.069  22.375  -8.188  0.00  0.00    -0.776 OA
HETATM   17  H   UNK N   1      23.711  23.141  -7.783  0.00  0.00     0.167 HD
ENDBRANCH  14  16
ENDBRANCH   1  14
BRANCH   1  18
HETATM   18  C   UNK N   1      26.210  23.481  -6.086  0.00  0.00     0.054 C 
BRANCH  18  19
HETATM   19  C   UNK N   1      27.142  23.892  -5.006  0.00  0.00    -0.054 A 
HETATM   20  C   UNK N   1      28.461  23.474  -5.222  0.00  0.00     0.047 A 
HETATM   21  C   UNK N   1      29.297  23.353  -4.129  0.00  0.00     0.105 A 
HETATM   22  O   UNK N   1      30.534  22.881  -4.102  0.00  0.00    -0.323 OA
HETATM   23  C   UNK N   1      28.884  23.622  -2.888  0.00  0.00     0.105 A 
HETATM   24  C   UNK N   1      30.943  22.808  -2.767  0.00  0.00     0.352 A 
HETATM   25  O   UNK N   1      29.861  23.311  -2.036  0.00  0.00    -0.323 OA
HETATM   26  C   UNK N   1      27.607  24.099  -2.611  0.00  0.00     0.040 A 
HETATM   27  C   UNK N   1      26.713  24.211  -3.696  0.00  0.00     0.010 A 
ENDBRANCH  18  19
ENDBRANCH   1  18
TORSDOF 9
ENDMDL
MODEL 4
REMARK VINA RESULT:      -6.9     11.281     13.336
REMARK  9 active torsions:
REMARK  status: ('A' for Active; 'I' for Inactive)
REMARK    1  A    between atoms: C_1  and  C_2 
REMARK    2  A    between atoms: C_1  and  C_5 
REMARK    3  A    between atoms: C_1  and  C_12 
REMARK    4  A    between atoms: C_2  and  O_4 
REMARK    5  A    between atoms: C_5  and  C_6 
REMARK    6  A    between atoms: C_12  and  C_13 
REMARK    7  A    between atoms: C_12  and  C_16 
REMARK    8  A    between atoms: C_13  and  O_15 
REMARK    9  A    between atoms: C_16  and  C_17 
ROOT
HETATM    1  C   UNK N   1      34.293  16.050   9.263  0.00  0.00     0.102 C 
ENDROOT
BRANCH   1   2
HETATM    2  C   UNK N   1      33.536  17.336   8.804  0.00  0.00     0.102 C 
BRANCH   2   3
HETATM    3  C   UNK N   1      34.385  18.256   7.917  0.00  0.00     0.145 C 
HETATM    4  O   UNK N   1      34.323  18.199   6.698  0.00  0.00    -0.650 OA
BRANCH   3   5
HETATM    5  O   UNK N   1      35.262  19.111   8.474  0.00  0.00    -0.776 OA
HETATM    6  H   UNK N   1      35.447  19.983   8.192  0.00  0.00     0.167 HD
ENDBRANCH   3   5
ENDBRANCH   2   3
BRANCH   2   7
HETATM    7  C   UNK N   1      32.327  16.784   8.019  0.00  0.00     0.054 C 
BRANCH   7   8
HETATM    8  C   UNK N   1      30.963  17.379   7.960  0.00  0.00    -0.057 A 
HETATM    9  C   UNK N   1      30.543  18.103   9.080  0.00  0.00     0.007 A 
HETATM   10  C   UNK N   1      29.266  18.662   9.125  0.00  0.00     0.001 A 
HETATM   11  C   UNK N   1      28.399  18.494   8.045  0.00  0.00     0.000 A 
HETATM   12  C   UNK N   1      28.814  17.778   6.918  0.00  0.00     0.001 A 
HETATM   13  C   UNK N   1      30.097  17.224   6.874  0.00  0.00     0.007 A 
ENDBRANCH   7   8
ENDBRANCH   2   7
ENDBRANCH   1   2
BRANCH   1  14
HETATM   14  C   UNK N   1      35.090  16.215  10.556  0.00  0.00     0.145 C 
HETATM   15  O   UNK N   1      36.117  16.865  10.594  0.00  0.00    -0.650 OA
BRANCH  14  16
HETATM   16  O   UNK N   1      34.690  15.580  11.674  0.00  0.00    -0.776 OA
HETATM   17  H   UNK N   1      34.165  14.806  11.613  0.00  0.00     0.167 HD
ENDBRANCH  14  16
ENDBRANCH   1  14
BRANCH   1  18
HETATM   18  C   UNK N   1      34.987  15.325   8.108  0.00  0.00     0.054 C 
BRANCH  18  19
HETATM   19  C   UNK N   1      34.552  14.426   7.010  0.00  0.00    -0.054 A 
HETATM   20  C   UNK N   1      34.830  14.932   5.735  0.00  0.00     0.047 A 
HETATM   21  C   UNK N   1      34.080  14.472   4.670  0.00  0.00     0.105 A 
HETATM   22  O   UNK N   1      34.112  14.891   3.415  0.00  0.00    -0.323 OA
HETATM   23  C   UNK N   1      33.110  13.567   4.825  0.00  0.00     0.105 A 
HETATM   24  C   UNK N   1      33.086  14.247   2.714  0.00  0.00     0.352 A 
HETATM   25  O   UNK N   1      32.491  13.400   3.656  0.00  0.00    -0.323 OA
HETATM   26  C   UNK N   1      32.824  12.980   6.053  0.00  0.00     0.040 A 
HETATM   27  C   UNK N   1      33.548  13.442   7.171  0.00  0.00     0.010 A 
ENDBRANCH  18  19
ENDBRANCH   1  18
TORSDOF 9
ENDMDL
MODEL 5
REMARK VINA RESULT:      -6.9     15.546     17.859
REMARK  9 active torsions:
REMARK  status: ('A' for Active; 'I' for Inactive)
REMARK    1  A    between atoms: C_1  and  C_2 
REMARK    2  A    between atoms: C_1  and  C_5 
REMARK    3  A    between atoms: C_1  and  C_12 
REMARK    4  A    between atoms: C_2  and  O_4 
REMARK    5  A    between atoms: C_5  and  C_6 
REMARK    6  A    between atoms: C_12  and  C_13 
REMARK    7  A    between atoms: C_12  and  C_16 
REMARK    8  A    between atoms: C_13  and  O_15 
REMARK    9  A    between atoms: C_16  and  C_17 
ROOT
HETATM    1  C   UNK N   1      25.567  24.742  -8.349  0.00  0.00     0.102 C 
ENDROOT
BRANCH   1   2
HETATM    2  C   UNK N   1      25.612  23.569  -7.320  0.00  0.00     0.102 C 
BRANCH   2   3
HETATM    3  C   UNK N   1      25.122  22.235  -7.898  0.00  0.00     0.145 C 
HETATM    4  O   UNK N   1      25.900  21.329  -8.155  0.00  0.00    -0.650 OA
BRANCH   3   5
HETATM    5  O   UNK N   1      23.820  22.062  -8.186  0.00  0.00    -0.776 OA
HETATM    6  H   UNK N   1      23.462  21.773  -9.001  0.00  0.00     0.167 HD
ENDBRANCH   3   5
ENDBRANCH   2   3
BRANCH   2   7
HETATM    7  C   UNK N   1      27.105  23.482  -6.936  0.00  0.00     0.054 C 
BRANCH   7   8
HETATM    8  C   UNK N   1      27.671  23.548  -5.559  0.00  0.00    -0.057 A 
HETATM    9  C   UNK N   1      26.885  24.172  -4.585  0.00  0.00     0.007 A 
HETATM   10  C   UNK N   1      27.354  24.312  -3.280  0.00  0.00     0.001 A 
HETATM   11  C   UNK N   1      28.618  23.827  -2.942  0.00  0.00     0.000 A 
HETATM   12  C   UNK N   1      29.407  23.195  -3.909  0.00  0.00     0.001 A 
HETATM   13  C   UNK N   1      28.931  23.052  -5.216  0.00  0.00     0.007 A 
ENDBRANCH   7   8
ENDBRANCH   2   7
ENDBRANCH   1   2
BRANCH   1  14
HETATM   14  C   UNK N   1      25.876  24.332  -9.788  0.00  0.00     0.145 C 
HETATM   15  O   UNK N   1      27.006  24.056 -10.143  0.00  0.00    -0.650 OA
BRANCH  14  16
HETATM   16  O   UNK N   1      24.893  24.330 -10.709  0.00  0.00    -0.776 OA
HETATM   17  H   UNK N   1      24.578  25.139 -11.060  0.00  0.00     0.167 HD
ENDBRANCH  14  16
ENDBRANCH   1  14
BRANCH   1  18
HETATM   18  C   UNK N   1      26.242  26.013  -7.830  0.00  0.00     0.054 C 
BRANCH  18  19
HETATM   19  C   UNK N   1      25.984  26.973  -6.727  0.00  0.00    -0.054 A 
HETATM   20  C   UNK N   1      27.149  27.562  -6.220  0.00  0.00     0.047 A 
HETATM   21  C   UNK N   1      27.122  28.067  -4.935  0.00  0.00     0.105 A 
HETATM   22  O   UNK N   1      28.130  28.566  -4.238  0.00  0.00    -0.323 OA
HETATM   23  C   UNK N   1      26.026  28.009  -4.174  0.00  0.00     0.105 A 
HETATM   24  C   UNK N   1      27.679  28.821  -2.939  0.00  0.00     0.352 A 
HETATM   25  O   UNK N   1      26.326  28.466  -2.958  0.00  0.00    -0.323 OA
HETATM   26  C   UNK N   1      24.820  27.492  -4.637  0.00  0.00     0.040 A 
HETATM   27  C   UNK N   1      24.812  26.941  -5.935  0.00  0.00     0.010 A 
ENDBRANCH  18  19
ENDBRANCH   1  18
TORSDOF 9
ENDMDL
MODEL 6
REMARK VINA RESULT:      -6.7     15.660     17.426
REMARK  9 active torsions:
REMARK  status: ('A' for Active; 'I' for Inactive)
REMARK    1  A    between atoms: C_1  and  C_2 
REMARK    2  A    between atoms: C_1  and  C_5 
REMARK    3  A    between atoms: C_1  and  C_12 
REMARK    4  A    between atoms: C_2  and  O_4 
REMARK    5  A    between atoms: C_5  and  C_6 
REMARK    6  A    between atoms: C_12  and  C_13 
REMARK    7  A    between atoms: C_12  and  C_16 
REMARK    8  A    between atoms: C_13  and  O_15 
REMARK    9  A    between atoms: C_16  and  C_17 
ROOT
HETATM    1  C   UNK N   1      27.669  23.392  -7.281  0.00  0.00     0.102 C 
ENDROOT
BRANCH   1   2
HETATM    2  C   UNK N   1      26.144  23.715  -7.185  0.00  0.00     0.102 C 
BRANCH   2   3
HETATM    3  C   UNK N   1      25.247  22.535  -7.579  0.00  0.00     0.145 C 
HETATM    4  O   UNK N   1      24.726  21.822  -6.735  0.00  0.00    -0.650 OA
BRANCH   3   5
HETATM    5  O   UNK N   1      25.064  22.230  -8.877  0.00  0.00    -0.776 OA
HETATM    6  H   UNK N   1      25.617  22.475  -9.591  0.00  0.00     0.167 HD
ENDBRANCH   3   5
ENDBRANCH   2   3
BRANCH   2   7
HETATM    7  C   UNK N   1      25.945  24.080  -5.698  0.00  0.00     0.054 C 
BRANCH   7   8
HETATM    8  C   UNK N   1      25.809  25.452  -5.134  0.00  0.00    -0.057 A 
HETATM    9  C   UNK N   1      26.382  25.675  -3.877  0.00  0.00     0.007 A 
HETATM   10  C   UNK N   1      26.269  26.919  -3.258  0.00  0.00     0.001 A 
HETATM   11  C   UNK N   1      25.577  27.950  -3.894  0.00  0.00     0.000 A 
HETATM   12  C   UNK N   1      25.008  27.737  -5.154  0.00  0.00     0.001 A 
HETATM   13  C   UNK N   1      25.127  26.490  -5.775  0.00  0.00     0.007 A 
ENDBRANCH   7   8
ENDBRANCH   2   7
ENDBRANCH   1   2
BRANCH   1  14
HETATM   14  C   UNK N   1      28.113  22.840  -8.635  0.00  0.00     0.145 C 
HETATM   15  O   UNK N   1      27.859  23.420  -9.674  0.00  0.00    -0.650 OA
BRANCH  14  16
HETATM   16  O   UNK N   1      28.747  21.654  -8.699  0.00  0.00    -0.776 OA
HETATM   17  H   UNK N   1      29.664  21.622  -8.890  0.00  0.00     0.167 HD
ENDBRANCH  14  16
ENDBRANCH   1  14
BRANCH   1  18
HETATM   18  C   UNK N   1      28.205  22.685  -6.035  0.00  0.00     0.054 C 
BRANCH  18  19
HETATM   19  C   UNK N   1      29.312  22.928  -5.075  0.00  0.00    -0.054 A 
HETATM   20  C   UNK N   1      30.446  22.146  -5.328  0.00  0.00     0.047 A 
HETATM   21  C   UNK N   1      31.321  21.907  -4.286  0.00  0.00     0.105 A 
HETATM   22  O   UNK N   1      32.386  21.120  -4.286  0.00  0.00    -0.323 OA
HETATM   23  C   UNK N   1      31.116  22.397  -3.061  0.00  0.00     0.105 A 
HETATM   24  C   UNK N   1      32.888  21.067  -2.981  0.00  0.00     0.352 A 
HETATM   25  O   UNK N   1      32.053  21.914  -2.245  0.00  0.00    -0.323 OA
HETATM   26  C   UNK N   1      30.043  23.229  -2.759  0.00  0.00     0.040 A 
HETATM   27  C   UNK N   1      29.110  23.476  -3.787  0.00  0.00     0.010 A 
ENDBRANCH  18  19
ENDBRANCH   1  18
TORSDOF 9
ENDMDL
MODEL 7
REMARK VINA RESULT:      -6.6      1.090      1.961
REMARK  9 active torsions:
REMARK  status: ('A' for Active; 'I' for Inactive)
REMARK    1  A    between atoms: C_1  and  C_2 
REMARK    2  A    between atoms: C_1  and  C_5 
REMARK    3  A    between atoms: C_1  and  C_12 
REMARK    4  A    between atoms: C_2  and  O_4 
REMARK    5  A    between atoms: C_5  and  C_6 
REMARK    6  A    between atoms: C_12  and  C_13 
REMARK    7  A    between atoms: C_12  and  C_16 
REMARK    8  A    between atoms: C_13  and  O_15 
REMARK    9  A    between atoms: C_16  and  C_17 
ROOT
HETATM    1  C   UNK N   1      20.739  16.464   7.119  0.00  0.00     0.102 C 
ENDROOT
BRANCH   1   2
HETATM    2  C   UNK N   1      20.290  16.325   8.607  0.00  0.00     0.102 C 
BRANCH   2   3
HETATM    3  C   UNK N   1      18.969  17.044   8.913  0.00  0.00     0.145 C 
HETATM    4  O   UNK N   1      17.893  16.481   8.781  0.00  0.00    -0.650 OA
BRANCH   3   5
HETATM    5  O   UNK N   1      18.974  18.338   9.281  0.00  0.00    -0.776 OA
HETATM    6  H   UNK N   1      18.235  18.844   9.553  0.00  0.00     0.167 HD
ENDBRANCH   3   5
ENDBRANCH   2   3
BRANCH   2   7
HETATM    7  C   UNK N   1      20.139  14.801   8.799  0.00  0.00     0.054 C 
BRANCH   7   8
HETATM    8  C   UNK N   1      21.100  13.896   9.491  0.00  0.00    -0.057 A 
HETATM    9  C   UNK N   1      20.574  13.060  10.481  0.00  0.00     0.007 A 
HETATM   10  C   UNK N   1      21.408  12.209  11.206  0.00  0.00     0.001 A 
HETATM   11  C   UNK N   1      22.778  12.193  10.943  0.00  0.00     0.000 A 
HETATM   12  C   UNK N   1      23.310  13.021   9.949  0.00  0.00     0.001 A 
HETATM   13  C   UNK N   1      22.470  13.869   9.221  0.00  0.00     0.007 A 
ENDBRANCH   7   8
ENDBRANCH   2   7
ENDBRANCH   1   2
BRANCH   1  14
HETATM   14  C   UNK N   1      21.244  17.856   6.739  0.00  0.00     0.145 C 
HETATM   15  O   UNK N   1      20.859  18.854   7.319  0.00  0.00    -0.650 OA
BRANCH  14  16
HETATM   16  O   UNK N   1      22.089  18.001   5.701  0.00  0.00    -0.776 OA
HETATM   17  H   UNK N   1      22.069  18.783   5.185  0.00  0.00     0.167 HD
ENDBRANCH  14  16
ENDBRANCH   1  14
BRANCH   1  18
HETATM   18  C   UNK N   1      19.776  15.786   6.142  0.00  0.00     0.054 C 
BRANCH  18  19
HETATM   19  C   UNK N   1      19.914  14.834   5.011  0.00  0.00    -0.054 A 
HETATM   20  C   UNK N   1      20.004  15.464   3.764  0.00  0.00     0.047 A 
HETATM   21  C   UNK N   1      19.653  14.744   2.639  0.00  0.00     0.105 A 
HETATM   22  O   UNK N   1      19.570  15.177   1.391  0.00  0.00    -0.323 OA
HETATM   23  C   UNK N   1      19.235  13.478   2.711  0.00  0.00     0.105 A 
HETATM   24  C   UNK N   1      19.039  14.148   0.606  0.00  0.00     0.352 A 
HETATM   25  O   UNK N   1      18.862  13.081   1.494  0.00  0.00    -0.323 OA
HETATM   26  C   UNK N   1      19.179  12.775   3.910  0.00  0.00     0.040 A 
HETATM   27  C   UNK N   1      19.504  13.482   5.086  0.00  0.00     0.010 A 
ENDBRANCH  18  19
ENDBRANCH   1  18
TORSDOF 9
ENDMDL
MODEL 8
REMARK VINA RESULT:      -6.6     10.145     12.375
REMARK  9 active torsions:
REMARK  status: ('A' for Active; 'I' for Inactive)
REMARK    1  A    between atoms: C_1  and  C_2 
REMARK    2  A    between atoms: C_1  and  C_5 
REMARK    3  A    between atoms: C_1  and  C_12 
REMARK    4  A    between atoms: C_2  and  O_4 
REMARK    5  A    between atoms: C_5  and  C_6 
REMARK    6  A    between atoms: C_12  and  C_13 
REMARK    7  A    between atoms: C_12  and  C_16 
REMARK    8  A    between atoms: C_13  and  O_15 
REMARK    9  A    between atoms: C_16  and  C_17 
ROOT
HETATM    1  C   UNK N   1      33.251  16.572   8.060  0.00  0.00     0.102 C 
ENDROOT
BRANCH   1   2
HETATM    2  C   UNK N   1      33.956  15.193   7.864  0.00  0.00     0.102 C 
BRANCH   2   3
HETATM    3  C   UNK N   1      33.139  14.011   8.402  0.00  0.00     0.145 C 
HETATM    4  O   UNK N   1      32.336  13.419   7.697  0.00  0.00    -0.650 OA
BRANCH   3   5
HETATM    5  O   UNK N   1      33.255  13.640   9.690  0.00  0.00    -0.776 OA
HETATM    6  H   UNK N   1      32.869  14.064  10.430  0.00  0.00     0.167 HD
ENDBRANCH   3   5
ENDBRANCH   2   3
BRANCH   2   7
HETATM    7  C   UNK N   1      34.126  15.088   6.334  0.00  0.00     0.054 C 
BRANCH   7   8
HETATM    8  C   UNK N   1      33.225  15.670   5.300  0.00  0.00    -0.057 A 
HETATM    9  C   UNK N   1      33.434  17.013   4.968  0.00  0.00     0.007 A 
HETATM   10  C   UNK N   1      32.611  17.648   4.039  0.00  0.00     0.001 A 
HETATM   11  C   UNK N   1      31.569  16.941   3.438  0.00  0.00     0.000 A 
HETATM   12  C   UNK N   1      31.359  15.596   3.759  0.00  0.00     0.001 A 
HETATM   13  C   UNK N   1      32.189  14.960   4.688  0.00  0.00     0.007 A 
ENDBRANCH   7   8
ENDBRANCH   2   7
ENDBRANCH   1   2
BRANCH   1  14
HETATM   14  C   UNK N   1      34.169  17.683   8.569  0.00  0.00     0.145 C 
HETATM   15  O   UNK N   1      34.371  18.690   7.918  0.00  0.00    -0.650 OA
BRANCH  14  16
HETATM   16  O   UNK N   1      34.822  17.529   9.736  0.00  0.00    -0.776 OA
HETATM   17  H   UNK N   1      34.343  17.474  10.539  0.00  0.00     0.167 HD
ENDBRANCH  14  16
ENDBRANCH   1  14
BRANCH   1  18
HETATM   18  C   UNK N   1      31.878  16.448   8.723  0.00  0.00     0.054 C 
BRANCH  18  19
HETATM   19  C   UNK N   1      30.512  16.947   8.427  0.00  0.00    -0.054 A 
HETATM   20  C   UNK N   1      30.214  16.970   7.059  0.00  0.00     0.047 A 
HETATM   21  C   UNK N   1      29.226  17.827   6.618  0.00  0.00     0.105 A 
HETATM   22  O   UNK N   1      28.864  18.075   5.369  0.00  0.00    -0.323 OA
HETATM   23  C   UNK N   1      28.555  18.625   7.453  0.00  0.00     0.105 A 
HETATM   24  C   UNK N   1      27.927  19.113   5.384  0.00  0.00     0.352 A 
HETATM   25  O   UNK N   1      27.752  19.413   6.739  0.00  0.00    -0.323 OA
HETATM   26  C   UNK N   1      28.759  18.608   8.829  0.00  0.00     0.040 A 
HETATM   27  C   UNK N   1      29.779  17.765   9.318  0.00  0.00     0.010 A 
ENDBRANCH  18  19
ENDBRANCH   1  18
TORSDOF 9
ENDMDL
MODEL 9
REMARK VINA RESULT:      -6.5     15.829     17.606
REMARK  9 active torsions:
REMARK  status: ('A' for Active; 'I' for Inactive)
REMARK    1  A    between atoms: C_1  and  C_2 
REMARK    2  A    between atoms: C_1  and  C_5 
REMARK    3  A    between atoms: C_1  and  C_12 
REMARK    4  A    between atoms: C_2  and  O_4 
REMARK    5  A    between atoms: C_5  and  C_6 
REMARK    6  A    between atoms: C_12  and  C_13 
REMARK    7  A    between atoms: C_12  and  C_16 
REMARK    8  A    between atoms: C_13  and  O_15 
REMARK    9  A    between atoms: C_16  and  C_17 
ROOT
HETATM    1  C   UNK N   1      26.127  23.655  -7.190  0.00  0.00     0.102 C 
ENDROOT
BRANCH   1   2
HETATM    2  C   UNK N   1      27.182  22.525  -6.969  0.00  0.00     0.102 C 
BRANCH   2   3
HETATM    3  C   UNK N   1      27.532  21.761  -8.253  0.00  0.00     0.145 C 
HETATM    4  O   UNK N   1      27.027  20.678  -8.506  0.00  0.00    -0.650 OA
BRANCH   3   5
HETATM    5  O   UNK N   1      28.452  22.253  -9.101  0.00  0.00    -0.776 OA
HETATM    6  H   UNK N   1      28.601  23.156  -9.302  0.00  0.00     0.167 HD
ENDBRANCH   3   5
ENDBRANCH   2   3
BRANCH   2   7
HETATM    7  C   UNK N   1      28.415  23.283  -6.431  0.00  0.00     0.054 C 
BRANCH   7   8
HETATM    8  C   UNK N   1      29.123  23.023  -5.146  0.00  0.00    -0.057 A 
HETATM    9  C   UNK N   1      29.883  21.851  -5.072  0.00  0.00     0.007 A 
HETATM   10  C   UNK N   1      30.547  21.511  -3.893  0.00  0.00     0.001 A 
HETATM   11  C   UNK N   1      30.449  22.344  -2.778  0.00  0.00     0.000 A 
HETATM   12  C   UNK N   1      29.697  23.521  -2.847  0.00  0.00     0.001 A 
HETATM   13  C   UNK N   1      29.037  23.862  -4.032  0.00  0.00     0.007 A 
ENDBRANCH   7   8
ENDBRANCH   2   7
ENDBRANCH   1   2
BRANCH   1  14
HETATM   14  C   UNK N   1      25.127  23.373  -8.311  0.00  0.00     0.145 C 
HETATM   15  O   UNK N   1      25.035  24.101  -9.281  0.00  0.00    -0.650 OA
BRANCH  14  16
HETATM   16  O   UNK N   1      24.279  22.332  -8.205  0.00  0.00    -0.776 OA
HETATM   17  H   UNK N   1      23.355  22.482  -8.163  0.00  0.00     0.167 HD
ENDBRANCH  14  16
ENDBRANCH   1  14
BRANCH   1  18
HETATM   18  C   UNK N   1      26.739  25.056  -7.143  0.00  0.00     0.054 C 
BRANCH  18  19
HETATM   19  C   UNK N   1      26.429  26.322  -6.430  0.00  0.00    -0.054 A 
HETATM   20  C   UNK N   1      27.511  26.823  -5.695  0.00  0.00     0.047 A 
HETATM   21  C   UNK N   1      27.246  27.673  -4.640  0.00  0.00     0.105 A 
HETATM   22  O   UNK N   1      28.106  28.171  -3.765  0.00  0.00    -0.323 OA
HETATM   23  C   UNK N   1      26.002  28.024  -4.307  0.00  0.00     0.105 A 
HETATM   24  C   UNK N   1      27.382  28.862  -2.787  0.00  0.00     0.352 A 
HETATM   25  O   UNK N   1      26.047  28.753  -3.191  0.00  0.00    -0.323 OA
HETATM   26  C   UNK N   1      24.889  27.610  -5.031  0.00  0.00     0.040 A 
HETATM   27  C   UNK N   1      25.112  26.719  -6.101  0.00  0.00     0.010 A 
ENDBRANCH  18  19
ENDBRANCH   1  18
TORSDOF 9
ENDMDL
