MODEL 1
REMARK VINA RESULT:      -4.5      0.000      0.000
REMARK  14 active torsions:
REMARK  status: ('A' for Active; 'I' for Inactive)
REMARK    1  A    between atoms: C_1  and  C_2 
REMARK    2  A    between atoms: C_1  and  P_12 
REMARK    3  A    between atoms: C_2  and  C_3 
REMARK    4  A    between atoms: C_3  and  C_4 
REMARK    5  A    between atoms: C_4  and  C_5 
REMARK    6  A    between atoms: C_5  and  C_6 
REMARK    7  A    between atoms: C_6  and  C_7 
REMARK    8  A    between atoms: C_7  and  C_8 
REMARK    9  A    between atoms: C_8  and  C_9 
REMARK   10  A    between atoms: C_9  and  C_10 
REMARK   11  A    between atoms: P_12  and  O_14 
REMARK   12  A    between atoms: O_14  and  C_15 
REMARK   13  A    between atoms: C_15  and  C_16 
REMARK   14  A    between atoms: C_16  and  C_17 
ROOT
HETATM    1  C   UNK N   1      28.972  25.117  -4.317  0.00  0.00     0.009 C 
ENDROOT
BRANCH   1   2
HETATM    2  C   UNK N   1      30.158  24.812  -3.427  0.00  0.00     0.099 C 
BRANCH   2   3
HETATM    3  P   UNK N   1      30.227  23.004  -3.001  0.00  0.00     0.189 P 
HETATM    4  O   UNK N   1      30.355  23.084  -1.451  0.00  0.00    -0.294 OA
HETATM    5  H   UNK N   1      29.353  21.899  -3.365  0.00  0.00     0.128 HD
BRANCH   3   6
HETATM    6  O   UNK N   1      31.890  22.679  -3.409  0.00  0.00    -0.336 OA
BRANCH   6   7
HETATM    7  C   UNK N   1      32.063  21.296  -3.355  0.00  0.00     0.176 C 
BRANCH   7   8
HETATM    8  C   UNK N   1      33.493  21.000  -2.943  0.00  0.00     0.026 C 
BRANCH   8   9
HETATM    9  C   UNK N   1      34.088  19.916  -3.818  0.00  0.00    -0.002 C 
HETATM   10  C   UNK N   1      33.156  19.612  -4.976  0.00  0.00     0.005 C 
ENDBRANCH   8   9
ENDBRANCH   7   8
ENDBRANCH   6   7
ENDBRANCH   3   6
ENDBRANCH   2   3
ENDBRANCH   1   2
BRANCH   1  11
HETATM   11  C   UNK N   1      27.788  24.274  -3.867  0.00  0.00     0.000 C 
BRANCH  11  12
HETATM   12  C   UNK N   1      26.630  25.168  -3.449  0.00  0.00     0.000 C 
BRANCH  12  13
HETATM   13  C   UNK N   1      26.972  26.640  -3.633  0.00  0.00     0.000 C 
BRANCH  13  14
HETATM   14  C   UNK N   1      25.727  27.471  -3.916  0.00  0.00     0.000 C 
BRANCH  14  15
HETATM   15  C   UNK N   1      25.344  27.341  -5.379  0.00  0.00     0.000 C 
BRANCH  15  16
HETATM   16  C   UNK N   1      26.552  27.639  -6.244  0.00  0.00     0.000 C 
BRANCH  16  17
HETATM   17  C   UNK N   1      26.689  26.587  -7.321  0.00  0.00    -0.000 C 
BRANCH  17  18
HETATM   18  C   UNK N   1      25.712  25.465  -7.038  0.00  0.00    -0.005 C 
HETATM   19  C   UNK N   1      26.367  24.133  -7.334  0.00  0.00     0.005 C 
ENDBRANCH  17  18
ENDBRANCH  16  17
ENDBRANCH  15  16
ENDBRANCH  14  15
ENDBRANCH  13  14
ENDBRANCH  12  13
ENDBRANCH  11  12
ENDBRANCH   1  11
TORSDOF 14
ENDMDL
MODEL 2
REMARK VINA RESULT:      -4.4      1.624      2.553
REMARK  14 active torsions:
REMARK  status: ('A' for Active; 'I' for Inactive)
REMARK    1  A    between atoms: C_1  and  C_2 
REMARK    2  A    between atoms: C_1  and  P_12 
REMARK    3  A    between atoms: C_2  and  C_3 
REMARK    4  A    between atoms: C_3  and  C_4 
REMARK    5  A    between atoms: C_4  and  C_5 
REMARK    6  A    between atoms: C_5  and  C_6 
REMARK    7  A    between atoms: C_6  and  C_7 
REMARK    8  A    between atoms: C_7  and  C_8 
REMARK    9  A    between atoms: C_8  and  C_9 
REMARK   10  A    between atoms: C_9  and  C_10 
REMARK   11  A    between atoms: P_12  and  O_14 
REMARK   12  A    between atoms: O_14  and  C_15 
REMARK   13  A    between atoms: C_15  and  C_16 
REMARK   14  A    between atoms: C_16  and  C_17 
ROOT
HETATM    1  C   UNK N   1      29.364  25.192  -4.282  0.00  0.00     0.009 C 
ENDROOT
BRANCH   1   2
HETATM    2  C   UNK N   1      30.455  24.700  -3.355  0.00  0.00     0.099 C 
BRANCH   2   3
HETATM    3  P   UNK N   1      30.155  22.937  -2.847  0.00  0.00     0.189 P 
HETATM    4  O   UNK N   1      30.328  23.055  -1.303  0.00  0.00    -0.294 OA
HETATM    5  H   UNK N   1      29.065  22.024  -3.150  0.00  0.00     0.128 HD
BRANCH   3   6
HETATM    6  O   UNK N   1      31.707  22.257  -3.257  0.00  0.00    -0.336 OA
BRANCH   6   7
HETATM    7  C   UNK N   1      31.466  21.041  -3.896  0.00  0.00     0.176 C 
BRANCH   7   8
HETATM    8  C   UNK N   1      31.682  21.224  -5.387  0.00  0.00     0.026 C 
BRANCH   8   9
HETATM    9  C   UNK N   1      30.933  20.165  -6.169  0.00  0.00    -0.002 C 
HETATM   10  C   UNK N   1      29.633  20.735  -6.704  0.00  0.00     0.005 C 
ENDBRANCH   8   9
ENDBRANCH   7   8
ENDBRANCH   6   7
ENDBRANCH   3   6
ENDBRANCH   2   3
ENDBRANCH   1   2
BRANCH   1  11
HETATM   11  C   UNK N   1      29.296  24.274  -5.493  0.00  0.00     0.000 C 
BRANCH  11  12
HETATM   12  C   UNK N   1      27.847  23.999  -5.867  0.00  0.00     0.000 C 
BRANCH  12  13
HETATM   13  C   UNK N   1      26.911  24.277  -4.699  0.00  0.00     0.000 C 
BRANCH  13  14
HETATM   14  C   UNK N   1      25.493  24.563  -5.175  0.00  0.00     0.000 C 
BRANCH  14  15
HETATM   15  C   UNK N   1      25.505  25.718  -6.160  0.00  0.00     0.000 C 
BRANCH  15  16
HETATM   16  C   UNK N   1      25.085  26.990  -5.450  0.00  0.00     0.000 C 
BRANCH  16  17
HETATM   17  C   UNK N   1      26.219  27.990  -5.466  0.00  0.00    -0.000 C 
BRANCH  17  18
HETATM   18  C   UNK N   1      27.166  27.639  -6.594  0.00  0.00    -0.005 C 
HETATM   19  C   UNK N   1      28.108  28.797  -6.846  0.00  0.00     0.005 C 
ENDBRANCH  17  18
ENDBRANCH  16  17
ENDBRANCH  15  16
ENDBRANCH  14  15
ENDBRANCH  13  14
ENDBRANCH  12  13
ENDBRANCH  11  12
ENDBRANCH   1  11
TORSDOF 14
ENDMDL
MODEL 3
REMARK VINA RESULT:      -4.3     10.865     12.762
REMARK  14 active torsions:
REMARK  status: ('A' for Active; 'I' for Inactive)
REMARK    1  A    between atoms: C_1  and  C_2 
REMARK    2  A    between atoms: C_1  and  P_12 
REMARK    3  A    between atoms: C_2  and  C_3 
REMARK    4  A    between atoms: C_3  and  C_4 
REMARK    5  A    between atoms: C_4  and  C_5 
REMARK    6  A    between atoms: C_5  and  C_6 
REMARK    7  A    between atoms: C_6  and  C_7 
REMARK    8  A    between atoms: C_7  and  C_8 
REMARK    9  A    between atoms: C_8  and  C_9 
REMARK   10  A    between atoms: C_9  and  C_10 
REMARK   11  A    between atoms: P_12  and  O_14 
REMARK   12  A    between atoms: O_14  and  C_15 
REMARK   13  A    between atoms: C_15  and  C_16 
REMARK   14  A    between atoms: C_16  and  C_17 
ROOT
HETATM    1  C   UNK N   1      31.283  16.949   7.966  0.00  0.00     0.009 C 
ENDROOT
BRANCH   1   2
HETATM    2  C   UNK N   1      32.294  18.008   8.352  0.00  0.00     0.099 C 
BRANCH   2   3
HETATM    3  P   UNK N   1      34.020  17.317   8.342  0.00  0.00     0.189 P 
HETATM    4  O   UNK N   1      34.716  18.310   7.364  0.00  0.00    -0.294 OA
HETATM    5  H   UNK N   1      34.926  16.986   9.431  0.00  0.00     0.128 HD
BRANCH   3   6
HETATM    6  O   UNK N   1      33.781  15.971   7.261  0.00  0.00    -0.336 OA
BRANCH   6   7
HETATM    7  C   UNK N   1      34.424  16.287   6.065  0.00  0.00     0.176 C 
BRANCH   7   8
HETATM    8  C   UNK N   1      33.456  16.061   4.917  0.00  0.00     0.026 C 
BRANCH   8   9
HETATM    9  C   UNK N   1      32.908  17.380   4.413  0.00  0.00    -0.002 C 
HETATM   10  C   UNK N   1      32.134  17.165   3.127  0.00  0.00     0.005 C 
ENDBRANCH   8   9
ENDBRANCH   7   8
ENDBRANCH   6   7
ENDBRANCH   3   6
ENDBRANCH   2   3
ENDBRANCH   1   2
BRANCH   1  11
HETATM   11  C   UNK N   1      29.884  17.533   8.097  0.00  0.00     0.000 C 
BRANCH  11  12
HETATM   12  C   UNK N   1      29.200  17.577   6.738  0.00  0.00     0.000 C 
BRANCH  12  13
HETATM   13  C   UNK N   1      29.639  16.414   5.859  0.00  0.00     0.000 C 
BRANCH  13  14
HETATM   14  C   UNK N   1      28.659  16.174   4.719  0.00  0.00     0.000 C 
BRANCH  14  15
HETATM   15  C   UNK N   1      28.394  17.477   3.987  0.00  0.00     0.000 C 
BRANCH  15  16
HETATM   16  C   UNK N   1      26.902  17.645   3.781  0.00  0.00     0.000 C 
BRANCH  16  17
HETATM   17  C   UNK N   1      26.447  18.969   4.354  0.00  0.00    -0.000 C 
BRANCH  17  18
HETATM   18  C   UNK N   1      27.621  19.925   4.371  0.00  0.00    -0.005 C 
HETATM   19  C   UNK N   1      27.573  20.766   5.628  0.00  0.00     0.005 C 
ENDBRANCH  17  18
ENDBRANCH  16  17
ENDBRANCH  15  16
ENDBRANCH  14  15
ENDBRANCH  13  14
ENDBRANCH  12  13
ENDBRANCH  11  12
ENDBRANCH   1  11
TORSDOF 14
ENDMDL
MODEL 4
REMARK VINA RESULT:      -4.2     12.162     14.017
REMARK  14 active torsions:
REMARK  status: ('A' for Active; 'I' for Inactive)
REMARK    1  A    between atoms: C_1  and  C_2 
REMARK    2  A    between atoms: C_1  and  P_12 
REMARK    3  A    between atoms: C_2  and  C_3 
REMARK    4  A    between atoms: C_3  and  C_4 
REMARK    5  A    between atoms: C_4  and  C_5 
REMARK    6  A    between atoms: C_5  and  C_6 
REMARK    7  A    between atoms: C_6  and  C_7 
REMARK    8  A    between atoms: C_7  and  C_8 
REMARK    9  A    between atoms: C_8  and  C_9 
REMARK   10  A    between atoms: C_9  and  C_10 
REMARK   11  A    between atoms: P_12  and  O_14 
REMARK   12  A    between atoms: O_14  and  C_15 
REMARK   13  A    between atoms: C_15  and  C_16 
REMARK   14  A    between atoms: C_16  and  C_17 
ROOT
HETATM    1  C   UNK N   1      31.788  17.072   6.760  0.00  0.00     0.009 C 
ENDROOT
BRANCH   1   2
HETATM    2  C   UNK N   1      32.537  16.962   8.070  0.00  0.00     0.099 C 
BRANCH   2   3
HETATM    3  P   UNK N   1      34.049  18.044   8.069  0.00  0.00     0.189 P 
HETATM    4  O   UNK N   1      34.475  17.932   6.575  0.00  0.00    -0.294 OA
HETATM    5  H   UNK N   1      34.253  19.405   8.537  0.00  0.00     0.128 HD
BRANCH   3   6
HETATM    6  O   UNK N   1      35.192  16.934   8.777  0.00  0.00    -0.336 OA
BRANCH   6   7
HETATM    7  C   UNK N   1      34.645  16.496   9.982  0.00  0.00     0.176 C 
BRANCH   7   8
HETATM    8  C   UNK N   1      35.775  16.231  10.961  0.00  0.00     0.026 C 
BRANCH   8   9
HETATM    9  C   UNK N   1      35.791  14.774  11.377  0.00  0.00    -0.002 C 
HETATM   10  C   UNK N   1      36.085  14.659  12.860  0.00  0.00     0.005 C 
ENDBRANCH   8   9
ENDBRANCH   7   8
ENDBRANCH   6   7
ENDBRANCH   3   6
ENDBRANCH   2   3
ENDBRANCH   1   2
BRANCH   1  11
HETATM   11  C   UNK N   1      30.299  17.186   7.051  0.00  0.00     0.000 C 
BRANCH  11  12
HETATM   12  C   UNK N   1      30.070  17.945   8.349  0.00  0.00     0.000 C 
BRANCH  12  13
HETATM   13  C   UNK N   1      28.690  18.588   8.379  0.00  0.00     0.000 C 
BRANCH  13  14
HETATM   14  C   UNK N   1      28.179  18.879   6.974  0.00  0.00     0.000 C 
BRANCH  14  15
HETATM   15  C   UNK N   1      27.349  20.149   6.982  0.00  0.00     0.000 C 
BRANCH  15  16
HETATM   16  C   UNK N   1      27.582  20.912   5.694  0.00  0.00     0.000 C 
BRANCH  16  17
HETATM   17  C   UNK N   1      27.331  20.012   4.506  0.00  0.00    -0.000 C 
BRANCH  17  18
HETATM   18  C   UNK N   1      25.859  20.065   4.153  0.00  0.00    -0.005 C 
HETATM   19  C   UNK N   1      25.695  20.552   2.730  0.00  0.00     0.005 C 
ENDBRANCH  17  18
ENDBRANCH  16  17
ENDBRANCH  15  16
ENDBRANCH  14  15
ENDBRANCH  13  14
ENDBRANCH  12  13
ENDBRANCH  11  12
ENDBRANCH   1  11
TORSDOF 14
ENDMDL
MODEL 5
REMARK VINA RESULT:      -4.1      3.263      6.747
REMARK  14 active torsions:
REMARK  status: ('A' for Active; 'I' for Inactive)
REMARK    1  A    between atoms: C_1  and  C_2 
REMARK    2  A    between atoms: C_1  and  P_12 
REMARK    3  A    between atoms: C_2  and  C_3 
REMARK    4  A    between atoms: C_3  and  C_4 
REMARK    5  A    between atoms: C_4  and  C_5 
REMARK    6  A    between atoms: C_5  and  C_6 
REMARK    7  A    between atoms: C_6  and  C_7 
REMARK    8  A    between atoms: C_7  and  C_8 
REMARK    9  A    between atoms: C_8  and  C_9 
REMARK   10  A    between atoms: C_9  and  C_10 
REMARK   11  A    between atoms: P_12  and  O_14 
REMARK   12  A    between atoms: O_14  and  C_15 
REMARK   13  A    between atoms: C_15  and  C_16 
REMARK   14  A    between atoms: C_16  and  C_17 
ROOT
HETATM    1  C   UNK N   1      28.474  27.111  -3.939  0.00  0.00     0.009 C 
ENDROOT
BRANCH   1   2
HETATM    2  C   UNK N   1      27.585  27.961  -4.822  0.00  0.00     0.099 C 
BRANCH   2   3
HETATM    3  P   UNK N   1      25.861  28.063  -4.135  0.00  0.00     0.189 P 
HETATM    4  O   UNK N   1      26.092  27.481  -2.708  0.00  0.00    -0.294 OA
HETATM    5  H   UNK N   1      24.920  29.168  -4.068  0.00  0.00     0.128 HD
BRANCH   3   6
HETATM    6  O   UNK N   1      25.166  26.662  -4.905  0.00  0.00    -0.336 OA
BRANCH   6   7
HETATM    7  C   UNK N   1      25.389  26.794  -6.275  0.00  0.00     0.176 C 
BRANCH   7   8
HETATM    8  C   UNK N   1      25.795  25.443  -6.836  0.00  0.00     0.026 C 
BRANCH   8   9
HETATM    9  C   UNK N   1      25.784  24.389  -5.749  0.00  0.00    -0.002 C 
HETATM   10  C   UNK N   1      25.759  23.004  -6.367  0.00  0.00     0.005 C 
ENDBRANCH   8   9
ENDBRANCH   7   8
ENDBRANCH   6   7
ENDBRANCH   3   6
ENDBRANCH   2   3
ENDBRANCH   1   2
BRANCH   1  11
HETATM   11  C   UNK N   1      28.925  25.889  -4.724  0.00  0.00     0.000 C 
BRANCH  11  12
HETATM   12  C   UNK N   1      28.941  24.660  -3.827  0.00  0.00     0.000 C 
BRANCH  12  13
HETATM   13  C   UNK N   1      30.327  24.418  -3.245  0.00  0.00     0.000 C 
BRANCH  13  14
HETATM   14  C   UNK N   1      30.370  23.138  -2.420  0.00  0.00     0.000 C 
BRANCH  14  15
HETATM   15  C   UNK N   1      31.292  22.131  -3.083  0.00  0.00     0.000 C 
BRANCH  15  16
HETATM   16  C   UNK N   1      30.466  21.015  -3.691  0.00  0.00     0.000 C 
BRANCH  16  17
HETATM   17  C   UNK N   1      30.897  20.773  -5.120  0.00  0.00    -0.000 C 
BRANCH  17  18
HETATM   18  C   UNK N   1      30.523  21.979  -5.956  0.00  0.00    -0.005 C 
HETATM   19  C   UNK N   1      29.208  21.722  -6.660  0.00  0.00     0.005 C 
ENDBRANCH  17  18
ENDBRANCH  16  17
ENDBRANCH  15  16
ENDBRANCH  14  15
ENDBRANCH  13  14
ENDBRANCH  12  13
ENDBRANCH  11  12
ENDBRANCH   1  11
TORSDOF 14
ENDMDL
MODEL 6
REMARK VINA RESULT:      -4.1     18.623     22.779
REMARK  14 active torsions:
REMARK  status: ('A' for Active; 'I' for Inactive)
REMARK    1  A    between atoms: C_1  and  C_2 
REMARK    2  A    between atoms: C_1  and  P_12 
REMARK    3  A    between atoms: C_2  and  C_3 
REMARK    4  A    between atoms: C_3  and  C_4 
REMARK    5  A    between atoms: C_4  and  C_5 
REMARK    6  A    between atoms: C_5  and  C_6 
REMARK    7  A    between atoms: C_6  and  C_7 
REMARK    8  A    between atoms: C_7  and  C_8 
REMARK    9  A    between atoms: C_8  and  C_9 
REMARK   10  A    between atoms: C_9  and  C_10 
REMARK   11  A    between atoms: P_12  and  O_14 
REMARK   12  A    between atoms: O_14  and  C_15 
REMARK   13  A    between atoms: C_15  and  C_16 
REMARK   14  A    between atoms: C_16  and  C_17 
ROOT
HETATM    1  C   UNK N   1      36.675  13.663  13.376  0.00  0.00     0.009 C 
ENDROOT
BRANCH   1   2
HETATM    2  C   UNK N   1      35.539  14.191  12.528  0.00  0.00     0.099 C 
BRANCH   2   3
HETATM    3  P   UNK N   1      36.089  14.474  10.775  0.00  0.00     0.189 P 
HETATM    4  O   UNK N   1      37.512  13.844  10.820  0.00  0.00    -0.294 OA
HETATM    5  H   UNK N   1      35.451  14.156   9.507  0.00  0.00     0.128 HD
BRANCH   3   6
HETATM    6  O   UNK N   1      36.519  16.161  10.882  0.00  0.00    -0.336 OA
BRANCH   6   7
HETATM    7  C   UNK N   1      35.383  16.896  10.546  0.00  0.00     0.176 C 
BRANCH   7   8
HETATM    8  C   UNK N   1      34.750  16.278   9.312  0.00  0.00     0.026 C 
BRANCH   8   9
HETATM    9  C   UNK N   1      33.597  17.128   8.820  0.00  0.00    -0.002 C 
HETATM   10  C   UNK N   1      34.124  18.343   8.081  0.00  0.00     0.005 C 
ENDBRANCH   8   9
ENDBRANCH   7   8
ENDBRANCH   6   7
ENDBRANCH   3   6
ENDBRANCH   2   3
ENDBRANCH   1   2
BRANCH   1  11
HETATM   11  C   UNK N   1      36.497  14.159  14.803  0.00  0.00     0.000 C 
BRANCH  11  12
HETATM   12  C   UNK N   1      36.394  12.983  15.763  0.00  0.00     0.000 C 
BRANCH  12  13
HETATM   13  C   UNK N   1      35.330  13.227  16.825  0.00  0.00     0.000 C 
BRANCH  13  14
HETATM   14  C   UNK N   1      35.172  12.023  17.744  0.00  0.00     0.000 C 
BRANCH  14  15
HETATM   15  C   UNK N   1      36.277  11.019  17.471  0.00  0.00     0.000 C 
BRANCH  15  16
HETATM   16  C   UNK N   1      35.665   9.689  17.080  0.00  0.00     0.000 C 
BRANCH  16  17
HETATM   17  C   UNK N   1      34.419   9.916  16.255  0.00  0.00    -0.000 C 
BRANCH  17  18
HETATM   18  C   UNK N   1      34.777   9.813  14.787  0.00  0.00    -0.005 C 
HETATM   19  C   UNK N   1      33.928  10.778  13.988  0.00  0.00     0.005 C 
ENDBRANCH  17  18
ENDBRANCH  16  17
ENDBRANCH  15  16
ENDBRANCH  14  15
ENDBRANCH  13  14
ENDBRANCH  12  13
ENDBRANCH  11  12
ENDBRANCH   1  11
TORSDOF 14
ENDMDL
MODEL 7
REMARK VINA RESULT:      -4.0     11.744     13.652
REMARK  14 active torsions:
REMARK  status: ('A' for Active; 'I' for Inactive)
REMARK    1  A    between atoms: C_1  and  C_2 
REMARK    2  A    between atoms: C_1  and  P_12 
REMARK    3  A    between atoms: C_2  and  C_3 
REMARK    4  A    between atoms: C_3  and  C_4 
REMARK    5  A    between atoms: C_4  and  C_5 
REMARK    6  A    between atoms: C_5  and  C_6 
REMARK    7  A    between atoms: C_6  and  C_7 
REMARK    8  A    between atoms: C_7  and  C_8 
REMARK    9  A    between atoms: C_8  and  C_9 
REMARK   10  A    between atoms: C_9  and  C_10 
REMARK   11  A    between atoms: P_12  and  O_14 
REMARK   12  A    between atoms: O_14  and  C_15 
REMARK   13  A    between atoms: C_15  and  C_16 
REMARK   14  A    between atoms: C_16  and  C_17 
ROOT
HETATM    1  C   UNK N   1      33.830  16.884   5.432  0.00  0.00     0.009 C 
ENDROOT
BRANCH   1   2
HETATM    2  C   UNK N   1      33.885  16.493   6.893  0.00  0.00     0.099 C 
BRANCH   2   3
HETATM    3  P   UNK N   1      33.272  17.872   7.978  0.00  0.00     0.189 P 
HETATM    4  O   UNK N   1      34.304  17.796   9.142  0.00  0.00    -0.294 OA
HETATM    5  H   UNK N   1      32.969  19.263   7.681  0.00  0.00     0.128 HD
BRANCH   3   6
HETATM    6  O   UNK N   1      31.927  17.061   8.735  0.00  0.00    -0.336 OA
BRANCH   6   7
HETATM    7  C   UNK N   1      30.763  17.590   8.178  0.00  0.00     0.176 C 
BRANCH   7   8
HETATM    8  C   UNK N   1      30.140  18.551   9.174  0.00  0.00     0.026 C 
BRANCH   8   9
HETATM    9  C   UNK N   1      28.655  18.701   8.914  0.00  0.00    -0.002 C 
HETATM   10  C   UNK N   1      27.977  17.345   8.969  0.00  0.00     0.005 C 
ENDBRANCH   8   9
ENDBRANCH   7   8
ENDBRANCH   6   7
ENDBRANCH   3   6
ENDBRANCH   2   3
ENDBRANCH   1   2
BRANCH   1  11
HETATM   11  C   UNK N   1      32.381  17.135   5.043  0.00  0.00     0.000 C 
BRANCH  11  12
HETATM   12  C   UNK N   1      31.695  15.825   4.684  0.00  0.00     0.000 C 
BRANCH  12  13
HETATM   13  C   UNK N   1      30.205  15.876   4.997  0.00  0.00     0.000 C 
BRANCH  13  14
HETATM   14  C   UNK N   1      29.485  16.889   4.118  0.00  0.00     0.000 C 
BRANCH  14  15
HETATM   15  C   UNK N   1      28.289  17.456   4.861  0.00  0.00     0.000 C 
BRANCH  15  16
HETATM   16  C   UNK N   1      28.409  18.966   4.932  0.00  0.00     0.000 C 
BRANCH  16  17
HETATM   17  C   UNK N   1      27.203  19.548   5.633  0.00  0.00    -0.000 C 
BRANCH  17  18
HETATM   18  C   UNK N   1      27.459  21.014   5.914  0.00  0.00    -0.005 C 
HETATM   19  C   UNK N   1      26.475  21.512   6.950  0.00  0.00     0.005 C 
ENDBRANCH  17  18
ENDBRANCH  16  17
ENDBRANCH  15  16
ENDBRANCH  14  15
ENDBRANCH  13  14
ENDBRANCH  12  13
ENDBRANCH  11  12
ENDBRANCH   1  11
TORSDOF 14
ENDMDL
MODEL 8
REMARK VINA RESULT:      -4.0     17.674     21.945
REMARK  14 active torsions:
REMARK  status: ('A' for Active; 'I' for Inactive)
REMARK    1  A    between atoms: C_1  and  C_2 
REMARK    2  A    between atoms: C_1  and  P_12 
REMARK    3  A    between atoms: C_2  and  C_3 
REMARK    4  A    between atoms: C_3  and  C_4 
REMARK    5  A    between atoms: C_4  and  C_5 
REMARK    6  A    between atoms: C_5  and  C_6 
REMARK    7  A    between atoms: C_6  and  C_7 
REMARK    8  A    between atoms: C_7  and  C_8 
REMARK    9  A    between atoms: C_8  and  C_9 
REMARK   10  A    between atoms: C_9  and  C_10 
REMARK   11  A    between atoms: P_12  and  O_14 
REMARK   12  A    between atoms: O_14  and  C_15 
REMARK   13  A    between atoms: C_15  and  C_16 
REMARK   14  A    between atoms: C_16  and  C_17 
ROOT
HETATM    1  C   UNK N   1      35.385  13.322  12.332  0.00  0.00     0.009 C 
ENDROOT
BRANCH   1   2
HETATM    2  C   UNK N   1      35.834  14.765  12.263  0.00  0.00     0.099 C 
BRANCH   2   3
HETATM    3  P   UNK N   1      36.409  15.206  10.551  0.00  0.00     0.189 P 
HETATM    4  O   UNK N   1      36.242  16.754  10.588  0.00  0.00    -0.294 OA
HETATM    5  H   UNK N   1      37.623  14.860   9.829  0.00  0.00     0.128 HD
BRANCH   3   6
HETATM    6  O   UNK N   1      34.976  14.785   9.653  0.00  0.00    -0.336 OA
BRANCH   6   7
HETATM    7  C   UNK N   1      34.044  15.801   9.869  0.00  0.00     0.176 C 
BRANCH   7   8
HETATM    8  C   UNK N   1      33.282  16.044   8.579  0.00  0.00     0.026 C 
BRANCH   8   9
HETATM    9  C   UNK N   1      33.338  17.508   8.194  0.00  0.00    -0.002 C 
HETATM   10  C   UNK N   1      33.798  17.652   6.756  0.00  0.00     0.005 C 
ENDBRANCH   8   9
ENDBRANCH   7   8
ENDBRANCH   6   7
ENDBRANCH   3   6
ENDBRANCH   2   3
ENDBRANCH   1   2
BRANCH   1  11
HETATM   11  C   UNK N   1      36.613  12.424  12.368  0.00  0.00     0.000 C 
BRANCH  11  12
HETATM   12  C   UNK N   1      36.204  10.963  12.255  0.00  0.00     0.000 C 
BRANCH  12  13
HETATM   13  C   UNK N   1      35.913  10.362  13.624  0.00  0.00     0.000 C 
BRANCH  13  14
HETATM   14  C   UNK N   1      34.443   9.993  13.770  0.00  0.00     0.000 C 
BRANCH  14  15
HETATM   15  C   UNK N   1      33.757  10.975  14.702  0.00  0.00     0.000 C 
BRANCH  15  16
HETATM   16  C   UNK N   1      34.725  11.400  15.788  0.00  0.00     0.000 C 
BRANCH  16  17
HETATM   17  C   UNK N   1      34.629  12.893  16.011  0.00  0.00    -0.000 C 
BRANCH  17  18
HETATM   18  C   UNK N   1      35.016  13.200  17.442  0.00  0.00    -0.005 C 
HETATM   19  C   UNK N   1      35.312  11.911  18.177  0.00  0.00     0.005 C 
ENDBRANCH  17  18
ENDBRANCH  16  17
ENDBRANCH  15  16
ENDBRANCH  14  15
ENDBRANCH  13  14
ENDBRANCH  12  13
ENDBRANCH  11  12
ENDBRANCH   1  11
TORSDOF 14
ENDMDL
MODEL 9
REMARK VINA RESULT:      -4.0      1.666      2.230
REMARK  14 active torsions:
REMARK  status: ('A' for Active; 'I' for Inactive)
REMARK    1  A    between atoms: C_1  and  C_2 
REMARK    2  A    between atoms: C_1  and  P_12 
REMARK    3  A    between atoms: C_2  and  C_3 
REMARK    4  A    between atoms: C_3  and  C_4 
REMARK    5  A    between atoms: C_4  and  C_5 
REMARK    6  A    between atoms: C_5  and  C_6 
REMARK    7  A    between atoms: C_6  and  C_7 
REMARK    8  A    between atoms: C_7  and  C_8 
REMARK    9  A    between atoms: C_8  and  C_9 
REMARK   10  A    between atoms: C_9  and  C_10 
REMARK   11  A    between atoms: P_12  and  O_14 
REMARK   12  A    between atoms: O_14  and  C_15 
REMARK   13  A    between atoms: C_15  and  C_16 
REMARK   14  A    between atoms: C_16  and  C_17 
ROOT
HETATM    1  C   UNK N   1      28.775  24.685  -4.460  0.00  0.00     0.009 C 
ENDROOT
BRANCH   1   2
HETATM    2  C   UNK N   1      29.892  24.343  -3.497  0.00  0.00     0.099 C 
BRANCH   2   3
HETATM    3  P   UNK N   1      29.390  22.968  -2.352  0.00  0.00     0.189 P 
HETATM    4  O   UNK N   1      30.598  22.966  -1.367  0.00  0.00    -0.294 OA
HETATM    5  H   UNK N   1      28.158  22.734  -1.617  0.00  0.00     0.128 HD
BRANCH   3   6
HETATM    6  O   UNK N   1      29.827  21.601  -3.342  0.00  0.00    -0.336 OA
BRANCH   6   7
HETATM    7  C   UNK N   1      31.169  21.758  -3.688  0.00  0.00     0.176 C 
BRANCH   7   8
HETATM    8  C   UNK N   1      31.353  21.328  -5.132  0.00  0.00     0.026 C 
BRANCH   8   9
HETATM    9  C   UNK N   1      30.012  21.068  -5.787  0.00  0.00    -0.002 C 
HETATM   10  C   UNK N   1      29.783  22.054  -6.916  0.00  0.00     0.005 C 
ENDBRANCH   8   9
ENDBRANCH   7   8
ENDBRANCH   6   7
ENDBRANCH   3   6
ENDBRANCH   2   3
ENDBRANCH   1   2
BRANCH   1  11
HETATM   11  C   UNK N   1      28.220  26.055  -4.105  0.00  0.00     0.000 C 
BRANCH  11  12
HETATM   12  C   UNK N   1      26.755  25.947  -3.708  0.00  0.00     0.000 C 
BRANCH  12  13
HETATM   13  C   UNK N   1      25.898  26.947  -4.473  0.00  0.00     0.000 C 
BRANCH  13  14
HETATM   14  C   UNK N   1      25.080  26.264  -5.561  0.00  0.00     0.000 C 
BRANCH  14  15
HETATM   15  C   UNK N   1      25.587  26.687  -6.927  0.00  0.00     0.000 C 
BRANCH  15  16
HETATM   16  C   UNK N   1      26.654  25.715  -7.392  0.00  0.00     0.000 C 
BRANCH  16  17
HETATM   17  C   UNK N   1      26.202  25.017  -8.654  0.00  0.00    -0.000 C 
BRANCH  17  18
HETATM   18  C   UNK N   1      25.468  23.748  -8.277  0.00  0.00    -0.005 C 
HETATM   19  C   UNK N   1      26.188  23.064  -7.134  0.00  0.00     0.005 C 
ENDBRANCH  17  18
ENDBRANCH  16  17
ENDBRANCH  15  16
ENDBRANCH  14  15
ENDBRANCH  13  14
ENDBRANCH  12  13
ENDBRANCH  11  12
ENDBRANCH   1  11
TORSDOF 14
ENDMDL
