REMARK  14 active torsions:
REMARK  status: ('A' for Active; 'I' for Inactive)
REMARK    1  A    between atoms: C_1  and  C_2 
REMARK    2  A    between atoms: C_1  and  P_12 
REMARK    3  A    between atoms: C_2  and  C_3 
REMARK    4  A    between atoms: C_3  and  C_4 
REMARK    5  A    between atoms: C_4  and  C_5 
REMARK    6  A    between atoms: C_5  and  C_6 
REMARK    7  A    between atoms: C_6  and  C_7 
REMARK    8  A    between atoms: C_7  and  C_8 
REMARK    9  A    between atoms: C_8  and  C_9 
REMARK   10  A    between atoms: C_9  and  C_10 
REMARK   11  A    between atoms: P_12  and  O_14 
REMARK   12  A    between atoms: O_14  and  C_15 
REMARK   13  A    between atoms: C_15  and  C_16 
REMARK   14  A    between atoms: C_16  and  C_17 
ROOT
HETATM    1  C   UNK N   1       0.068   0.671   1.255  0.00  0.00     0.009 C 
ENDROOT
BRANCH   1   2
HETATM    2  C   UNK N   1       1.476   1.191   1.060  0.00  0.00     0.099 C 
BRANCH   2   3
HETATM    3  P   UNK N   1       2.534  -0.058   0.179  0.00  0.00     0.189 P 
HETATM    4  O   UNK N   1       3.110  -0.846   1.393  0.00  0.00    -0.294 OA
HETATM    5  H   UNK N   1       2.229  -0.979  -0.904  0.00  0.00     0.128 HD
BRANCH   3   6
HETATM    6  O   UNK N   1       3.911   0.946  -0.189  0.00  0.00    -0.336 OA
BRANCH   6   7
HETATM    7  C   UNK N   1       4.972   0.092  -0.489  0.00  0.00     0.176 C 
BRANCH   7   8
HETATM    8  C   UNK N   1       6.027   0.227   0.594  0.00  0.00     0.026 C 
BRANCH   8   9
HETATM    9  C   UNK N   1       7.233  -0.632   0.275  0.00  0.00    -0.002 C 
HETATM   10  C   UNK N   1       8.142   0.089  -0.702  0.00  0.00     0.005 C 
ENDBRANCH   8   9
ENDBRANCH   7   8
ENDBRANCH   6   7
ENDBRANCH   3   6
ENDBRANCH   2   3
ENDBRANCH   1   2
BRANCH   1  11
HETATM   11  C   UNK N   1      -0.824   1.241   0.163  0.00  0.00     0.000 C 
BRANCH  11  12
HETATM   12  C   UNK N   1      -0.719   0.399  -1.100  0.00  0.00     0.000 C 
BRANCH  12  13
HETATM   13  C   UNK N   1      -1.993  -0.399  -1.341  0.00  0.00     0.000 C 
BRANCH  13  14
HETATM   14  C   UNK N   1      -2.262  -1.378  -0.206  0.00  0.00     0.000 C 
BRANCH  14  15
HETATM   15  C   UNK N   1      -3.342  -0.824   0.705  0.00  0.00     0.000 C 
BRANCH  15  16
HETATM   16  C   UNK N   1      -4.703  -1.090   0.093  0.00  0.00     0.000 C 
BRANCH  16  17
HETATM   17  C   UNK N   1      -5.652   0.037   0.433  0.00  0.00    -0.000 C 
BRANCH  17  18
HETATM   18  C   UNK N   1      -6.987  -0.229  -0.230  0.00  0.00    -0.005 C 
HETATM   19  C   UNK N   1      -7.890   0.973  -0.055  0.00  0.00     0.005 C 
ENDBRANCH  17  18
ENDBRANCH  16  17
ENDBRANCH  15  16
ENDBRANCH  14  15
ENDBRANCH  13  14
ENDBRANCH  12  13
ENDBRANCH  11  12
ENDBRANCH   1  11
TORSDOF 14
