MODEL 1
REMARK VINA RESULT:      -5.1      0.000      0.000
REMARK  16 active torsions:
REMARK  status: ('A' for Active; 'I' for Inactive)
REMARK    1  A    between atoms: C_1  and  C_2 
REMARK    2  A    between atoms: C_1  and  S_19 
REMARK    3  A    between atoms: C_2  and  C_3 
REMARK    4  A    between atoms: C_3  and  N_8 
REMARK    5  A    between atoms: C_5  and  C_6 
REMARK    6  A    between atoms: C_6  and  C_7 
REMARK    7  A    between atoms: C_7  and  C_11 
REMARK    8  A    between atoms: N_8  and  C_18 
REMARK    9  A    between atoms: C_11  and  C_12 
REMARK   10  A    between atoms: C_12  and  C_13 
REMARK   11  A    between atoms: C_13  and  C_14 
REMARK   12  A    between atoms: C_14  and  C_15 
REMARK   13  A    between atoms: C_15  and  C_16 
REMARK   14  A    between atoms: C_16  and  C_17 
REMARK   15  A    between atoms: C_17  and  C_18 
REMARK   16  A    between atoms: S_19  and  O_22 
ROOT
HETATM    1  C   UNK N   1      28.317  27.252  -4.154  0.00  0.00     0.236 C 
ENDROOT
BRANCH   1   2
HETATM    2  N   UNK N   1      29.212  26.107  -4.335  0.00  0.00    -0.075 N 
HETATM    3  C   UNK N   1      29.453  25.893  -5.757  0.00  0.00     0.272 C 
HETATM    4  C   UNK N   1      30.485  26.340  -3.650  0.00  0.00     0.272 C 
BRANCH   2   5
HETATM    5  C   UNK N   1      28.521  24.943  -3.775  0.00  0.00     0.237 C 
BRANCH   5   6
HETATM    6  C   UNK N   1      29.056  23.598  -4.269  0.00  0.00     0.044 C 
BRANCH   6   7
HETATM    7  C   UNK N   1      29.566  22.805  -3.071  0.00  0.00     0.157 C 
BRANCH   7   8
HETATM    8  S   UNK N   1      31.371  22.574  -3.174  0.00  0.00     0.094 S 
HETATM    9  O   UNK N   1      32.036  21.650  -2.143  0.00  0.00    -0.601 OA
HETATM   10  O   UNK N   1      30.662  21.266  -3.559  0.00  0.00    -0.601 OA
BRANCH   8  11
HETATM   11  O   UNK N   1      30.695  23.064  -1.673  0.00  0.00    -0.296 OA
HETATM   12  H   UNK N   1      29.983  23.624  -1.326  0.00  0.00     0.232 HD
ENDBRANCH   8  11
ENDBRANCH   7   8
ENDBRANCH   6   7
ENDBRANCH   5   6
ENDBRANCH   2   5
ENDBRANCH   1   2
BRANCH   1  13
HETATM   13  C   UNK N   1      26.860  26.856  -3.906  0.00  0.00     0.028 C 
BRANCH  13  14
HETATM   14  C   UNK N   1      25.967  27.338  -5.040  0.00  0.00     0.002 C 
BRANCH  14  15
HETATM   15  C   UNK N   1      25.082  26.216  -5.562  0.00  0.00     0.000 C 
BRANCH  15  16
HETATM   16  C   UNK N   1      25.847  25.356  -6.557  0.00  0.00     0.000 C 
BRANCH  16  17
HETATM   17  C   UNK N   1      25.798  23.892  -6.165  0.00  0.00     0.000 C 
BRANCH  17  18
HETATM   18  C   UNK N   1      26.212  23.040  -7.347  0.00  0.00     0.000 C 
BRANCH  18  19
HETATM   19  C   UNK N   1      25.267  21.869  -7.506  0.00  0.00     0.000 C 
BRANCH  19  20
HETATM   20  C   UNK N   1      26.039  20.719  -8.116  0.00  0.00     0.000 C 
BRANCH  20  21
HETATM   21  C   UNK N   1      27.429  21.164  -8.514  0.00  0.00    -0.000 C 
BRANCH  21  22
HETATM   22  C   UNK N   1      28.431  20.176  -7.952  0.00  0.00    -0.005 C 
HETATM   23  C   UNK N   1      29.385  20.887  -7.015  0.00  0.00     0.005 C 
ENDBRANCH  21  22
ENDBRANCH  20  21
ENDBRANCH  19  20
ENDBRANCH  18  19
ENDBRANCH  17  18
ENDBRANCH  16  17
ENDBRANCH  15  16
ENDBRANCH  14  15
ENDBRANCH  13  14
ENDBRANCH   1  13
TORSDOF 16
ENDMDL
MODEL 2
REMARK VINA RESULT:      -5.0      3.693      5.719
REMARK  16 active torsions:
REMARK  status: ('A' for Active; 'I' for Inactive)
REMARK    1  A    between atoms: C_1  and  C_2 
REMARK    2  A    between atoms: C_1  and  S_19 
REMARK    3  A    between atoms: C_2  and  C_3 
REMARK    4  A    between atoms: C_3  and  N_8 
REMARK    5  A    between atoms: C_5  and  C_6 
REMARK    6  A    between atoms: C_6  and  C_7 
REMARK    7  A    between atoms: C_7  and  C_11 
REMARK    8  A    between atoms: N_8  and  C_18 
REMARK    9  A    between atoms: C_11  and  C_12 
REMARK   10  A    between atoms: C_12  and  C_13 
REMARK   11  A    between atoms: C_13  and  C_14 
REMARK   12  A    between atoms: C_14  and  C_15 
REMARK   13  A    between atoms: C_15  and  C_16 
REMARK   14  A    between atoms: C_16  and  C_17 
REMARK   15  A    between atoms: C_17  and  C_18 
REMARK   16  A    between atoms: S_19  and  O_22 
ROOT
HETATM    1  C   UNK N   1      26.908  24.122  -5.627  0.00  0.00     0.236 C 
ENDROOT
BRANCH   1   2
HETATM    2  N   UNK N   1      26.391  25.135  -6.551  0.00  0.00    -0.075 N 
HETATM    3  C   UNK N   1      27.474  26.022  -6.961  0.00  0.00     0.272 C 
HETATM    4  C   UNK N   1      25.804  24.497  -7.732  0.00  0.00     0.272 C 
BRANCH   2   5
HETATM    5  C   UNK N   1      25.383  25.899  -5.814  0.00  0.00     0.237 C 
BRANCH   5   6
HETATM    6  C   UNK N   1      25.658  27.403  -5.749  0.00  0.00     0.044 C 
BRANCH   6   7
HETATM    7  C   UNK N   1      25.406  27.885  -4.326  0.00  0.00     0.157 C 
BRANCH   7   8
HETATM    8  S   UNK N   1      26.980  28.212  -3.469  0.00  0.00     0.094 S 
HETATM    9  O   UNK N   1      26.946  29.112  -2.224  0.00  0.00    -0.601 OA
HETATM   10  O   UNK N   1      26.086  27.331  -2.582  0.00  0.00    -0.601 OA
BRANCH   8  11
HETATM   11  O   UNK N   1      26.016  29.552  -3.945  0.00  0.00    -0.296 OA
HETATM   12  H   UNK N   1      25.249  30.061  -3.640  0.00  0.00     0.232 HD
ENDBRANCH   8  11
ENDBRANCH   7   8
ENDBRANCH   6   7
ENDBRANCH   5   6
ENDBRANCH   2   5
ENDBRANCH   1   2
BRANCH   1  13
HETATM   13  C   UNK N   1      26.229  24.144  -4.256  0.00  0.00     0.028 C 
BRANCH  13  14
HETATM   14  C   UNK N   1      27.262  24.144  -3.140  0.00  0.00     0.002 C 
BRANCH  14  15
HETATM   15  C   UNK N   1      28.651  23.820  -3.671  0.00  0.00     0.000 C 
BRANCH  15  16
HETATM   16  C   UNK N   1      29.397  22.925  -2.693  0.00  0.00     0.000 C 
BRANCH  16  17
HETATM   17  C   UNK N   1      30.887  23.209  -2.722  0.00  0.00     0.000 C 
BRANCH  17  18
HETATM   18  C   UNK N   1      31.211  24.073  -3.923  0.00  0.00     0.000 C 
BRANCH  18  19
HETATM   19  C   UNK N   1      32.358  23.471  -4.707  0.00  0.00     0.000 C 
BRANCH  19  20
HETATM   20  C   UNK N   1      31.780  22.712  -5.882  0.00  0.00     0.000 C 
BRANCH  20  21
HETATM   21  C   UNK N   1      31.891  21.221  -5.658  0.00  0.00    -0.000 C 
BRANCH  21  22
HETATM   22  C   UNK N   1      30.497  20.627  -5.660  0.00  0.00    -0.005 C 
HETATM   23  C   UNK N   1      29.557  21.523  -6.439  0.00  0.00     0.005 C 
ENDBRANCH  21  22
ENDBRANCH  20  21
ENDBRANCH  19  20
ENDBRANCH  18  19
ENDBRANCH  17  18
ENDBRANCH  16  17
ENDBRANCH  15  16
ENDBRANCH  14  15
ENDBRANCH  13  14
ENDBRANCH   1  13
TORSDOF 16
ENDMDL
MODEL 3
REMARK VINA RESULT:      -5.0      2.602      5.501
REMARK  16 active torsions:
REMARK  status: ('A' for Active; 'I' for Inactive)
REMARK    1  A    between atoms: C_1  and  C_2 
REMARK    2  A    between atoms: C_1  and  S_19 
REMARK    3  A    between atoms: C_2  and  C_3 
REMARK    4  A    between atoms: C_3  and  N_8 
REMARK    5  A    between atoms: C_5  and  C_6 
REMARK    6  A    between atoms: C_6  and  C_7 
REMARK    7  A    between atoms: C_7  and  C_11 
REMARK    8  A    between atoms: N_8  and  C_18 
REMARK    9  A    between atoms: C_11  and  C_12 
REMARK   10  A    between atoms: C_12  and  C_13 
REMARK   11  A    between atoms: C_13  and  C_14 
REMARK   12  A    between atoms: C_14  and  C_15 
REMARK   13  A    between atoms: C_15  and  C_16 
REMARK   14  A    between atoms: C_16  and  C_17 
REMARK   15  A    between atoms: C_17  and  C_18 
REMARK   16  A    between atoms: S_19  and  O_22 
ROOT
HETATM    1  C   UNK N   1      27.536  26.292  -5.600  0.00  0.00     0.236 C 
ENDROOT
BRANCH   1   2
HETATM    2  N   UNK N   1      26.796  25.365  -4.742  0.00  0.00    -0.075 N 
HETATM    3  C   UNK N   1      26.520  26.000  -3.458  0.00  0.00     0.272 C 
HETATM    4  C   UNK N   1      25.536  24.975  -5.378  0.00  0.00     0.272 C 
BRANCH   2   5
HETATM    5  C   UNK N   1      27.662  24.202  -4.537  0.00  0.00     0.237 C 
BRANCH   5   6
HETATM    6  C   UNK N   1      28.926  24.495  -3.727  0.00  0.00     0.044 C 
BRANCH   6   7
HETATM    7  C   UNK N   1      29.325  23.233  -2.971  0.00  0.00     0.157 C 
BRANCH   7   8
HETATM    8  S   UNK N   1      31.128  22.983  -3.041  0.00  0.00     0.094 S 
HETATM    9  O   UNK N   1      31.723  21.816  -2.239  0.00  0.00    -0.601 OA
HETATM   10  O   UNK N   1      30.421  21.830  -3.771  0.00  0.00    -0.601 OA
BRANCH   8  11
HETATM   11  O   UNK N   1      30.381  23.108  -1.500  0.00  0.00    -0.296 OA
HETATM   12  H   UNK N   1      29.498  23.183  -1.106  0.00  0.00     0.232 HD
ENDBRANCH   8  11
ENDBRANCH   7   8
ENDBRANCH   6   7
ENDBRANCH   5   6
ENDBRANCH   2   5
ENDBRANCH   1   2
BRANCH   1  13
HETATM   13  C   UNK N   1      26.803  27.612  -5.849  0.00  0.00     0.028 C 
BRANCH  13  14
HETATM   14  C   UNK N   1      27.762  28.677  -6.359  0.00  0.00     0.002 C 
BRANCH  14  15
HETATM   15  C   UNK N   1      27.765  29.899  -5.452  0.00  0.00     0.000 C 
BRANCH  15  16
HETATM   16  C   UNK N   1      26.690  29.768  -4.382  0.00  0.00     0.000 C 
BRANCH  16  17
HETATM   17  C   UNK N   1      27.196  30.256  -3.039  0.00  0.00     0.000 C 
BRANCH  17  18
HETATM   18  C   UNK N   1      28.136  29.225  -2.450  0.00  0.00     0.000 C 
BRANCH  18  19
HETATM   19  C   UNK N   1      29.427  29.882  -2.011  0.00  0.00     0.000 C 
BRANCH  19  20
HETATM   20  C   UNK N   1      30.580  29.104  -2.608  0.00  0.00     0.000 C 
BRANCH  20  21
HETATM   21  C   UNK N   1      30.074  27.870  -3.322  0.00  0.00    -0.000 C 
BRANCH  21  22
HETATM   22  C   UNK N   1      30.858  27.701  -4.608  0.00  0.00    -0.005 C 
HETATM   23  C   UNK N   1      31.989  26.717  -4.396  0.00  0.00     0.005 C 
ENDBRANCH  21  22
ENDBRANCH  20  21
ENDBRANCH  19  20
ENDBRANCH  18  19
ENDBRANCH  17  18
ENDBRANCH  16  17
ENDBRANCH  15  16
ENDBRANCH  14  15
ENDBRANCH  13  14
ENDBRANCH   1  13
TORSDOF 16
ENDMDL
MODEL 4
REMARK VINA RESULT:      -5.0     11.108     13.459
REMARK  16 active torsions:
REMARK  status: ('A' for Active; 'I' for Inactive)
REMARK    1  A    between atoms: C_1  and  C_2 
REMARK    2  A    between atoms: C_1  and  S_19 
REMARK    3  A    between atoms: C_2  and  C_3 
REMARK    4  A    between atoms: C_3  and  N_8 
REMARK    5  A    between atoms: C_5  and  C_6 
REMARK    6  A    between atoms: C_6  and  C_7 
REMARK    7  A    between atoms: C_7  and  C_11 
REMARK    8  A    between atoms: N_8  and  C_18 
REMARK    9  A    between atoms: C_11  and  C_12 
REMARK   10  A    between atoms: C_12  and  C_13 
REMARK   11  A    between atoms: C_13  and  C_14 
REMARK   12  A    between atoms: C_14  and  C_15 
REMARK   13  A    between atoms: C_15  and  C_16 
REMARK   14  A    between atoms: C_16  and  C_17 
REMARK   15  A    between atoms: C_17  and  C_18 
REMARK   16  A    between atoms: S_19  and  O_22 
ROOT
HETATM    1  C   UNK N   1      22.865  16.462   5.267  0.00  0.00     0.236 C 
ENDROOT
BRANCH   1   2
HETATM    2  N   UNK N   1      21.615  17.223   5.319  0.00  0.00    -0.075 N 
HETATM    3  C   UNK N   1      20.590  16.537   4.540  0.00  0.00     0.272 C 
HETATM    4  C   UNK N   1      21.163  17.369   6.705  0.00  0.00     0.272 C 
BRANCH   2   5
HETATM    5  C   UNK N   1      21.895  18.529   4.720  0.00  0.00     0.237 C 
BRANCH   5   6
HETATM    6  C   UNK N   1      21.524  18.633   3.239  0.00  0.00     0.044 C 
BRANCH   6   7
HETATM    7  C   UNK N   1      21.848  20.040   2.752  0.00  0.00     0.157 C 
BRANCH   7   8
HETATM    8  S   UNK N   1      20.618  20.597   1.528  0.00  0.00     0.094 S 
HETATM    9  O   UNK N   1      20.725  22.038   1.008  0.00  0.00    -0.601 OA
HETATM   10  O   UNK N   1      21.996  20.488   0.858  0.00  0.00    -0.601 OA
BRANCH   8  11
HETATM   11  O   UNK N   1      20.844  21.540   2.946  0.00  0.00    -0.296 OA
HETATM   12  H   UNK N   1      21.159  22.419   3.211  0.00  0.00     0.232 HD
ENDBRANCH   8  11
ENDBRANCH   7   8
ENDBRANCH   6   7
ENDBRANCH   5   6
ENDBRANCH   2   5
ENDBRANCH   1   2
BRANCH   1  13
HETATM   13  C   UNK N   1      24.112  17.342   5.161  0.00  0.00     0.028 C 
BRANCH  13  14
HETATM   14  C   UNK N   1      25.045  16.832   4.073  0.00  0.00     0.002 C 
BRANCH  14  15
HETATM   15  C   UNK N   1      26.078  17.883   3.692  0.00  0.00     0.000 C 
BRANCH  15  16
HETATM   16  C   UNK N   1      25.390  19.179   3.288  0.00  0.00     0.000 C 
BRANCH  16  17
HETATM   17  C   UNK N   1      25.881  20.341   4.130  0.00  0.00     0.000 C 
BRANCH  17  18
HETATM   18  C   UNK N   1      27.370  20.198   4.367  0.00  0.00     0.000 C 
BRANCH  18  19
HETATM   19  C   UNK N   1      27.743  20.766   5.720  0.00  0.00     0.000 C 
BRANCH  19  20
HETATM   20  C   UNK N   1      27.517  19.690   6.761  0.00  0.00     0.000 C 
BRANCH  20  21
HETATM   21  C   UNK N   1      28.351  18.467   6.451  0.00  0.00    -0.000 C 
BRANCH  21  22
HETATM   22  C   UNK N   1      29.098  18.061   7.705  0.00  0.00    -0.005 C 
HETATM   23  C   UNK N   1      28.236  18.316   8.923  0.00  0.00     0.005 C 
ENDBRANCH  21  22
ENDBRANCH  20  21
ENDBRANCH  19  20
ENDBRANCH  18  19
ENDBRANCH  17  18
ENDBRANCH  16  17
ENDBRANCH  15  16
ENDBRANCH  14  15
ENDBRANCH  13  14
ENDBRANCH   1  13
TORSDOF 16
ENDMDL
MODEL 5
REMARK VINA RESULT:      -5.0      2.039      4.950
REMARK  16 active torsions:
REMARK  status: ('A' for Active; 'I' for Inactive)
REMARK    1  A    between atoms: C_1  and  C_2 
REMARK    2  A    between atoms: C_1  and  S_19 
REMARK    3  A    between atoms: C_2  and  C_3 
REMARK    4  A    between atoms: C_3  and  N_8 
REMARK    5  A    between atoms: C_5  and  C_6 
REMARK    6  A    between atoms: C_6  and  C_7 
REMARK    7  A    between atoms: C_7  and  C_11 
REMARK    8  A    between atoms: N_8  and  C_18 
REMARK    9  A    between atoms: C_11  and  C_12 
REMARK   10  A    between atoms: C_12  and  C_13 
REMARK   11  A    between atoms: C_13  and  C_14 
REMARK   12  A    between atoms: C_14  and  C_15 
REMARK   13  A    between atoms: C_15  and  C_16 
REMARK   14  A    between atoms: C_16  and  C_17 
REMARK   15  A    between atoms: C_17  and  C_18 
REMARK   16  A    between atoms: S_19  and  O_22 
ROOT
HETATM    1  C   UNK N   1      27.721  23.854  -7.310  0.00  0.00     0.236 C 
ENDROOT
BRANCH   1   2
HETATM    2  N   UNK N   1      28.738  23.375  -6.371  0.00  0.00    -0.075 N 
HETATM    3  C   UNK N   1      29.076  21.990  -6.679  0.00  0.00     0.272 C 
HETATM    4  C   UNK N   1      29.942  24.204  -6.453  0.00  0.00     0.272 C 
BRANCH   2   5
HETATM    5  C   UNK N   1      28.142  23.449  -5.035  0.00  0.00     0.237 C 
BRANCH   5   6
HETATM    6  C   UNK N   1      29.064  24.042  -3.968  0.00  0.00     0.044 C 
BRANCH   6   7
HETATM    7  C   UNK N   1      29.511  22.925  -3.032  0.00  0.00     0.157 C 
BRANCH   7   8
HETATM    8  S   UNK N   1      31.327  22.775  -3.031  0.00  0.00     0.094 S 
HETATM    9  O   UNK N   1      31.961  21.750  -2.079  0.00  0.00    -0.601 OA
HETATM   10  O   UNK N   1      30.706  21.502  -3.629  0.00  0.00    -0.601 OA
BRANCH   8  11
HETATM   11  O   UNK N   1      30.528  23.042  -1.534  0.00  0.00    -0.296 OA
HETATM   12  H   UNK N   1      30.578  22.765  -0.606  0.00  0.00     0.232 HD
ENDBRANCH   8  11
ENDBRANCH   7   8
ENDBRANCH   6   7
ENDBRANCH   5   6
ENDBRANCH   2   5
ENDBRANCH   1   2
BRANCH   1  13
HETATM   13  C   UNK N   1      27.462  25.359  -7.214  0.00  0.00     0.028 C 
BRANCH  13  14
HETATM   14  C   UNK N   1      25.971  25.656  -7.244  0.00  0.00     0.002 C 
BRANCH  14  15
HETATM   15  C   UNK N   1      25.402  25.777  -5.837  0.00  0.00     0.000 C 
BRANCH  15  16
HETATM   16  C   UNK N   1      24.779  27.150  -5.634  0.00  0.00     0.000 C 
BRANCH  16  17
HETATM   17  C   UNK N   1      25.403  27.862  -4.449  0.00  0.00     0.000 C 
BRANCH  17  18
HETATM   18  C   UNK N   1      26.881  28.069  -4.708  0.00  0.00     0.000 C 
BRANCH  18  19
HETATM   19  C   UNK N   1      27.236  29.535  -4.578  0.00  0.00     0.000 C 
BRANCH  19  20
HETATM   20  C   UNK N   1      28.119  29.912  -5.749  0.00  0.00     0.000 C 
BRANCH  20  21
HETATM   21  C   UNK N   1      27.957  28.919  -6.878  0.00  0.00    -0.000 C 
BRANCH  21  22
HETATM   22  C   UNK N   1      29.259  28.852  -7.651  0.00  0.00    -0.005 C 
HETATM   23  C   UNK N   1      29.743  30.251  -7.967  0.00  0.00     0.005 C 
ENDBRANCH  21  22
ENDBRANCH  20  21
ENDBRANCH  19  20
ENDBRANCH  18  19
ENDBRANCH  17  18
ENDBRANCH  16  17
ENDBRANCH  15  16
ENDBRANCH  14  15
ENDBRANCH  13  14
ENDBRANCH   1  13
TORSDOF 16
ENDMDL
MODEL 6
REMARK VINA RESULT:      -4.8     21.819     24.888
REMARK  16 active torsions:
REMARK  status: ('A' for Active; 'I' for Inactive)
REMARK    1  A    between atoms: C_1  and  C_2 
REMARK    2  A    between atoms: C_1  and  S_19 
REMARK    3  A    between atoms: C_2  and  C_3 
REMARK    4  A    between atoms: C_3  and  N_8 
REMARK    5  A    between atoms: C_5  and  C_6 
REMARK    6  A    between atoms: C_6  and  C_7 
REMARK    7  A    between atoms: C_7  and  C_11 
REMARK    8  A    between atoms: N_8  and  C_18 
REMARK    9  A    between atoms: C_11  and  C_12 
REMARK   10  A    between atoms: C_12  and  C_13 
REMARK   11  A    between atoms: C_13  and  C_14 
REMARK   12  A    between atoms: C_14  and  C_15 
REMARK   13  A    between atoms: C_15  and  C_16 
REMARK   14  A    between atoms: C_16  and  C_17 
REMARK   15  A    between atoms: C_17  and  C_18 
REMARK   16  A    between atoms: S_19  and  O_22 
ROOT
HETATM    1  C   UNK N   1      35.448  13.108  13.900  0.00  0.00     0.236 C 
ENDROOT
BRANCH   1   2
HETATM    2  N   UNK N   1      35.702  12.404  12.641  0.00  0.00    -0.075 N 
HETATM    3  C   UNK N   1      37.139  12.246  12.448  0.00  0.00     0.272 C 
HETATM    4  C   UNK N   1      35.061  11.087  12.654  0.00  0.00     0.272 C 
BRANCH   2   5
HETATM    5  C   UNK N   1      35.153  13.242  11.573  0.00  0.00     0.237 C 
BRANCH   5   6
HETATM    6  C   UNK N   1      35.934  14.534  11.325  0.00  0.00     0.044 C 
BRANCH   6   7
HETATM    7  C   UNK N   1      34.943  15.683  11.182  0.00  0.00     0.157 C 
BRANCH   7   8
HETATM    8  S   UNK N   1      34.981  16.359   9.490  0.00  0.00     0.094 S 
HETATM    9  O   UNK N   1      34.095  17.576   9.184  0.00  0.00    -0.601 OA
HETATM   10  O   UNK N   1      35.635  17.358  10.457  0.00  0.00    -0.601 OA
BRANCH   8  11
HETATM   11  O   UNK N   1      33.458  15.954  10.174  0.00  0.00    -0.296 OA
HETATM   12  H   UNK N   1      33.087  15.457  10.920  0.00  0.00     0.232 HD
ENDBRANCH   8  11
ENDBRANCH   7   8
ENDBRANCH   6   7
ENDBRANCH   5   6
ENDBRANCH   2   5
ENDBRANCH   1   2
BRANCH   1  13
HETATM   13  C   UNK N   1      36.699  13.292  14.760  0.00  0.00     0.028 C 
BRANCH  13  14
HETATM   14  C   UNK N   1      36.343  13.883  16.116  0.00  0.00     0.002 C 
BRANCH  14  15
HETATM   15  C   UNK N   1      35.053  13.284  16.658  0.00  0.00     0.000 C 
BRANCH  15  16
HETATM   16  C   UNK N   1      35.186  12.999  18.147  0.00  0.00     0.000 C 
BRANCH  16  17
HETATM   17  C   UNK N   1      35.245  11.507  18.413  0.00  0.00     0.000 C 
BRANCH  17  18
HETATM   18  C   UNK N   1      35.369  11.267  19.904  0.00  0.00     0.000 C 
BRANCH  18  19
HETATM   19  C   UNK N   1      34.579  10.039  20.303  0.00  0.00     0.000 C 
BRANCH  19  20
HETATM   20  C   UNK N   1      34.129   9.336  19.041  0.00  0.00     0.000 C 
BRANCH  20  21
HETATM   21  C   UNK N   1      33.365   8.075  19.378  0.00  0.00    -0.000 C 
BRANCH  21  22
HETATM   22  C   UNK N   1      32.445   8.366  20.547  0.00  0.00    -0.005 C 
HETATM   23  C   UNK N   1      31.002   8.326  20.089  0.00  0.00     0.005 C 
ENDBRANCH  21  22
ENDBRANCH  20  21
ENDBRANCH  19  20
ENDBRANCH  18  19
ENDBRANCH  17  18
ENDBRANCH  16  17
ENDBRANCH  15  16
ENDBRANCH  14  15
ENDBRANCH  13  14
ENDBRANCH   1  13
TORSDOF 16
ENDMDL
MODEL 7
REMARK VINA RESULT:      -4.8     13.943     16.517
REMARK  16 active torsions:
REMARK  status: ('A' for Active; 'I' for Inactive)
REMARK    1  A    between atoms: C_1  and  C_2 
REMARK    2  A    between atoms: C_1  and  S_19 
REMARK    3  A    between atoms: C_2  and  C_3 
REMARK    4  A    between atoms: C_3  and  N_8 
REMARK    5  A    between atoms: C_5  and  C_6 
REMARK    6  A    between atoms: C_6  and  C_7 
REMARK    7  A    between atoms: C_7  and  C_11 
REMARK    8  A    between atoms: N_8  and  C_18 
REMARK    9  A    between atoms: C_11  and  C_12 
REMARK   10  A    between atoms: C_12  and  C_13 
REMARK   11  A    between atoms: C_13  and  C_14 
REMARK   12  A    between atoms: C_14  and  C_15 
REMARK   13  A    between atoms: C_15  and  C_16 
REMARK   14  A    between atoms: C_16  and  C_17 
REMARK   15  A    between atoms: C_17  and  C_18 
REMARK   16  A    between atoms: S_19  and  O_22 
ROOT
HETATM    1  C   UNK N   1      33.040  16.503   7.508  0.00  0.00     0.236 C 
ENDROOT
BRANCH   1   2
HETATM    2  N   UNK N   1      33.996  15.581   8.126  0.00  0.00    -0.075 N 
HETATM    3  C   UNK N   1      33.311  14.354   8.517  0.00  0.00     0.272 C 
HETATM    4  C   UNK N   1      35.078  15.263   7.192  0.00  0.00     0.272 C 
BRANCH   2   5
HETATM    5  C   UNK N   1      34.515  16.254   9.319  0.00  0.00     0.237 C 
BRANCH   5   6
HETATM    6  C   UNK N   1      35.733  15.573   9.944  0.00  0.00     0.044 C 
BRANCH   6   7
HETATM    7  C   UNK N   1      35.591  15.613  11.461  0.00  0.00     0.157 C 
BRANCH   7   8
HETATM    8  S   UNK N   1      35.679  13.932  12.160  0.00  0.00     0.094 S 
HETATM    9  O   UNK N   1      35.220  13.735  13.613  0.00  0.00    -0.601 OA
HETATM   10  O   UNK N   1      34.207  14.339  11.986  0.00  0.00    -0.601 OA
BRANCH   8  11
HETATM   11  O   UNK N   1      36.434  15.214  13.018  0.00  0.00    -0.296 OA
HETATM   12  H   UNK N   1      37.310  15.477  13.341  0.00  0.00     0.232 HD
ENDBRANCH   8  11
ENDBRANCH   7   8
ENDBRANCH   6   7
ENDBRANCH   5   6
ENDBRANCH   2   5
ENDBRANCH   1   2
BRANCH   1  13
HETATM   13  C   UNK N   1      32.971  17.866   8.199  0.00  0.00     0.028 C 
BRANCH  13  14
HETATM   14  C   UNK N   1      31.535  18.225   8.547  0.00  0.00     0.002 C 
BRANCH  14  15
HETATM   15  C   UNK N   1      30.685  16.977   8.745  0.00  0.00     0.000 C 
BRANCH  15  16
HETATM   16  C   UNK N   1      29.483  17.289   9.625  0.00  0.00     0.000 C 
BRANCH  16  17
HETATM   17  C   UNK N   1      28.545  18.264   8.941  0.00  0.00     0.000 C 
BRANCH  17  18
HETATM   18  C   UNK N   1      28.011  17.641   7.668  0.00  0.00     0.000 C 
BRANCH  18  19
HETATM   19  C   UNK N   1      28.202  18.586   6.501  0.00  0.00     0.000 C 
BRANCH  19  20
HETATM   20  C   UNK N   1      27.667  19.944   6.902  0.00  0.00     0.000 C 
BRANCH  20  21
HETATM   21  C   UNK N   1      27.556  20.849   5.695  0.00  0.00    -0.000 C 
BRANCH  21  22
HETATM   22  C   UNK N   1      27.670  20.001   4.444  0.00  0.00    -0.005 C 
HETATM   23  C   UNK N   1      26.510  20.294   3.517  0.00  0.00     0.005 C 
ENDBRANCH  21  22
ENDBRANCH  20  21
ENDBRANCH  19  20
ENDBRANCH  18  19
ENDBRANCH  17  18
ENDBRANCH  16  17
ENDBRANCH  15  16
ENDBRANCH  14  15
ENDBRANCH  13  14
ENDBRANCH   1  13
TORSDOF 16
ENDMDL
MODEL 8
REMARK VINA RESULT:      -4.8      3.777      6.337
REMARK  16 active torsions:
REMARK  status: ('A' for Active; 'I' for Inactive)
REMARK    1  A    between atoms: C_1  and  C_2 
REMARK    2  A    between atoms: C_1  and  S_19 
REMARK    3  A    between atoms: C_2  and  C_3 
REMARK    4  A    between atoms: C_3  and  N_8 
REMARK    5  A    between atoms: C_5  and  C_6 
REMARK    6  A    between atoms: C_6  and  C_7 
REMARK    7  A    between atoms: C_7  and  C_11 
REMARK    8  A    between atoms: N_8  and  C_18 
REMARK    9  A    between atoms: C_11  and  C_12 
REMARK   10  A    between atoms: C_12  and  C_13 
REMARK   11  A    between atoms: C_13  and  C_14 
REMARK   12  A    between atoms: C_14  and  C_15 
REMARK   13  A    between atoms: C_15  and  C_16 
REMARK   14  A    between atoms: C_16  and  C_17 
REMARK   15  A    between atoms: C_17  and  C_18 
REMARK   16  A    between atoms: S_19  and  O_22 
ROOT
HETATM    1  C   UNK N   1      30.474  21.224  -5.424  0.00  0.00     0.236 C 
ENDROOT
BRANCH   1   2
HETATM    2  N   UNK N   1      30.300  21.705  -6.797  0.00  0.00    -0.075 N 
HETATM    3  C   UNK N   1      30.491  23.150  -6.838  0.00  0.00     0.272 C 
HETATM    4  C   UNK N   1      31.260  21.056  -7.691  0.00  0.00     0.272 C 
BRANCH   2   5
HETATM    5  C   UNK N   1      28.924  21.381  -7.183  0.00  0.00     0.237 C 
BRANCH   5   6
HETATM    6  C   UNK N   1      27.901  22.458  -6.820  0.00  0.00     0.044 C 
BRANCH   6   7
HETATM    7  C   UNK N   1      26.823  22.491  -7.897  0.00  0.00     0.157 C 
BRANCH   7   8
HETATM    8  S   UNK N   1      25.210  21.996  -7.209  0.00  0.00     0.094 S 
HETATM    9  O   UNK N   1      23.975  22.124  -8.113  0.00  0.00    -0.601 OA
HETATM   10  O   UNK N   1      25.630  21.000  -8.302  0.00  0.00    -0.601 OA
BRANCH   8  11
HETATM   11  O   UNK N   1      25.357  23.561  -7.902  0.00  0.00    -0.296 OA
HETATM   12  H   UNK N   1      25.204  24.491  -7.675  0.00  0.00     0.232 HD
ENDBRANCH   8  11
ENDBRANCH   7   8
ENDBRANCH   6   7
ENDBRANCH   5   6
ENDBRANCH   2   5
ENDBRANCH   1   2
BRANCH   1  13
HETATM   13  C   UNK N   1      31.124  22.251  -4.495  0.00  0.00     0.028 C 
BRANCH  13  14
HETATM   14  C   UNK N   1      30.577  22.127  -3.082  0.00  0.00     0.002 C 
BRANCH  14  15
HETATM   15  C   UNK N   1      29.375  23.037  -2.872  0.00  0.00     0.000 C 
BRANCH  15  16
HETATM   16  C   UNK N   1      29.652  24.421  -3.443  0.00  0.00     0.000 C 
BRANCH  16  17
HETATM   17  C   UNK N   1      28.379  25.062  -3.961  0.00  0.00     0.000 C 
BRANCH  17  18
HETATM   18  C   UNK N   1      27.180  24.336  -3.387  0.00  0.00     0.000 C 
BRANCH  18  19
HETATM   19  C   UNK N   1      25.995  24.463  -4.319  0.00  0.00     0.000 C 
BRANCH  19  20
HETATM   20  C   UNK N   1      26.348  25.463  -5.399  0.00  0.00     0.000 C 
BRANCH  20  21
HETATM   21  C   UNK N   1      25.272  26.519  -5.517  0.00  0.00    -0.000 C 
BRANCH  21  22
HETATM   22  C   UNK N   1      25.884  27.870  -5.207  0.00  0.00    -0.005 C 
HETATM   23  C   UNK N   1      25.721  28.183  -3.735  0.00  0.00     0.005 C 
ENDBRANCH  21  22
ENDBRANCH  20  21
ENDBRANCH  19  20
ENDBRANCH  18  19
ENDBRANCH  17  18
ENDBRANCH  16  17
ENDBRANCH  15  16
ENDBRANCH  14  15
ENDBRANCH  13  14
ENDBRANCH   1  13
TORSDOF 16
ENDMDL
MODEL 9
REMARK VINA RESULT:      -4.8     15.736     18.344
REMARK  16 active torsions:
REMARK  status: ('A' for Active; 'I' for Inactive)
REMARK    1  A    between atoms: C_1  and  C_2 
REMARK    2  A    between atoms: C_1  and  S_19 
REMARK    3  A    between atoms: C_2  and  C_3 
REMARK    4  A    between atoms: C_3  and  N_8 
REMARK    5  A    between atoms: C_5  and  C_6 
REMARK    6  A    between atoms: C_6  and  C_7 
REMARK    7  A    between atoms: C_7  and  C_11 
REMARK    8  A    between atoms: N_8  and  C_18 
REMARK    9  A    between atoms: C_11  and  C_12 
REMARK   10  A    between atoms: C_12  and  C_13 
REMARK   11  A    between atoms: C_13  and  C_14 
REMARK   12  A    between atoms: C_14  and  C_15 
REMARK   13  A    between atoms: C_15  and  C_16 
REMARK   14  A    between atoms: C_16  and  C_17 
REMARK   15  A    between atoms: C_17  and  C_18 
REMARK   16  A    between atoms: S_19  and  O_22 
ROOT
HETATM    1  C   UNK N   1      33.509  15.383  10.021  0.00  0.00     0.236 C 
ENDROOT
BRANCH   1   2
HETATM    2  N   UNK N   1      34.924  15.178  10.339  0.00  0.00    -0.075 N 
HETATM    3  C   UNK N   1      35.662  14.872   9.118  0.00  0.00     0.272 C 
HETATM    4  C   UNK N   1      35.486  16.376  10.966  0.00  0.00     0.272 C 
BRANCH   2   5
HETATM    5  C   UNK N   1      34.987  14.032  11.249  0.00  0.00     0.237 C 
BRANCH   5   6
HETATM    6  C   UNK N   1      35.830  14.271  12.502  0.00  0.00     0.044 C 
BRANCH   6   7
HETATM    7  C   UNK N   1      35.569  13.141  13.490  0.00  0.00     0.157 C 
BRANCH   7   8
HETATM    8  S   UNK N   1      36.230  13.558  15.136  0.00  0.00     0.094 S 
HETATM    9  O   UNK N   1      35.975  12.569  16.284  0.00  0.00    -0.601 OA
HETATM   10  O   UNK N   1      36.996  12.354  14.566  0.00  0.00    -0.601 OA
BRANCH   8  11
HETATM   11  O   UNK N   1      34.561  13.176  14.999  0.00  0.00    -0.296 OA
HETATM   12  H   UNK N   1      33.709  13.614  14.844  0.00  0.00     0.232 HD
ENDBRANCH   8  11
ENDBRANCH   7   8
ENDBRANCH   6   7
ENDBRANCH   5   6
ENDBRANCH   2   5
ENDBRANCH   1   2
BRANCH   1  13
HETATM   13  C   UNK N   1      33.267  15.846   8.583  0.00  0.00     0.028 C 
BRANCH  13  14
HETATM   14  C   UNK N   1      33.014  17.345   8.531  0.00  0.00     0.002 C 
BRANCH  14  15
HETATM   15  C   UNK N   1      33.914  18.022   7.507  0.00  0.00     0.000 C 
BRANCH  15  16
HETATM   16  C   UNK N   1      34.076  17.140   6.277  0.00  0.00     0.000 C 
BRANCH  16  17
HETATM   17  C   UNK N   1      33.110  17.549   5.182  0.00  0.00     0.000 C 
BRANCH  17  18
HETATM   18  C   UNK N   1      31.965  16.559   5.125  0.00  0.00     0.000 C 
BRANCH  18  19
HETATM   19  C   UNK N   1      30.647  17.267   5.354  0.00  0.00     0.000 C 
BRANCH  19  20
HETATM   20  C   UNK N   1      30.024  16.707   6.615  0.00  0.00     0.000 C 
BRANCH  20  21
HETATM   21  C   UNK N   1      29.299  17.794   7.377  0.00  0.00    -0.000 C 
BRANCH  21  22
HETATM   22  C   UNK N   1      29.319  17.446   8.852  0.00  0.00    -0.005 C 
HETATM   23  C   UNK N   1      29.714  18.662   9.663  0.00  0.00     0.005 C 
ENDBRANCH  21  22
ENDBRANCH  20  21
ENDBRANCH  19  20
ENDBRANCH  18  19
ENDBRANCH  17  18
ENDBRANCH  16  17
ENDBRANCH  15  16
ENDBRANCH  14  15
ENDBRANCH  13  14
ENDBRANCH   1  13
TORSDOF 16
ENDMDL
