REMARK  10 active torsions:
REMARK  status: ('A' for Active; 'I' for Inactive)
REMARK       I    between atoms: N_5  and  C_13 
REMARK    1  A    between atoms: C_14  and  N_5 
REMARK       I    between atoms: N_6  and  C_22 
REMARK       I    between atoms: N_7  and  C_10 
REMARK    2  A    between atoms: N_7  and  C_25 
REMARK    3  A    between atoms: C_10  and  C_11 
REMARK    4  A    between atoms: C_11  and  C_12 
REMARK    5  A    between atoms: C_12  and  C_13 
REMARK    6  A    between atoms: C_14  and  C_15 
REMARK    7  A    between atoms: C_14  and  C_22 
REMARK    8  A    between atoms: C_15  and  C_16 
REMARK    9  A    between atoms: C_25  and  C_26 
REMARK   10  A    between atoms: C_26  and  C_27 
ROOT
HETATM    1  O   UNK N   1      -0.198   0.978   2.379  0.00  0.00    -0.264 OA
HETATM    2  N   UNK N   1       1.625   0.038   1.528  0.00  0.00    -0.341 N 
HETATM    3  C   UNK N   1       0.464   0.731   1.381  0.00  0.00     0.288 C 
HETATM    4  H   UNK N   1       2.014   0.013   2.432  0.00  0.00     0.163 HD
ENDROOT
BRANCH   3   5
HETATM    5  C   UNK N   1      -0.021   1.212   0.066  0.00  0.00     0.225 C 
HETATM    6  O   UNK N   1       0.741   1.301  -0.885  0.00  0.00    -0.287 OA
BRANCH   5   7
HETATM    7  C   UNK N   1      -1.447   1.624  -0.099  0.00  0.00     0.191 C 
BRANCH   7   8
HETATM    8  C   UNK N   1      -2.065   0.770  -1.168  0.00  0.00     0.225 C 
HETATM    9  O   UNK N   1      -1.871   1.050  -2.339  0.00  0.00    -0.273 OA
HETATM   10  N   UNK N   1      -2.808  -0.320  -0.858  0.00  0.00    -0.360 N 
HETATM   11  H   UNK N   1      -3.168  -0.876  -1.587  0.00  0.00     0.162 HD
BRANCH  10  12
HETATM   12  C   UNK N   1      -3.089  -0.692   0.510  0.00  0.00     0.128 C 
BRANCH  12  13
HETATM   13  C   UNK N   1      -4.586  -0.596   0.784  0.00  0.00     0.076 C 
BRANCH  13  14
HETATM   14  C   UNK N   1      -5.127   0.715   0.315  0.00  0.00     0.010 A 
HETATM   15  N   UNK N   1      -4.629   1.881   0.813  0.00  0.00    -0.369 N 
HETATM   16  C   UNK N   1      -5.059   3.088   0.356  0.00  0.00     0.088 A 
ATOM     17  HN  UNK N   1      -3.919   1.848   1.544  1.00  0.00     0.165 HD
HETATM   18  C   UNK N   1      -6.030   3.152  -0.645  0.00  0.00     0.017 A 
HETATM   19  C   UNK N   1      -6.555   1.969  -1.166  0.00  0.00     0.003 A 
HETATM   20  C   UNK N   1      -6.100   0.740  -0.687  0.00  0.00     0.025 A 
ENDBRANCH  13  14
ENDBRANCH  12  13
ENDBRANCH  10  12
ENDBRANCH   7   8
ENDBRANCH   5   7
ENDBRANCH   3   5
BRANCH   2  21
HETATM   21  C   UNK N   1       2.347  -0.668   0.483  0.00  0.00     0.181 C 
BRANCH  21  22
HETATM   22  C   UNK N   1       2.689  -2.019   1.123  0.00  0.00     0.073 C 
BRANCH  22  23
HETATM   23  C   UNK N   1       3.279  -3.082   0.254  0.00  0.00    -0.056 A 
HETATM   24  C   UNK N   1       4.618  -3.439   0.441  0.00  0.00     0.007 A 
HETATM   25  C   UNK N   1       5.175  -4.489  -0.292  0.00  0.00     0.001 A 
HETATM   26  C   UNK N   1       4.388  -5.199  -1.202  0.00  0.00     0.000 A 
HETATM   27  C   UNK N   1       3.045  -4.853  -1.384  0.00  0.00     0.001 A 
HETATM   28  C   UNK N   1       2.487  -3.796  -0.655  0.00  0.00     0.007 A 
ENDBRANCH  22  23
ENDBRANCH  21  22
BRANCH  21  29
HETATM   29  C   UNK N   1       3.616   0.030  -0.029  0.00  0.00     0.242 C 
HETATM   30  O   UNK N   1       4.269  -0.568  -0.878  0.00  0.00    -0.271 OA
HETATM   31  N   UNK N   1       4.054   1.267   0.377  0.00  0.00    -0.359 N 
HETATM   32  C   UNK N   1       3.350   2.081   1.334  0.00  0.00     0.152 C 
HETATM   33  C   UNK N   1       5.268   1.814  -0.176  0.00  0.00     0.152 C 
ENDBRANCH  21  29
ENDBRANCH   2  21
TORSDOF 10
