MODEL 1
REMARK VINA RESULT:      -7.1      0.000      0.000
REMARK  10 active torsions:
REMARK  status: ('A' for Active; 'I' for Inactive)
REMARK       I    between atoms: N_5  and  C_13 
REMARK    1  A    between atoms: C_14  and  N_5 
REMARK       I    between atoms: N_6  and  C_22 
REMARK       I    between atoms: N_7  and  C_10 
REMARK    2  A    between atoms: N_7  and  C_25 
REMARK    3  A    between atoms: C_10  and  C_11 
REMARK    4  A    between atoms: C_11  and  C_12 
REMARK    5  A    between atoms: C_12  and  C_13 
REMARK    6  A    between atoms: C_14  and  C_15 
REMARK    7  A    between atoms: C_14  and  C_22 
REMARK    8  A    between atoms: C_15  and  C_16 
REMARK    9  A    between atoms: C_25  and  C_26 
REMARK   10  A    between atoms: C_26  and  C_27 
ROOT
HETATM    1  O   UNK N   1      27.058  23.973  -2.272  0.00  0.00    -0.264 OA
HETATM    2  N   UNK N   1      26.258  24.464  -4.284  0.00  0.00    -0.341 N 
HETATM    3  C   UNK N   1      27.274  24.067  -3.471  0.00  0.00     0.288 C 
HETATM    4  H   UNK N   1      25.346  24.386  -3.922  0.00  0.00     0.163 HD
ENDROOT
BRANCH   3   5
HETATM    5  C   UNK N   1      28.624  23.730  -3.982  0.00  0.00     0.225 C 
HETATM    6  O   UNK N   1      28.767  22.890  -4.858  0.00  0.00    -0.287 OA
BRANCH   5   7
HETATM    7  C   UNK N   1      29.829  24.395  -3.404  0.00  0.00     0.191 C 
BRANCH   7   8
HETATM    8  C   UNK N   1      30.662  23.352  -2.717  0.00  0.00     0.225 C 
HETATM    9  O   UNK N   1      30.352  22.987  -1.595  0.00  0.00    -0.273 OA
HETATM   10  N   UNK N   1      31.730  22.787  -3.330  0.00  0.00    -0.360 N 
HETATM   11  H   UNK N   1      32.231  22.080  -2.861  0.00  0.00     0.162 HD
BRANCH  10  12
HETATM   12  C   UNK N   1      32.158  23.190  -4.650  0.00  0.00     0.128 C 
BRANCH  12  13
HETATM   13  C   UNK N   1      32.488  21.963  -5.493  0.00  0.00     0.076 C 
BRANCH  13  14
HETATM   14  C   UNK N   1      31.321  21.574  -6.341  0.00  0.00     0.010 A 
HETATM   15  N   UNK N   1      30.787  22.463  -7.224  0.00  0.00    -0.369 N 
HETATM   16  C   UNK N   1      29.766  22.114  -8.052  0.00  0.00     0.088 A 
ATOM     17  HN  UNK N   1      31.160  23.411  -7.264  1.00  0.00     0.165 HD
HETATM   18  C   UNK N   1      29.243  20.820  -8.011  0.00  0.00     0.017 A 
HETATM   19  C   UNK N   1      29.774  19.895  -7.112  0.00  0.00     0.003 A 
HETATM   20  C   UNK N   1      30.823  20.271  -6.271  0.00  0.00     0.025 A 
ENDBRANCH  13  14
ENDBRANCH  12  13
ENDBRANCH  10  12
ENDBRANCH   7   8
ENDBRANCH   5   7
ENDBRANCH   3   5
BRANCH   2  21
HETATM   21  C   UNK N   1      26.387  24.991  -5.632  0.00  0.00     0.181 C 
BRANCH  21  22
HETATM   22  C   UNK N   1      25.453  26.207  -5.640  0.00  0.00     0.073 C 
BRANCH  22  23
HETATM   23  C   UNK N   1      26.043  27.551  -5.356  0.00  0.00    -0.056 A 
HETATM   24  C   UNK N   1      25.658  28.222  -4.191  0.00  0.00     0.007 A 
HETATM   25  C   UNK N   1      26.256  29.438  -3.850  0.00  0.00     0.001 A 
HETATM   26  C   UNK N   1      27.255  29.976  -4.664  0.00  0.00     0.000 A 
HETATM   27  C   UNK N   1      27.652  29.302  -5.823  0.00  0.00     0.001 A 
HETATM   28  C   UNK N   1      27.049  28.087  -6.171  0.00  0.00     0.007 A 
ENDBRANCH  22  23
ENDBRANCH  21  22
BRANCH  21  29
HETATM   29  C   UNK N   1      26.020  24.014  -6.760  0.00  0.00     0.242 C 
HETATM   30  O   UNK N   1      25.200  23.143  -6.489  0.00  0.00    -0.271 OA
HETATM   31  N   UNK N   1      26.524  24.059  -8.037  0.00  0.00    -0.359 N 
HETATM   32  C   UNK N   1      27.459  25.059  -8.484  0.00  0.00     0.152 C 
HETATM   33  C   UNK N   1      26.105  23.078  -9.007  0.00  0.00     0.152 C 
ENDBRANCH  21  29
ENDBRANCH   2  21
TORSDOF 10
ENDMDL
MODEL 2
REMARK VINA RESULT:      -7.0     13.720     15.854
REMARK  10 active torsions:
REMARK  status: ('A' for Active; 'I' for Inactive)
REMARK       I    between atoms: N_5  and  C_13 
REMARK    1  A    between atoms: C_14  and  N_5 
REMARK       I    between atoms: N_6  and  C_22 
REMARK       I    between atoms: N_7  and  C_10 
REMARK    2  A    between atoms: N_7  and  C_25 
REMARK    3  A    between atoms: C_10  and  C_11 
REMARK    4  A    between atoms: C_11  and  C_12 
REMARK    5  A    between atoms: C_12  and  C_13 
REMARK    6  A    between atoms: C_14  and  C_15 
REMARK    7  A    between atoms: C_14  and  C_22 
REMARK    8  A    between atoms: C_15  and  C_16 
REMARK    9  A    between atoms: C_25  and  C_26 
REMARK   10  A    between atoms: C_26  and  C_27 
ROOT
HETATM    1  O   UNK N   1      21.114  18.507   7.236  0.00  0.00    -0.264 OA
HETATM    2  N   UNK N   1      21.230  18.623   5.022  0.00  0.00    -0.341 N 
HETATM    3  C   UNK N   1      21.399  17.945   6.188  0.00  0.00     0.288 C 
HETATM    4  H   UNK N   1      20.636  19.408   5.048  0.00  0.00     0.163 HD
ENDROOT
BRANCH   3   5
HETATM    5  C   UNK N   1      21.899  16.551   6.239  0.00  0.00     0.225 C 
HETATM    6  O   UNK N   1      23.094  16.321   6.355  0.00  0.00    -0.287 OA
BRANCH   5   7
HETATM    7  C   UNK N   1      20.944  15.410   6.117  0.00  0.00     0.191 C 
BRANCH   7   8
HETATM    8  C   UNK N   1      19.740  15.709   6.963  0.00  0.00     0.225 C 
HETATM    9  O   UNK N   1      18.703  16.051   6.421  0.00  0.00    -0.273 OA
HETATM   10  N   UNK N   1      19.776  15.577   8.311  0.00  0.00    -0.360 N 
HETATM   11  H   UNK N   1      18.956  15.748   8.830  0.00  0.00     0.162 HD
BRANCH  10  12
HETATM   12  C   UNK N   1      20.980  15.193   9.012  0.00  0.00     0.128 C 
BRANCH  12  13
HETATM   13  C   UNK N   1      20.753  13.892   9.774  0.00  0.00     0.076 C 
BRANCH  13  14
HETATM   14  C   UNK N   1      22.054  13.233  10.096  0.00  0.00     0.010 A 
HETATM   15  N   UNK N   1      23.163  13.502   9.352  0.00  0.00    -0.369 N 
HETATM   16  C   UNK N   1      24.373  12.965   9.663  0.00  0.00     0.088 A 
ATOM     17  HN  UNK N   1      23.083  14.119   8.544  1.00  0.00     0.165 HD
HETATM   18  C   UNK N   1      24.500  12.118  10.766  0.00  0.00     0.017 A 
HETATM   19  C   UNK N   1      23.376  11.827  11.539  0.00  0.00     0.003 A 
HETATM   20  C   UNK N   1      22.143  12.390  11.206  0.00  0.00     0.025 A 
ENDBRANCH  13  14
ENDBRANCH  12  13
ENDBRANCH  10  12
ENDBRANCH   7   8
ENDBRANCH   5   7
ENDBRANCH   3   5
BRANCH   2  21
HETATM   21  C   UNK N   1      21.838  18.304   3.741  0.00  0.00     0.181 C 
BRANCH  21  22
HETATM   22  C   UNK N   1      22.565  19.595   3.349  0.00  0.00     0.073 C 
BRANCH  22  23
HETATM   23  C   UNK N   1      24.053  19.635   3.481  0.00  0.00    -0.056 A 
HETATM   24  C   UNK N   1      24.770  20.586   2.748  0.00  0.00     0.007 A 
HETATM   25  C   UNK N   1      26.151  20.709   2.916  0.00  0.00     0.001 A 
HETATM   26  C   UNK N   1      26.817  19.894   3.834  0.00  0.00     0.000 A 
HETATM   27  C   UNK N   1      26.103  18.950   4.579  0.00  0.00     0.001 A 
HETATM   28  C   UNK N   1      24.719  18.820   4.406  0.00  0.00     0.007 A 
ENDBRANCH  22  23
ENDBRANCH  21  22
BRANCH  21  29
HETATM   29  C   UNK N   1      20.861  17.871   2.637  0.00  0.00     0.242 C 
HETATM   30  O   UNK N   1      20.069  18.718   2.239  0.00  0.00    -0.271 OA
HETATM   31  N   UNK N   1      20.827  16.625   2.059  0.00  0.00    -0.359 N 
HETATM   32  C   UNK N   1      21.734  15.563   2.412  0.00  0.00     0.152 C 
HETATM   33  C   UNK N   1      19.856  16.339   1.032  0.00  0.00     0.152 C 
ENDBRANCH  21  29
ENDBRANCH   2  21
TORSDOF 10
ENDMDL
MODEL 3
REMARK VINA RESULT:      -6.9     12.059     15.527
REMARK  10 active torsions:
REMARK  status: ('A' for Active; 'I' for Inactive)
REMARK       I    between atoms: N_5  and  C_13 
REMARK    1  A    between atoms: C_14  and  N_5 
REMARK       I    between atoms: N_6  and  C_22 
REMARK       I    between atoms: N_7  and  C_10 
REMARK    2  A    between atoms: N_7  and  C_25 
REMARK    3  A    between atoms: C_10  and  C_11 
REMARK    4  A    between atoms: C_11  and  C_12 
REMARK    5  A    between atoms: C_12  and  C_13 
REMARK    6  A    between atoms: C_14  and  C_15 
REMARK    7  A    between atoms: C_14  and  C_22 
REMARK    8  A    between atoms: C_15  and  C_16 
REMARK    9  A    between atoms: C_25  and  C_26 
REMARK   10  A    between atoms: C_26  and  C_27 
ROOT
HETATM    1  O   UNK N   1      33.511  17.976   4.581  0.00  0.00    -0.264 OA
HETATM    2  N   UNK N   1      33.589  17.932   6.800  0.00  0.00    -0.341 N 
HETATM    3  C   UNK N   1      33.510  17.298   5.599  0.00  0.00     0.288 C 
HETATM    4  H   UNK N   1      33.919  18.859   6.790  0.00  0.00     0.163 HD
ENDROOT
BRANCH   3   5
HETATM    5  C   UNK N   1      33.441  15.823   5.474  0.00  0.00     0.225 C 
HETATM    6  O   UNK N   1      34.428  15.133   5.678  0.00  0.00    -0.287 OA
BRANCH   5   7
HETATM    7  C   UNK N   1      32.163  15.168   5.064  0.00  0.00     0.191 C 
BRANCH   7   8
HETATM    8  C   UNK N   1      31.989  15.355   3.585  0.00  0.00     0.225 C 
HETATM    9  O   UNK N   1      32.696  14.723   2.818  0.00  0.00    -0.273 OA
HETATM   10  N   UNK N   1      31.043  16.188   3.086  0.00  0.00    -0.360 N 
HETATM   11  H   UNK N   1      30.935  16.258   2.110  0.00  0.00     0.162 HD
BRANCH  10  12
HETATM   12  C   UNK N   1      30.188  16.977   3.944  0.00  0.00     0.128 C 
BRANCH  12  13
HETATM   13  C   UNK N   1      28.736  16.855   3.493  0.00  0.00     0.076 C 
BRANCH  13  14
HETATM   14  C   UNK N   1      27.894  17.911   4.132  0.00  0.00     0.010 A 
HETATM   15  N   UNK N   1      26.545  17.747   4.229  0.00  0.00    -0.369 N 
HETATM   16  C   UNK N   1      25.763  18.662   4.863  0.00  0.00     0.088 A 
ATOM     17  HN  UNK N   1      26.112  16.921   3.818  1.00  0.00     0.165 HD
HETATM   18  C   UNK N   1      26.339  19.799   5.433  0.00  0.00     0.017 A 
HETATM   19  C   UNK N   1      27.719  19.987   5.342  0.00  0.00     0.003 A 
HETATM   20  C   UNK N   1      28.505  19.036   4.690  0.00  0.00     0.025 A 
ENDBRANCH  13  14
ENDBRANCH  12  13
ENDBRANCH  10  12
ENDBRANCH   7   8
ENDBRANCH   5   7
ENDBRANCH   3   5
BRANCH   2  21
HETATM   21  C   UNK N   1      33.234  17.375   8.094  0.00  0.00     0.181 C 
BRANCH  21  22
HETATM   22  C   UNK N   1      32.179  18.348   8.635  0.00  0.00     0.073 C 
BRANCH  22  23
HETATM   23  C   UNK N   1      30.740  17.960   8.529  0.00  0.00    -0.056 A 
HETATM   24  C   UNK N   1      29.804  18.615   9.335  0.00  0.00     0.007 A 
HETATM   25  C   UNK N   1      28.442  18.340   9.197  0.00  0.00     0.001 A 
HETATM   26  C   UNK N   1      28.010  17.421   8.238  0.00  0.00     0.000 A 
HETATM   27  C   UNK N   1      28.941  16.772   7.422  0.00  0.00     0.001 A 
HETATM   28  C   UNK N   1      30.308  17.041   7.563  0.00  0.00     0.007 A 
ENDBRANCH  22  23
ENDBRANCH  21  22
BRANCH  21  29
HETATM   29  C   UNK N   1      34.396  17.222   9.087  0.00  0.00     0.242 C 
HETATM   30  O   UNK N   1      35.199  18.148   9.141  0.00  0.00    -0.271 OA
HETATM   31  N   UNK N   1      34.585  16.147   9.921  0.00  0.00    -0.359 N 
HETATM   32  C   UNK N   1      33.686  15.023   9.978  0.00  0.00     0.152 C 
HETATM   33  C   UNK N   1      35.721  16.119  10.807  0.00  0.00     0.152 C 
ENDBRANCH  21  29
ENDBRANCH   2  21
TORSDOF 10
ENDMDL
MODEL 4
REMARK VINA RESULT:      -6.8      1.590      2.288
REMARK  10 active torsions:
REMARK  status: ('A' for Active; 'I' for Inactive)
REMARK       I    between atoms: N_5  and  C_13 
REMARK    1  A    between atoms: C_14  and  N_5 
REMARK       I    between atoms: N_6  and  C_22 
REMARK       I    between atoms: N_7  and  C_10 
REMARK    2  A    between atoms: N_7  and  C_25 
REMARK    3  A    between atoms: C_10  and  C_11 
REMARK    4  A    between atoms: C_11  and  C_12 
REMARK    5  A    between atoms: C_12  and  C_13 
REMARK    6  A    between atoms: C_14  and  C_15 
REMARK    7  A    between atoms: C_14  and  C_22 
REMARK    8  A    between atoms: C_15  and  C_16 
REMARK    9  A    between atoms: C_25  and  C_26 
REMARK   10  A    between atoms: C_26  and  C_27 
ROOT
HETATM    1  O   UNK N   1      27.100  23.935  -2.282  0.00  0.00    -0.264 OA
HETATM    2  N   UNK N   1      26.278  24.518  -4.261  0.00  0.00    -0.341 N 
HETATM    3  C   UNK N   1      27.290  24.044  -3.485  0.00  0.00     0.288 C 
HETATM    4  H   UNK N   1      25.373  24.485  -3.876  0.00  0.00     0.163 HD
ENDROOT
BRANCH   3   5
HETATM    5  C   UNK N   1      28.603  23.641  -4.040  0.00  0.00     0.225 C 
HETATM    6  O   UNK N   1      28.672  22.838  -4.958  0.00  0.00    -0.287 OA
BRANCH   5   7
HETATM    7  C   UNK N   1      29.862  24.192  -3.455  0.00  0.00     0.191 C 
BRANCH   7   8
HETATM    8  C   UNK N   1      30.458  23.153  -2.550  0.00  0.00     0.225 C 
HETATM    9  O   UNK N   1      30.090  23.094  -1.389  0.00  0.00    -0.273 OA
HETATM   10  N   UNK N   1      31.373  22.263  -3.005  0.00  0.00    -0.360 N 
HETATM   11  H   UNK N   1      31.715  21.573  -2.391  0.00  0.00     0.162 HD
BRANCH  10  12
HETATM   12  C   UNK N   1      31.863  22.294  -4.365  0.00  0.00     0.128 C 
BRANCH  12  13
HETATM   13  C   UNK N   1      31.522  20.989  -5.076  0.00  0.00     0.076 C 
BRANCH  13  14
HETATM   14  C   UNK N   1      32.719  20.099  -5.151  0.00  0.00     0.010 A 
HETATM   15  N   UNK N   1      33.109  19.379  -4.063  0.00  0.00    -0.369 N 
HETATM   16  C   UNK N   1      34.156  18.513  -4.123  0.00  0.00     0.088 A 
ATOM     17  HN  UNK N   1      32.604  19.492  -3.184  1.00  0.00     0.165 HD
HETATM   18  C   UNK N   1      34.857  18.345  -5.318  0.00  0.00     0.017 A 
HETATM   19  C   UNK N   1      34.476  19.076  -6.444  0.00  0.00     0.003 A 
HETATM   20  C   UNK N   1      33.398  19.958  -6.364  0.00  0.00     0.025 A 
ENDBRANCH  13  14
ENDBRANCH  12  13
ENDBRANCH  10  12
ENDBRANCH   7   8
ENDBRANCH   5   7
ENDBRANCH   3   5
BRANCH   2  21
HETATM   21  C   UNK N   1      26.402  25.068  -5.600  0.00  0.00     0.181 C 
BRANCH  21  22
HETATM   22  C   UNK N   1      25.479  26.292  -5.581  0.00  0.00     0.073 C 
BRANCH  22  23
HETATM   23  C   UNK N   1      26.088  27.631  -5.319  0.00  0.00    -0.056 A 
HETATM   24  C   UNK N   1      25.708  28.332  -4.170  0.00  0.00     0.007 A 
HETATM   25  C   UNK N   1      26.323  29.544  -3.850  0.00  0.00     0.001 A 
HETATM   26  C   UNK N   1      27.336  30.050  -4.668  0.00  0.00     0.000 A 
HETATM   27  C   UNK N   1      27.728  29.347  -5.812  0.00  0.00     0.001 A 
HETATM   28  C   UNK N   1      27.107  28.135  -6.139  0.00  0.00     0.007 A 
ENDBRANCH  22  23
ENDBRANCH  21  22
BRANCH  21  29
HETATM   29  C   UNK N   1      26.020  24.114  -6.742  0.00  0.00     0.242 C 
HETATM   30  O   UNK N   1      25.261  23.193  -6.460  0.00  0.00    -0.271 OA
HETATM   31  N   UNK N   1      26.447  24.230  -8.043  0.00  0.00    -0.359 N 
HETATM   32  C   UNK N   1      27.304  25.293  -8.503  0.00  0.00     0.152 C 
HETATM   33  C   UNK N   1      26.021  23.265  -9.026  0.00  0.00     0.152 C 
ENDBRANCH  21  29
ENDBRANCH   2  21
TORSDOF 10
ENDMDL
MODEL 5
REMARK VINA RESULT:      -6.7      1.942      6.841
REMARK  10 active torsions:
REMARK  status: ('A' for Active; 'I' for Inactive)
REMARK       I    between atoms: N_5  and  C_13 
REMARK    1  A    between atoms: C_14  and  N_5 
REMARK       I    between atoms: N_6  and  C_22 
REMARK       I    between atoms: N_7  and  C_10 
REMARK    2  A    between atoms: N_7  and  C_25 
REMARK    3  A    between atoms: C_10  and  C_11 
REMARK    4  A    between atoms: C_11  and  C_12 
REMARK    5  A    between atoms: C_12  and  C_13 
REMARK    6  A    between atoms: C_14  and  C_15 
REMARK    7  A    between atoms: C_14  and  C_22 
REMARK    8  A    between atoms: C_15  and  C_16 
REMARK    9  A    between atoms: C_25  and  C_26 
REMARK   10  A    between atoms: C_26  and  C_27 
ROOT
HETATM    1  O   UNK N   1      30.329  23.010  -1.430  0.00  0.00    -0.264 OA
HETATM    2  N   UNK N   1      31.516  22.451  -3.222  0.00  0.00    -0.341 N 
HETATM    3  C   UNK N   1      30.569  23.213  -2.612  0.00  0.00     0.288 C 
HETATM    4  H   UNK N   1      32.148  21.977  -2.634  0.00  0.00     0.163 HD
ENDROOT
BRANCH   3   5
HETATM    5  C   UNK N   1      29.831  24.289  -3.315  0.00  0.00     0.225 C 
HETATM    6  O   UNK N   1      30.205  25.450  -3.245  0.00  0.00    -0.287 OA
BRANCH   5   7
HETATM    7  C   UNK N   1      28.599  23.963  -4.094  0.00  0.00     0.191 C 
BRANCH   7   8
HETATM    8  C   UNK N   1      27.405  24.386  -3.287  0.00  0.00     0.225 C 
HETATM    9  O   UNK N   1      27.094  23.739  -2.302  0.00  0.00    -0.273 OA
HETATM   10  N   UNK N   1      26.687  25.487  -3.616  0.00  0.00    -0.360 N 
HETATM   11  H   UNK N   1      25.931  25.753  -3.043  0.00  0.00     0.162 HD
BRANCH  10  12
HETATM   12  C   UNK N   1      26.994  26.283  -4.782  0.00  0.00     0.128 C 
BRANCH  12  13
HETATM   13  C   UNK N   1      25.736  26.507  -5.613  0.00  0.00     0.076 C 
BRANCH  13  14
HETATM   14  C   UNK N   1      25.754  25.658  -6.841  0.00  0.00     0.010 A 
HETATM   15  N   UNK N   1      25.530  24.317  -6.753  0.00  0.00    -0.369 N 
HETATM   16  C   UNK N   1      25.478  23.532  -7.862  0.00  0.00     0.088 A 
ATOM     17  HN  UNK N   1      25.399  23.893  -5.835  1.00  0.00     0.165 HD
HETATM   18  C   UNK N   1      25.655  24.095  -9.127  0.00  0.00     0.017 A 
HETATM   19  C   UNK N   1      25.889  25.466  -9.239  0.00  0.00     0.003 A 
HETATM   20  C   UNK N   1      25.936  26.256  -8.090  0.00  0.00     0.025 A 
ENDBRANCH  13  14
ENDBRANCH  12  13
ENDBRANCH  10  12
ENDBRANCH   7   8
ENDBRANCH   5   7
ENDBRANCH   3   5
BRANCH   2  21
HETATM   21  C   UNK N   1      31.687  22.269  -4.653  0.00  0.00     0.181 C 
BRANCH  21  22
HETATM   22  C   UNK N   1      31.149  20.856  -4.909  0.00  0.00     0.073 C 
BRANCH  22  23
HETATM   23  C   UNK N   1      30.244  20.647  -6.080  0.00  0.00    -0.056 A 
HETATM   24  C   UNK N   1      29.307  21.637  -6.392  0.00  0.00     0.007 A 
HETATM   25  C   UNK N   1      28.508  21.515  -7.531  0.00  0.00     0.001 A 
HETATM   26  C   UNK N   1      28.657  20.410  -8.373  0.00  0.00     0.000 A 
HETATM   27  C   UNK N   1      29.602  19.424  -8.071  0.00  0.00     0.001 A 
HETATM   28  C   UNK N   1      30.398  19.541  -6.926  0.00  0.00     0.007 A 
ENDBRANCH  22  23
ENDBRANCH  21  22
BRANCH  21  29
HETATM   29  C   UNK N   1      33.128  22.405  -5.168  0.00  0.00     0.242 C 
HETATM   30  O   UNK N   1      33.718  21.364  -5.437  0.00  0.00    -0.271 OA
HETATM   31  N   UNK N   1      33.786  23.595  -5.363  0.00  0.00    -0.359 N 
HETATM   32  C   UNK N   1      33.185  24.881  -5.124  0.00  0.00     0.152 C 
HETATM   33  C   UNK N   1      35.145  23.591  -5.848  0.00  0.00     0.152 C 
ENDBRANCH  21  29
ENDBRANCH   2  21
TORSDOF 10
ENDMDL
MODEL 6
REMARK VINA RESULT:      -6.7     11.569     14.271
REMARK  10 active torsions:
REMARK  status: ('A' for Active; 'I' for Inactive)
REMARK       I    between atoms: N_5  and  C_13 
REMARK    1  A    between atoms: C_14  and  N_5 
REMARK       I    between atoms: N_6  and  C_22 
REMARK       I    between atoms: N_7  and  C_10 
REMARK    2  A    between atoms: N_7  and  C_25 
REMARK    3  A    between atoms: C_10  and  C_11 
REMARK    4  A    between atoms: C_11  and  C_12 
REMARK    5  A    between atoms: C_12  and  C_13 
REMARK    6  A    between atoms: C_14  and  C_15 
REMARK    7  A    between atoms: C_14  and  C_22 
REMARK    8  A    between atoms: C_15  and  C_16 
REMARK    9  A    between atoms: C_25  and  C_26 
REMARK   10  A    between atoms: C_26  and  C_27 
ROOT
HETATM    1  O   UNK N   1      19.569  19.236   2.205  0.00  0.00    -0.264 OA
HETATM    2  N   UNK N   1      19.358  17.413   3.454  0.00  0.00    -0.341 N 
HETATM    3  C   UNK N   1      19.979  18.585   3.155  0.00  0.00     0.288 C 
HETATM    4  H   UNK N   1      18.456  17.282   3.082  0.00  0.00     0.163 HD
ENDROOT
BRANCH   3   5
HETATM    5  C   UNK N   1      21.118  19.112   3.943  0.00  0.00     0.225 C 
HETATM    6  O   UNK N   1      20.930  19.673   5.012  0.00  0.00    -0.287 OA
BRANCH   5   7
HETATM    7  C   UNK N   1      22.511  18.989   3.417  0.00  0.00     0.191 C 
BRANCH   7   8
HETATM    8  C   UNK N   1      22.970  20.348   2.973  0.00  0.00     0.225 C 
HETATM    9  O   UNK N   1      22.138  21.204   2.722  0.00  0.00    -0.273 OA
HETATM   10  N   UNK N   1      24.287  20.650   2.873  0.00  0.00    -0.360 N 
HETATM   11  H   UNK N   1      24.550  21.562   2.612  0.00  0.00     0.162 HD
BRANCH  10  12
HETATM   12  C   UNK N   1      25.319  19.673   3.138  0.00  0.00     0.128 C 
BRANCH  12  13
HETATM   13  C   UNK N   1      26.597  20.369   3.594  0.00  0.00     0.076 C 
BRANCH  13  14
HETATM   14  C   UNK N   1      27.393  19.478   4.491  0.00  0.00     0.010 A 
HETATM   15  N   UNK N   1      28.267  18.576   3.963  0.00  0.00    -0.369 N 
HETATM   16  C   UNK N   1      29.050  17.799   4.758  0.00  0.00     0.088 A 
ATOM     17  HN  UNK N   1      28.335  18.482   2.950  1.00  0.00     0.165 HD
HETATM   18  C   UNK N   1      28.971  17.915   6.147  0.00  0.00     0.017 A 
HETATM   19  C   UNK N   1      28.080  18.831   6.708  0.00  0.00     0.003 A 
HETATM   20  C   UNK N   1      27.286  19.622   5.876  0.00  0.00     0.025 A 
ENDBRANCH  13  14
ENDBRANCH  12  13
ENDBRANCH  10  12
ENDBRANCH   7   8
ENDBRANCH   5   7
ENDBRANCH   3   5
BRANCH   2  21
HETATM   21  C   UNK N   1      19.895  16.335   4.269  0.00  0.00     0.181 C 
BRANCH  21  22
HETATM   22  C   UNK N   1      19.616  15.076   3.439  0.00  0.00     0.073 C 
BRANCH  22  23
HETATM   23  C   UNK N   1      20.635  14.656   2.430  0.00  0.00    -0.056 A 
HETATM   24  C   UNK N   1      21.951  15.108   2.573  0.00  0.00     0.007 A 
HETATM   25  C   UNK N   1      22.946  14.663   1.700  0.00  0.00     0.001 A 
HETATM   26  C   UNK N   1      22.632  13.748   0.693  0.00  0.00     0.000 A 
HETATM   27  C   UNK N   1      21.320  13.284   0.554  0.00  0.00     0.001 A 
HETATM   28  C   UNK N   1      20.320  13.734   1.423  0.00  0.00     0.007 A 
ENDBRANCH  22  23
ENDBRANCH  21  22
BRANCH  21  29
HETATM   29  C   UNK N   1      19.290  16.207   5.675  0.00  0.00     0.242 C 
HETATM   30  O   UNK N   1      18.107  15.887   5.739  0.00  0.00    -0.271 OA
HETATM   31  N   UNK N   1      19.975  16.405   6.849  0.00  0.00    -0.359 N 
HETATM   32  C   UNK N   1      21.374  16.740   6.902  0.00  0.00     0.152 C 
HETATM   33  C   UNK N   1      19.291  16.260   8.110  0.00  0.00     0.152 C 
ENDBRANCH  21  29
ENDBRANCH   2  21
TORSDOF 10
ENDMDL
MODEL 7
REMARK VINA RESULT:      -6.7     19.461     23.262
REMARK  10 active torsions:
REMARK  status: ('A' for Active; 'I' for Inactive)
REMARK       I    between atoms: N_5  and  C_13 
REMARK    1  A    between atoms: C_14  and  N_5 
REMARK       I    between atoms: N_6  and  C_22 
REMARK       I    between atoms: N_7  and  C_10 
REMARK    2  A    between atoms: N_7  and  C_25 
REMARK    3  A    between atoms: C_10  and  C_11 
REMARK    4  A    between atoms: C_11  and  C_12 
REMARK    5  A    between atoms: C_12  and  C_13 
REMARK    6  A    between atoms: C_14  and  C_15 
REMARK    7  A    between atoms: C_14  and  C_22 
REMARK    8  A    between atoms: C_15  and  C_16 
REMARK    9  A    between atoms: C_25  and  C_26 
REMARK   10  A    between atoms: C_26  and  C_27 
ROOT
HETATM    1  O   UNK N   1      36.786  14.861  14.399  0.00  0.00    -0.264 OA
HETATM    2  N   UNK N   1      36.098  15.444  12.369  0.00  0.00    -0.341 N 
HETATM    3  C   UNK N   1      36.237  14.522  13.360  0.00  0.00     0.288 C 
HETATM    4  H   UNK N   1      36.187  16.389  12.629  0.00  0.00     0.163 HD
ENDROOT
BRANCH   3   5
HETATM    5  C   UNK N   1      35.736  13.133  13.238  0.00  0.00     0.225 C 
HETATM    6  O   UNK N   1      34.546  12.886  13.363  0.00  0.00    -0.287 OA
BRANCH   5   7
HETATM    7  C   UNK N   1      36.692  12.013  12.991  0.00  0.00     0.191 C 
BRANCH   7   8
HETATM    8  C   UNK N   1      35.907  10.805  12.568  0.00  0.00     0.225 C 
HETATM    9  O   UNK N   1      35.575  10.691  11.400  0.00  0.00    -0.273 OA
HETATM   10  N   UNK N   1      35.585   9.829  13.451  0.00  0.00    -0.360 N 
HETATM   11  H   UNK N   1      35.099   9.035  13.129  0.00  0.00     0.162 HD
BRANCH  10  12
HETATM   12  C   UNK N   1      35.933   9.917  14.851  0.00  0.00     0.128 C 
BRANCH  12  13
HETATM   13  C   UNK N   1      34.682  10.157  15.689  0.00  0.00     0.076 C 
BRANCH  13  14
HETATM   14  C   UNK N   1      34.933  11.203  16.726  0.00  0.00     0.010 A 
HETATM   15  N   UNK N   1      34.839  12.524  16.405  0.00  0.00    -0.369 N 
HETATM   16  C   UNK N   1      34.999  13.495  17.344  0.00  0.00     0.088 A 
ATOM     17  HN  UNK N   1      34.645  12.790  15.440  1.00  0.00     0.165 HD
HETATM   18  C   UNK N   1      35.264  13.149  18.670  0.00  0.00     0.017 A 
HETATM   19  C   UNK N   1      35.367  11.802  19.019  0.00  0.00     0.003 A 
HETATM   20  C   UNK N   1      35.197  10.819  18.042  0.00  0.00     0.025 A 
ENDBRANCH  13  14
ENDBRANCH  12  13
ENDBRANCH  10  12
ENDBRANCH   7   8
ENDBRANCH   5   7
ENDBRANCH   3   5
BRANCH   2  21
HETATM   21  C   UNK N   1      35.832  15.170  10.967  0.00  0.00     0.181 C 
BRANCH  21  22
HETATM   22  C   UNK N   1      37.223  14.910  10.375  0.00  0.00     0.073 C 
BRANCH  22  23
HETATM   23  C   UNK N   1      37.478  13.586   9.730  0.00  0.00    -0.056 A 
HETATM   24  C   UNK N   1      38.603  12.853  10.120  0.00  0.00     0.007 A 
HETATM   25  C   UNK N   1      38.823  11.574   9.603  0.00  0.00     0.001 A 
HETATM   26  C   UNK N   1      37.907  11.017   8.708  0.00  0.00     0.000 A 
HETATM   27  C   UNK N   1      36.774  11.742   8.324  0.00  0.00     0.001 A 
HETATM   28  C   UNK N   1      36.556  13.027   8.836  0.00  0.00     0.007 A 
ENDBRANCH  22  23
ENDBRANCH  21  22
BRANCH  21  29
HETATM   29  C   UNK N   1      35.114  16.291  10.201  0.00  0.00     0.242 C 
HETATM   30  O   UNK N   1      35.599  17.415  10.286  0.00  0.00    -0.271 OA
HETATM   31  N   UNK N   1      33.994  16.123   9.423  0.00  0.00    -0.359 N 
HETATM   32  C   UNK N   1      33.361  14.846   9.213  0.00  0.00     0.152 C 
HETATM   33  C   UNK N   1      33.408  17.259   8.757  0.00  0.00     0.152 C 
ENDBRANCH  21  29
ENDBRANCH   2  21
TORSDOF 10
ENDMDL
MODEL 8
REMARK VINA RESULT:      -6.7      1.864      3.070
REMARK  10 active torsions:
REMARK  status: ('A' for Active; 'I' for Inactive)
REMARK       I    between atoms: N_5  and  C_13 
REMARK    1  A    between atoms: C_14  and  N_5 
REMARK       I    between atoms: N_6  and  C_22 
REMARK       I    between atoms: N_7  and  C_10 
REMARK    2  A    between atoms: N_7  and  C_25 
REMARK    3  A    between atoms: C_10  and  C_11 
REMARK    4  A    between atoms: C_11  and  C_12 
REMARK    5  A    between atoms: C_12  and  C_13 
REMARK    6  A    between atoms: C_14  and  C_15 
REMARK    7  A    between atoms: C_14  and  C_22 
REMARK    8  A    between atoms: C_15  and  C_16 
REMARK    9  A    between atoms: C_25  and  C_26 
REMARK   10  A    between atoms: C_26  and  C_27 
ROOT
HETATM    1  O   UNK N   1      25.218  22.685  -6.044  0.00  0.00    -0.264 OA
HETATM    2  N   UNK N   1      25.671  24.262  -7.540  0.00  0.00    -0.341 N 
HETATM    3  C   UNK N   1      26.028  23.491  -6.478  0.00  0.00     0.288 C 
HETATM    4  H   UNK N   1      24.905  23.951  -8.075  0.00  0.00     0.163 HD
ENDROOT
BRANCH   3   5
HETATM    5  C   UNK N   1      27.363  23.575  -5.840  0.00  0.00     0.225 C 
HETATM    6  O   UNK N   1      28.232  22.757  -6.102  0.00  0.00    -0.287 OA
BRANCH   5   7
HETATM    7  C   UNK N   1      27.647  24.649  -4.842  0.00  0.00     0.191 C 
BRANCH   7   8
HETATM    8  C   UNK N   1      27.386  24.100  -3.469  0.00  0.00     0.225 C 
HETATM    9  O   UNK N   1      26.235  23.993  -3.080  0.00  0.00    -0.273 OA
HETATM   10  N   UNK N   1      28.401  23.695  -2.668  0.00  0.00    -0.360 N 
HETATM   11  H   UNK N   1      28.189  23.307  -1.788  0.00  0.00     0.162 HD
BRANCH  10  12
HETATM   12  C   UNK N   1      29.785  23.814  -3.065  0.00  0.00     0.128 C 
BRANCH  12  13
HETATM   13  C   UNK N   1      30.637  22.797  -2.313  0.00  0.00     0.076 C 
BRANCH  13  14
HETATM   14  C   UNK N   1      31.244  21.812  -3.258  0.00  0.00     0.010 A 
HETATM   15  N   UNK N   1      30.555  21.405  -4.361  0.00  0.00    -0.369 N 
HETATM   16  C   UNK N   1      31.110  20.559  -5.270  0.00  0.00     0.088 A 
ATOM     17  HN  UNK N   1      29.604  21.742  -4.507  1.00  0.00     0.165 HD
HETATM   18  C   UNK N   1      32.411  20.089  -5.086  0.00  0.00     0.017 A 
HETATM   19  C   UNK N   1      33.132  20.491  -3.962  0.00  0.00     0.003 A 
HETATM   20  C   UNK N   1      32.548  21.362  -3.041  0.00  0.00     0.025 A 
ENDBRANCH  13  14
ENDBRANCH  12  13
ENDBRANCH  10  12
ENDBRANCH   7   8
ENDBRANCH   5   7
ENDBRANCH   3   5
BRANCH   2  21
HETATM   21  C   UNK N   1      26.307  25.499  -7.962  0.00  0.00     0.181 C 
BRANCH  21  22
HETATM   22  C   UNK N   1      25.387  26.592  -7.404  0.00  0.00     0.073 C 
BRANCH  22  23
HETATM   23  C   UNK N   1      25.878  27.406  -6.250  0.00  0.00    -0.056 A 
HETATM   24  C   UNK N   1      25.156  27.382  -5.053  0.00  0.00     0.007 A 
HETATM   25  C   UNK N   1      25.634  28.059  -3.930  0.00  0.00     0.001 A 
HETATM   26  C   UNK N   1      26.848  28.747  -3.994  0.00  0.00     0.000 A 
HETATM   27  C   UNK N   1      27.580  28.764  -5.186  0.00  0.00     0.001 A 
HETATM   28  C   UNK N   1      27.098  28.091  -6.315  0.00  0.00     0.007 A 
ENDBRANCH  22  23
ENDBRANCH  21  22
BRANCH  21  29
HETATM   29  C   UNK N   1      26.491  25.662  -9.478  0.00  0.00     0.242 C 
HETATM   30  O   UNK N   1      25.597  26.245 -10.082  0.00  0.00    -0.271 OA
HETATM   31  N   UNK N   1      27.581  25.225 -10.191  0.00  0.00    -0.359 N 
HETATM   32  C   UNK N   1      28.710  24.567  -9.587  0.00  0.00     0.152 C 
HETATM   33  C   UNK N   1      27.634  25.434 -11.617  0.00  0.00     0.152 C 
ENDBRANCH  21  29
ENDBRANCH   2  21
TORSDOF 10
ENDMDL
MODEL 9
REMARK VINA RESULT:      -6.7     16.900     21.019
REMARK  10 active torsions:
REMARK  status: ('A' for Active; 'I' for Inactive)
REMARK       I    between atoms: N_5  and  C_13 
REMARK    1  A    between atoms: C_14  and  N_5 
REMARK       I    between atoms: N_6  and  C_22 
REMARK       I    between atoms: N_7  and  C_10 
REMARK    2  A    between atoms: N_7  and  C_25 
REMARK    3  A    between atoms: C_10  and  C_11 
REMARK    4  A    between atoms: C_11  and  C_12 
REMARK    5  A    between atoms: C_12  and  C_13 
REMARK    6  A    between atoms: C_14  and  C_15 
REMARK    7  A    between atoms: C_14  and  C_22 
REMARK    8  A    between atoms: C_15  and  C_16 
REMARK    9  A    between atoms: C_25  and  C_26 
REMARK   10  A    between atoms: C_26  and  C_27 
ROOT
HETATM    1  O   UNK N   1      35.850  17.167  10.560  0.00  0.00    -0.264 OA
HETATM    2  N   UNK N   1      36.355  15.255  11.569  0.00  0.00    -0.341 N 
HETATM    3  C   UNK N   1      35.705  15.954  10.601  0.00  0.00     0.288 C 
HETATM    4  H   UNK N   1      37.114  15.705  12.006  0.00  0.00     0.163 HD
ENDROOT
BRANCH   3   5
HETATM    5  C   UNK N   1      34.843  15.304   9.585  0.00  0.00     0.225 C 
HETATM    6  O   UNK N   1      35.330  14.802   8.583  0.00  0.00    -0.287 OA
BRANCH   5   7
HETATM    7  C   UNK N   1      33.361  15.286   9.765  0.00  0.00     0.191 C 
BRANCH   7   8
HETATM    8  C   UNK N   1      32.757  14.500   8.636  0.00  0.00     0.225 C 
HETATM    9  O   UNK N   1      32.567  13.304   8.779  0.00  0.00    -0.273 OA
HETATM   10  N   UNK N   1      32.395  15.099   7.476  0.00  0.00    -0.360 N 
HETATM   11  H   UNK N   1      31.970  14.557   6.771  0.00  0.00     0.162 HD
BRANCH  10  12
HETATM   12  C   UNK N   1      32.613  16.508   7.239  0.00  0.00     0.128 C 
BRANCH  12  13
HETATM   13  C   UNK N   1      31.408  17.114   6.527  0.00  0.00     0.076 C 
BRANCH  13  14
HETATM   14  C   UNK N   1      30.331  17.455   7.504  0.00  0.00     0.010 A 
HETATM   15  N   UNK N   1      29.046  17.069   7.271  0.00  0.00    -0.369 N 
HETATM   16  C   UNK N   1      28.058  17.311   8.175  0.00  0.00     0.088 A 
ATOM     17  HN  UNK N   1      28.819  16.590   6.401  1.00  0.00     0.165 HD
HETATM   18  C   UNK N   1      28.351  17.966   9.373  0.00  0.00     0.017 A 
HETATM   19  C   UNK N   1      29.661  18.371   9.629  0.00  0.00     0.003 A 
HETATM   20  C   UNK N   1      30.662  18.113   8.691  0.00  0.00     0.025 A 
ENDBRANCH  13  14
ENDBRANCH  12  13
ENDBRANCH  10  12
ENDBRANCH   7   8
ENDBRANCH   5   7
ENDBRANCH   3   5
BRANCH   2  21
HETATM   21  C   UNK N   1      36.039  13.911  12.023  0.00  0.00     0.181 C 
BRANCH  21  22
HETATM   22  C   UNK N   1      36.296  13.966  13.534  0.00  0.00     0.073 C 
BRANCH  22  23
HETATM   23  C   UNK N   1      35.810  12.829  14.374  0.00  0.00    -0.056 A 
HETATM   24  C   UNK N   1      34.533  12.313  14.135  0.00  0.00     0.007 A 
HETATM   25  C   UNK N   1      34.083  11.195  14.840  0.00  0.00     0.001 A 
HETATM   26  C   UNK N   1      34.917  10.576  15.774  0.00  0.00     0.000 A 
HETATM   27  C   UNK N   1      36.200  11.082  16.008  0.00  0.00     0.001 A 
HETATM   28  C   UNK N   1      36.651  12.207  15.307  0.00  0.00     0.007 A 
ENDBRANCH  22  23
ENDBRANCH  21  22
BRANCH  21  29
HETATM   29  C   UNK N   1      36.857  12.786  11.371  0.00  0.00     0.242 C 
HETATM   30  O   UNK N   1      38.077  12.866  11.465  0.00  0.00    -0.271 OA
HETATM   31  N   UNK N   1      36.324  11.703  10.716  0.00  0.00    -0.359 N 
HETATM   32  C   UNK N   1      34.908  11.478  10.579  0.00  0.00     0.152 C 
HETATM   33  C   UNK N   1      37.199  10.713  10.139  0.00  0.00     0.152 C 
ENDBRANCH  21  29
ENDBRANCH   2  21
TORSDOF 10
ENDMDL
