MODEL 1
REMARK VINA RESULT:      -5.2      0.000      0.000
REMARK  1 active torsions:
REMARK  status: ('A' for Active; 'I' for Inactive)
REMARK    1  A    between atoms: C_6  and  O_7 
ROOT
HETATM    1  C   UNK N   1      26.821  26.063  -4.952  0.00  0.00     0.026 C 
HETATM    2  C   UNK N   1      25.519  25.824  -5.639  0.00  0.00     0.136 C 
HETATM    3  O   UNK N   1      25.238  24.824  -6.283  0.00  0.00    -0.297 OA
HETATM    4  C   UNK N   1      24.719  27.076  -5.662  0.00  0.00     0.087 C 
HETATM    5  C   UNK N   1      25.741  28.013  -4.959  0.00  0.00     0.030 C 
HETATM    6  C   UNK N   1      25.754  27.630  -3.459  0.00  0.00     0.124 C 
HETATM    7  C   UNK N   1      26.472  26.267  -3.466  0.00  0.00     0.049 C 
HETATM    8  C   UNK N   1      27.111  27.484  -5.452  0.00  0.00    -0.027 C 
HETATM    9  C   UNK N   1      27.297  27.601  -6.971  0.00  0.00     0.016 C 
HETATM   10  C   UNK N   1      28.332  28.140  -4.802  0.00  0.00     0.016 C 
HETATM   11  C   UNK N   1      27.889  25.005  -5.184  0.00  0.00     0.024 C 
ENDROOT
BRANCH   6  12
HETATM   12  O   UNK N   1      26.509  28.545  -2.719  0.00  0.00    -0.395 OA
HETATM   13  H   UNK N   1      26.883  29.363  -3.081  0.00  0.00     0.210 HD
ENDBRANCH   6  12
TORSDOF 1
ENDMDL
MODEL 2
REMARK VINA RESULT:      -4.9      1.717      2.872
REMARK  1 active torsions:
REMARK  status: ('A' for Active; 'I' for Inactive)
REMARK    1  A    between atoms: C_6  and  O_7 
ROOT
HETATM    1  C   UNK N   1      26.891  26.656  -4.361  0.00  0.00     0.026 C 
HETATM    2  C   UNK N   1      26.331  27.563  -3.318  0.00  0.00     0.136 C 
HETATM    3  O   UNK N   1      25.816  27.197  -2.272  0.00  0.00    -0.297 OA
HETATM    4  C   UNK N   1      26.238  28.949  -3.847  0.00  0.00     0.087 C 
HETATM    5  C   UNK N   1      26.763  28.681  -5.285  0.00  0.00     0.030 C 
HETATM    6  C   UNK N   1      28.290  28.446  -5.177  0.00  0.00     0.124 C 
HETATM    7  C   UNK N   1      28.370  27.061  -4.508  0.00  0.00     0.049 C 
HETATM    8  C   UNK N   1      26.227  27.262  -5.604  0.00  0.00    -0.027 C 
HETATM    9  C   UNK N   1      24.695  27.179  -5.614  0.00  0.00     0.016 C 
HETATM   10  C   UNK N   1      26.714  26.668  -6.928  0.00  0.00     0.016 C 
HETATM   11  C   UNK N   1      26.692  25.169  -4.113  0.00  0.00     0.024 C 
ENDROOT
BRANCH   6  12
HETATM   12  O   UNK N   1      28.873  28.381  -6.445  0.00  0.00    -0.395 OA
HETATM   13  H   UNK N   1      29.622  28.927  -6.731  0.00  0.00     0.210 HD
ENDBRANCH   6  12
TORSDOF 1
ENDMDL
MODEL 3
REMARK VINA RESULT:      -4.7     16.802     18.154
REMARK  1 active torsions:
REMARK  status: ('A' for Active; 'I' for Inactive)
REMARK    1  A    between atoms: C_6  and  O_7 
ROOT
HETATM    1  C   UNK N   1      33.646  16.830   7.946  0.00  0.00     0.026 C 
HETATM    2  C   UNK N   1      34.199  15.877   6.941  0.00  0.00     0.136 C 
HETATM    3  O   UNK N   1      35.120  16.120   6.176  0.00  0.00    -0.297 OA
HETATM    4  C   UNK N   1      33.302  14.700   6.811  0.00  0.00     0.087 C 
HETATM    5  C   UNK N   1      32.198  15.141   7.813  0.00  0.00     0.030 C 
HETATM    6  C   UNK N   1      32.785  14.982   9.237  0.00  0.00     0.124 C 
HETATM    7  C   UNK N   1      33.807  16.132   9.309  0.00  0.00     0.049 C 
HETATM    8  C   UNK N   1      32.151  16.680   7.639  0.00  0.00    -0.027 C 
HETATM    9  C   UNK N   1      31.741  17.120   6.228  0.00  0.00     0.016 C 
HETATM   10  C   UNK N   1      31.232  17.415   8.619  0.00  0.00     0.016 C 
HETATM   11  C   UNK N   1      34.232  18.234   7.911  0.00  0.00     0.024 C 
ENDROOT
BRANCH   6  12
HETATM   12  O   UNK N   1      31.798  15.181  10.206  0.00  0.00    -0.395 OA
HETATM   13  H   UNK N   1      31.513  16.052  10.525  0.00  0.00     0.210 HD
ENDBRANCH   6  12
TORSDOF 1
ENDMDL
MODEL 4
REMARK VINA RESULT:      -4.7     16.593     18.010
REMARK  1 active torsions:
REMARK  status: ('A' for Active; 'I' for Inactive)
REMARK    1  A    between atoms: C_6  and  O_7 
ROOT
HETATM    1  C   UNK N   1      33.418  16.102   8.380  0.00  0.00     0.026 C 
HETATM    2  C   UNK N   1      34.318  17.155   8.932  0.00  0.00     0.136 C 
HETATM    3  O   UNK N   1      34.704  17.213  10.089  0.00  0.00    -0.297 OA
HETATM    4  C   UNK N   1      34.455  18.268   7.956  0.00  0.00     0.087 C 
HETATM    5  C   UNK N   1      33.507  17.722   6.852  0.00  0.00     0.030 C 
HETATM    6  C   UNK N   1      34.243  16.550   6.157  0.00  0.00     0.124 C 
HETATM    7  C   UNK N   1      34.206  15.446   7.231  0.00  0.00     0.049 C 
HETATM    8  C   UNK N   1      32.401  16.993   7.656  0.00  0.00    -0.027 C 
HETATM    9  C   UNK N   1      31.603  17.927   8.575  0.00  0.00     0.016 C 
HETATM   10  C   UNK N   1      31.383  16.225   6.810  0.00  0.00     0.016 C 
HETATM   11  C   UNK N   1      32.880  15.102   9.393  0.00  0.00     0.024 C 
ENDROOT
BRANCH   6  12
HETATM   12  O   UNK N   1      33.539  16.120   5.029  0.00  0.00    -0.395 OA
HETATM   13  H   UNK N   1      33.758  15.324   4.519  0.00  0.00     0.210 HD
ENDBRANCH   6  12
TORSDOF 1
ENDMDL
MODEL 5
REMARK VINA RESULT:      -4.7      1.450      3.178
REMARK  1 active torsions:
REMARK  status: ('A' for Active; 'I' for Inactive)
REMARK    1  A    between atoms: C_6  and  O_7 
ROOT
HETATM    1  C   UNK N   1      26.143  26.835  -4.703  0.00  0.00     0.026 C 
HETATM    2  C   UNK N   1      26.473  25.528  -4.064  0.00  0.00     0.136 C 
HETATM    3  O   UNK N   1      26.392  25.291  -2.868  0.00  0.00    -0.297 OA
HETATM    4  C   UNK N   1      27.170  24.649  -5.039  0.00  0.00     0.087 C 
HETATM    5  C   UNK N   1      27.216  25.631  -6.242  0.00  0.00     0.030 C 
HETATM    6  C   UNK N   1      25.779  25.722  -6.813  0.00  0.00     0.124 C 
HETATM    7  C   UNK N   1      25.037  26.526  -5.728  0.00  0.00     0.049 C 
HETATM    8  C   UNK N   1      27.396  27.015  -5.569  0.00  0.00    -0.027 C 
HETATM    9  C   UNK N   1      28.706  27.140  -4.779  0.00  0.00     0.016 C 
HETATM   10  C   UNK N   1      27.335  28.212  -6.521  0.00  0.00     0.016 C 
HETATM   11  C   UNK N   1      25.784  27.961  -3.745  0.00  0.00     0.024 C 
ENDROOT
BRANCH   6  12
HETATM   12  O   UNK N   1      25.764  26.440  -8.011  0.00  0.00    -0.395 OA
HETATM   13  H   UNK N   1      26.535  26.556  -8.588  0.00  0.00     0.210 HD
ENDBRANCH   6  12
TORSDOF 1
ENDMDL
MODEL 6
REMARK VINA RESULT:      -4.7     16.362     17.574
REMARK  1 active torsions:
REMARK  status: ('A' for Active; 'I' for Inactive)
REMARK    1  A    between atoms: C_6  and  O_7 
ROOT
HETATM    1  C   UNK N   1      32.596  16.379   6.781  0.00  0.00     0.026 C 
HETATM    2  C   UNK N   1      33.467  17.568   6.554  0.00  0.00     0.136 C 
HETATM    3  O   UNK N   1      34.056  17.818   5.513  0.00  0.00    -0.297 OA
HETATM    4  C   UNK N   1      33.737  18.253   7.845  0.00  0.00     0.087 C 
HETATM    5  C   UNK N   1      32.961  17.287   8.784  0.00  0.00     0.030 C 
HETATM    6  C   UNK N   1      31.451  17.546   8.556  0.00  0.00     0.124 C 
HETATM    7  C   UNK N   1      31.214  16.945   7.158  0.00  0.00     0.049 C 
HETATM    8  C   UNK N   1      33.167  15.901   8.122  0.00  0.00    -0.027 C 
HETATM    9  C   UNK N   1      34.636  15.465   8.071  0.00  0.00     0.016 C 
HETATM   10  C   UNK N   1      32.383  14.754   8.765  0.00  0.00     0.016 C 
HETATM   11  C   UNK N   1      32.548  15.374   5.640  0.00  0.00     0.024 C 
ENDROOT
BRANCH   6  12
HETATM   12  O   UNK N   1      30.681  16.851   9.493  0.00  0.00    -0.395 OA
HETATM   13  H   UNK N   1      31.029  16.484  10.321  0.00  0.00     0.210 HD
ENDBRANCH   6  12
TORSDOF 1
ENDMDL
MODEL 7
REMARK VINA RESULT:      -4.7     25.288     26.665
REMARK  1 active torsions:
REMARK  status: ('A' for Active; 'I' for Inactive)
REMARK    1  A    between atoms: C_6  and  O_7 
ROOT
HETATM    1  C   UNK N   1      34.735  12.090  15.095  0.00  0.00     0.026 C 
HETATM    2  C   UNK N   1      35.158  13.084  14.067  0.00  0.00     0.136 C 
HETATM    3  O   UNK N   1      34.775  13.099  12.906  0.00  0.00    -0.297 OA
HETATM    4  C   UNK N   1      36.309  13.877  14.570  0.00  0.00     0.087 C 
HETATM    5  C   UNK N   1      36.483  13.179  15.948  0.00  0.00     0.030 C 
HETATM    6  C   UNK N   1      35.312  13.646  16.848  0.00  0.00     0.124 C 
HETATM    7  C   UNK N   1      34.104  12.916  16.232  0.00  0.00     0.049 C 
HETATM    8  C   UNK N   1      36.111  11.704  15.653  0.00  0.00    -0.027 C 
HETATM    9  C   UNK N   1      37.046  11.034  14.638  0.00  0.00     0.016 C 
HETATM   10  C   UNK N   1      36.058  10.791  16.880  0.00  0.00     0.016 C 
HETATM   11  C   UNK N   1      33.841  10.967  14.593  0.00  0.00     0.024 C 
ENDROOT
BRANCH   6  12
HETATM   12  O   UNK N   1      35.492  13.212  18.163  0.00  0.00    -0.395 OA
HETATM   13  H   UNK N   1      34.798  12.801  18.703  0.00  0.00     0.210 HD
ENDBRANCH   6  12
TORSDOF 1
ENDMDL
MODEL 8
REMARK VINA RESULT:      -4.6     16.062     17.472
REMARK  1 active torsions:
REMARK  status: ('A' for Active; 'I' for Inactive)
REMARK    1  A    between atoms: C_6  and  O_7 
ROOT
HETATM    1  C   UNK N   1      31.930  17.067   7.360  0.00  0.00     0.026 C 
HETATM    2  C   UNK N   1      32.584  17.291   6.038  0.00  0.00     0.136 C 
HETATM    3  O   UNK N   1      31.999  17.579   5.005  0.00  0.00    -0.297 OA
HETATM    4  C   UNK N   1      34.002  16.848   6.093  0.00  0.00     0.087 C 
HETATM    5  C   UNK N   1      34.024  16.328   7.557  0.00  0.00     0.030 C 
HETATM    6  C   UNK N   1      34.006  17.570   8.483  0.00  0.00     0.124 C 
HETATM    7  C   UNK N   1      32.567  18.093   8.315  0.00  0.00     0.049 C 
HETATM    8  C   UNK N   1      32.602  15.745   7.752  0.00  0.00    -0.027 C 
HETATM    9  C   UNK N   1      32.293  14.570   6.815  0.00  0.00     0.016 C 
HETATM   10  C   UNK N   1      32.282  15.276   9.174  0.00  0.00     0.016 C 
HETATM   11  C   UNK N   1      30.409  17.107   7.354  0.00  0.00     0.024 C 
ENDROOT
BRANCH   6  12
HETATM   12  O   UNK N   1      34.211  17.200   9.815  0.00  0.00    -0.395 OA
HETATM   13  H   UNK N   1      35.036  16.821  10.156  0.00  0.00     0.210 HD
ENDBRANCH   6  12
TORSDOF 1
ENDMDL
MODEL 9
REMARK VINA RESULT:      -4.5     16.315     17.732
REMARK  1 active torsions:
REMARK  status: ('A' for Active; 'I' for Inactive)
REMARK    1  A    between atoms: C_6  and  O_7 
ROOT
HETATM    1  C   UNK N   1      33.502  17.377   8.093  0.00  0.00     0.026 C 
HETATM    2  C   UNK N   1      33.624  16.238   9.047  0.00  0.00     0.136 C 
HETATM    3  O   UNK N   1      34.456  16.154   9.938  0.00  0.00    -0.297 OA
HETATM    4  C   UNK N   1      32.779  15.103   8.593  0.00  0.00     0.087 C 
HETATM    5  C   UNK N   1      32.231  15.735   7.283  0.00  0.00     0.030 C 
HETATM    6  C   UNK N   1      31.192  16.807   7.694  0.00  0.00     0.124 C 
HETATM    7  C   UNK N   1      32.075  17.924   8.282  0.00  0.00     0.049 C 
HETATM    8  C   UNK N   1      33.416  16.595   6.776  0.00  0.00    -0.027 C 
HETATM    9  C   UNK N   1      34.666  15.770   6.441  0.00  0.00     0.016 C 
HETATM   10  C   UNK N   1      33.112  17.460   5.551  0.00  0.00     0.016 C 
HETATM   11  C   UNK N   1      34.580  18.445   8.206  0.00  0.00     0.024 C 
ENDROOT
BRANCH   6  12
HETATM   12  O   UNK N   1      30.513  17.297   6.574  0.00  0.00    -0.395 OA
HETATM   13  H   UNK N   1      30.652  18.178   6.194  0.00  0.00     0.210 HD
ENDBRANCH   6  12
TORSDOF 1
ENDMDL
