MODEL 1
REMARK VINA RESULT:      -3.9      0.000      0.000
REMARK  11 active torsions:
REMARK  status: ('A' for Active; 'I' for Inactive)
REMARK    1  A    between atoms: C_1  and  C_2 
REMARK    2  A    between atoms: C_1  and  N_16 
REMARK    3  A    between atoms: C_2  and  C_3 
REMARK    4  A    between atoms: C_3  and  C_4 
REMARK    5  A    between atoms: C_4  and  C_5 
REMARK    6  A    between atoms: C_5  and  C_6 
REMARK    7  A    between atoms: C_6  and  C_7 
REMARK    8  A    between atoms: C_7  and  C_8 
REMARK    9  A    between atoms: C_8  and  C_9 
REMARK   10  A    between atoms: C_9  and  C_10 
REMARK   11  A    between atoms: C_10  and  C_11 
ROOT
HETATM    1  C   UNK N   1      27.360  24.472  -3.562  0.00  0.00     0.000 C 
ENDROOT
BRANCH   1   2
HETATM    2  C   UNK N   1      28.471  24.897  -4.497  0.00  0.00     0.002 C 
BRANCH   2   3
HETATM    3  C   UNK N   1      29.779  24.791  -3.747  0.00  0.00     0.028 C 
BRANCH   3   4
HETATM    4  C   UNK N   1      30.778  23.949  -4.535  0.00  0.00     0.236 C 
BRANCH   4   5
HETATM    5  N   UNK N   1      31.046  22.654  -3.908  0.00  0.00    -0.079 N 
HETATM    6  C   UNK N   1      30.670  22.646  -2.499  0.00  0.00     0.271 C 
HETATM    7  C   UNK N   1      30.263  21.644  -4.590  0.00  0.00     0.271 C 
HETATM    8  C   UNK N   1      32.454  22.305  -4.036  0.00  0.00     0.271 C 
ENDBRANCH   4   5
ENDBRANCH   3   4
ENDBRANCH   2   3
ENDBRANCH   1   2
BRANCH   1   9
HETATM    9  C   UNK N   1      26.087  24.246  -4.343  0.00  0.00     0.000 C 
BRANCH   9  10
HETATM   10  C   UNK N   1      26.338  24.586  -5.796  0.00  0.00     0.000 C 
BRANCH  10  11
HETATM   11  C   UNK N   1      25.436  25.729  -6.200  0.00  0.00     0.000 C 
BRANCH  11  12
HETATM   12  C   UNK N   1      26.255  26.851  -6.798  0.00  0.00     0.000 C 
BRANCH  12  13
HETATM   13  C   UNK N   1      26.480  27.899  -5.731  0.00  0.00     0.000 C 
BRANCH  13  14
HETATM   14  C   UNK N   1      25.345  27.883  -4.731  0.00  0.00    -0.000 C 
BRANCH  14  15
HETATM   15  C   UNK N   1      25.926  27.956  -3.334  0.00  0.00    -0.005 C 
HETATM   16  C   UNK N   1      27.408  28.252  -3.412  0.00  0.00     0.005 C 
ENDBRANCH  14  15
ENDBRANCH  13  14
ENDBRANCH  12  13
ENDBRANCH  11  12
ENDBRANCH  10  11
ENDBRANCH   9  10
ENDBRANCH   1   9
TORSDOF 11
ENDMDL
MODEL 2
REMARK VINA RESULT:      -3.9     11.309     14.979
REMARK  11 active torsions:
REMARK  status: ('A' for Active; 'I' for Inactive)
REMARK    1  A    between atoms: C_1  and  C_2 
REMARK    2  A    between atoms: C_1  and  N_16 
REMARK    3  A    between atoms: C_2  and  C_3 
REMARK    4  A    between atoms: C_3  and  C_4 
REMARK    5  A    between atoms: C_4  and  C_5 
REMARK    6  A    between atoms: C_5  and  C_6 
REMARK    7  A    between atoms: C_6  and  C_7 
REMARK    8  A    between atoms: C_7  and  C_8 
REMARK    9  A    between atoms: C_8  and  C_9 
REMARK   10  A    between atoms: C_9  and  C_10 
REMARK   11  A    between atoms: C_10  and  C_11 
ROOT
HETATM    1  C   UNK N   1      29.510  18.577   9.715  0.00  0.00     0.000 C 
ENDROOT
BRANCH   1   2
HETATM    2  C   UNK N   1      28.235  18.274   8.959  0.00  0.00     0.002 C 
BRANCH   2   3
HETATM    3  C   UNK N   1      28.019  19.377   7.948  0.00  0.00     0.028 C 
BRANCH   3   4
HETATM    4  C   UNK N   1      27.737  18.786   6.569  0.00  0.00     0.236 C 
BRANCH   4   5
HETATM    5  N   UNK N   1      27.226  19.778   5.622  0.00  0.00    -0.079 N 
HETATM    6  C   UNK N   1      25.863  19.474   5.202  0.00  0.00     0.271 C 
HETATM    7  C   UNK N   1      27.221  21.073   6.272  0.00  0.00     0.271 C 
HETATM    8  C   UNK N   1      28.088  19.859   4.451  0.00  0.00     0.271 C 
ENDBRANCH   4   5
ENDBRANCH   3   4
ENDBRANCH   2   3
ENDBRANCH   1   2
BRANCH   1   9
HETATM    9  C   UNK N   1      30.708  18.284   8.843  0.00  0.00     0.000 C 
BRANCH   9  10
HETATM   10  C   UNK N   1      30.812  16.788   8.641  0.00  0.00     0.000 C 
BRANCH  10  11
HETATM   11  C   UNK N   1      30.679  16.477   7.168  0.00  0.00     0.000 C 
BRANCH  11  12
HETATM   12  C   UNK N   1      31.798  17.140   6.395  0.00  0.00     0.000 C 
BRANCH  12  13
HETATM   13  C   UNK N   1      33.104  16.489   6.792  0.00  0.00     0.000 C 
BRANCH  13  14
HETATM   14  C   UNK N   1      34.230  17.497   6.739  0.00  0.00    -0.000 C 
BRANCH  14  15
HETATM   15  C   UNK N   1      34.344  18.170   8.091  0.00  0.00    -0.005 C 
HETATM   16  C   UNK N   1      34.515  17.123   9.170  0.00  0.00     0.005 C 
ENDBRANCH  14  15
ENDBRANCH  13  14
ENDBRANCH  12  13
ENDBRANCH  11  12
ENDBRANCH  10  11
ENDBRANCH   9  10
ENDBRANCH   1   9
TORSDOF 11
ENDMDL
MODEL 3
REMARK VINA RESULT:      -3.9     11.001     13.397
REMARK  11 active torsions:
REMARK  status: ('A' for Active; 'I' for Inactive)
REMARK    1  A    between atoms: C_1  and  C_2 
REMARK    2  A    between atoms: C_1  and  N_16 
REMARK    3  A    between atoms: C_2  and  C_3 
REMARK    4  A    between atoms: C_3  and  C_4 
REMARK    5  A    between atoms: C_4  and  C_5 
REMARK    6  A    between atoms: C_5  and  C_6 
REMARK    7  A    between atoms: C_6  and  C_7 
REMARK    8  A    between atoms: C_7  and  C_8 
REMARK    9  A    between atoms: C_8  and  C_9 
REMARK   10  A    between atoms: C_9  and  C_10 
REMARK   11  A    between atoms: C_10  and  C_11 
ROOT
HETATM    1  C   UNK N   1      28.705  18.692   7.967  0.00  0.00     0.000 C 
ENDROOT
BRANCH   1   2
HETATM    2  C   UNK N   1      29.578  18.557   9.196  0.00  0.00     0.002 C 
BRANCH   2   3
HETATM    3  C   UNK N   1      30.564  17.438   8.946  0.00  0.00     0.028 C 
BRANCH   3   4
HETATM    4  C   UNK N   1      31.888  18.001   8.437  0.00  0.00     0.236 C 
BRANCH   4   5
HETATM    5  N   UNK N   1      32.583  17.084   7.534  0.00  0.00    -0.079 N 
HETATM    6  C   UNK N   1      31.795  16.798   6.341  0.00  0.00     0.271 C 
HETATM    7  C   UNK N   1      33.825  17.703   7.117  0.00  0.00     0.271 C 
HETATM    8  C   UNK N   1      32.902  15.837   8.215  0.00  0.00     0.271 C 
ENDBRANCH   4   5
ENDBRANCH   3   4
ENDBRANCH   2   3
ENDBRANCH   1   2
BRANCH   1   9
HETATM    9  C   UNK N   1      28.007  17.382   7.685  0.00  0.00     0.000 C 
BRANCH   9  10
HETATM   10  C   UNK N   1      27.966  17.162   6.188  0.00  0.00     0.000 C 
BRANCH  10  11
HETATM   11  C   UNK N   1      28.557  18.368   5.495  0.00  0.00     0.000 C 
BRANCH  11  12
HETATM   12  C   UNK N   1      27.722  18.734   4.287  0.00  0.00     0.000 C 
BRANCH  12  13
HETATM   13  C   UNK N   1      27.356  20.197   4.386  0.00  0.00     0.000 C 
BRANCH  13  14
HETATM   14  C   UNK N   1      26.368  20.417   5.510  0.00  0.00    -0.000 C 
BRANCH  14  15
HETATM   15  C   UNK N   1      26.894  21.515   6.412  0.00  0.00    -0.005 C 
HETATM   16  C   UNK N   1      26.038  21.608   7.655  0.00  0.00     0.005 C 
ENDBRANCH  14  15
ENDBRANCH  13  14
ENDBRANCH  12  13
ENDBRANCH  11  12
ENDBRANCH  10  11
ENDBRANCH   9  10
ENDBRANCH   1   9
TORSDOF 11
ENDMDL
MODEL 4
REMARK VINA RESULT:      -3.8     10.727     14.199
REMARK  11 active torsions:
REMARK  status: ('A' for Active; 'I' for Inactive)
REMARK    1  A    between atoms: C_1  and  C_2 
REMARK    2  A    between atoms: C_1  and  N_16 
REMARK    3  A    between atoms: C_2  and  C_3 
REMARK    4  A    between atoms: C_3  and  C_4 
REMARK    5  A    between atoms: C_4  and  C_5 
REMARK    6  A    between atoms: C_5  and  C_6 
REMARK    7  A    between atoms: C_6  and  C_7 
REMARK    8  A    between atoms: C_7  and  C_8 
REMARK    9  A    between atoms: C_8  and  C_9 
REMARK   10  A    between atoms: C_9  and  C_10 
REMARK   11  A    between atoms: C_10  and  C_11 
ROOT
HETATM    1  C   UNK N   1      27.869  17.668   6.676  0.00  0.00     0.000 C 
ENDROOT
BRANCH   1   2
HETATM    2  C   UNK N   1      28.809  17.957   5.527  0.00  0.00     0.002 C 
BRANCH   2   3
HETATM    3  C   UNK N   1      28.249  19.127   4.750  0.00  0.00     0.028 C 
BRANCH   3   4
HETATM    4  C   UNK N   1      26.981  18.715   4.009  0.00  0.00     0.236 C 
BRANCH   4   5
HETATM    5  N   UNK N   1      25.854  19.611   4.274  0.00  0.00    -0.079 N 
HETATM    6  C   UNK N   1      26.199  20.644   5.243  0.00  0.00     0.271 C 
HETATM    7  C   UNK N   1      25.482  20.260   3.033  0.00  0.00     0.271 C 
HETATM    8  C   UNK N   1      24.704  18.858   4.756  0.00  0.00     0.271 C 
ENDBRANCH   4   5
ENDBRANCH   3   4
ENDBRANCH   2   3
ENDBRANCH   1   2
BRANCH   1   9
HETATM    9  C   UNK N   1      28.094  18.664   7.789  0.00  0.00     0.000 C 
BRANCH   9  10
HETATM   10  C   UNK N   1      28.085  17.930   9.112  0.00  0.00     0.000 C 
BRANCH  10  11
HETATM   11  C   UNK N   1      29.494  17.497   9.447  0.00  0.00     0.000 C 
BRANCH  11  12
HETATM   12  C   UNK N   1      30.466  18.618   9.153  0.00  0.00     0.000 C 
BRANCH  12  13
HETATM   13  C   UNK N   1      31.691  18.027   8.493  0.00  0.00     0.000 C 
BRANCH  13  14
HETATM   14  C   UNK N   1      31.396  16.630   7.993  0.00  0.00    -0.000 C 
BRANCH  14  15
HETATM   15  C   UNK N   1      31.951  16.488   6.591  0.00  0.00    -0.005 C 
HETATM   16  C   UNK N   1      33.108  17.443   6.400  0.00  0.00     0.005 C 
ENDBRANCH  14  15
ENDBRANCH  13  14
ENDBRANCH  12  13
ENDBRANCH  11  12
ENDBRANCH  10  11
ENDBRANCH   9  10
ENDBRANCH   1   9
TORSDOF 11
ENDMDL
MODEL 5
REMARK VINA RESULT:      -3.8     21.245     25.057
REMARK  11 active torsions:
REMARK  status: ('A' for Active; 'I' for Inactive)
REMARK    1  A    between atoms: C_1  and  C_2 
REMARK    2  A    between atoms: C_1  and  N_16 
REMARK    3  A    between atoms: C_2  and  C_3 
REMARK    4  A    between atoms: C_3  and  C_4 
REMARK    5  A    between atoms: C_4  and  C_5 
REMARK    6  A    between atoms: C_5  and  C_6 
REMARK    7  A    between atoms: C_6  and  C_7 
REMARK    8  A    between atoms: C_7  and  C_8 
REMARK    9  A    between atoms: C_8  and  C_9 
REMARK   10  A    between atoms: C_9  and  C_10 
REMARK   11  A    between atoms: C_10  and  C_11 
ROOT
HETATM    1  C   UNK N   1      36.467  14.464  16.647  0.00  0.00     0.000 C 
ENDROOT
BRANCH   1   2
HETATM    2  C   UNK N   1      37.090  14.264  15.283  0.00  0.00     0.002 C 
BRANCH   2   3
HETATM    3  C   UNK N   1      36.028  13.709  14.362  0.00  0.00     0.028 C 
BRANCH   3   4
HETATM    4  C   UNK N   1      36.010  14.480  13.045  0.00  0.00     0.236 C 
BRANCH   4   5
HETATM    5  N   UNK N   1      35.942  13.603  11.876  0.00  0.00    -0.079 N 
HETATM    6  C   UNK N   1      37.231  13.494  11.204  0.00  0.00     0.271 C 
HETATM    7  C   UNK N   1      35.549  12.280  12.318  0.00  0.00     0.271 C 
HETATM    8  C   UNK N   1      34.942  14.084  10.932  0.00  0.00     0.271 C 
ENDBRANCH   4   5
ENDBRANCH   3   4
ENDBRANCH   2   3
ENDBRANCH   1   2
BRANCH   1   9
HETATM    9  C   UNK N   1      35.393  13.428  16.879  0.00  0.00     0.000 C 
BRANCH   9  10
HETATM   10  C   UNK N   1      35.111  13.341  18.364  0.00  0.00     0.000 C 
BRANCH  10  11
HETATM   11  C   UNK N   1      35.345  11.922  18.829  0.00  0.00     0.000 C 
BRANCH  11  12
HETATM   12  C   UNK N   1      36.034  11.126  17.741  0.00  0.00     0.000 C 
BRANCH  12  13
HETATM   13  C   UNK N   1      35.561   9.693  17.827  0.00  0.00     0.000 C 
BRANCH  13  14
HETATM   14  C   UNK N   1      34.479   9.434  16.803  0.00  0.00    -0.000 C 
BRANCH  14  15
HETATM   15  C   UNK N   1      34.865  10.114  15.505  0.00  0.00    -0.005 C 
HETATM   16  C   UNK N   1      33.645  10.754  14.881  0.00  0.00     0.005 C 
ENDBRANCH  14  15
ENDBRANCH  13  14
ENDBRANCH  12  13
ENDBRANCH  11  12
ENDBRANCH  10  11
ENDBRANCH   9  10
ENDBRANCH   1   9
TORSDOF 11
ENDMDL
MODEL 6
REMARK VINA RESULT:      -3.8      1.409      2.707
REMARK  11 active torsions:
REMARK  status: ('A' for Active; 'I' for Inactive)
REMARK    1  A    between atoms: C_1  and  C_2 
REMARK    2  A    between atoms: C_1  and  N_16 
REMARK    3  A    between atoms: C_2  and  C_3 
REMARK    4  A    between atoms: C_3  and  C_4 
REMARK    5  A    between atoms: C_4  and  C_5 
REMARK    6  A    between atoms: C_5  and  C_6 
REMARK    7  A    between atoms: C_6  and  C_7 
REMARK    8  A    between atoms: C_7  and  C_8 
REMARK    9  A    between atoms: C_8  and  C_9 
REMARK   10  A    between atoms: C_9  and  C_10 
REMARK   11  A    between atoms: C_10  and  C_11 
ROOT
HETATM    1  C   UNK N   1      28.726  23.327  -2.608  0.00  0.00     0.000 C 
ENDROOT
BRANCH   1   2
HETATM    2  C   UNK N   1      30.132  22.952  -2.195  0.00  0.00     0.002 C 
BRANCH   2   3
HETATM    3  C   UNK N   1      30.627  21.883  -3.143  0.00  0.00     0.028 C 
BRANCH   3   4
HETATM    4  C   UNK N   1      32.119  21.638  -2.935  0.00  0.00     0.236 C 
BRANCH   4   5
HETATM    5  N   UNK N   1      32.757  21.012  -4.093  0.00  0.00    -0.079 N 
HETATM    6  C   UNK N   1      33.119  21.993  -5.109  0.00  0.00     0.271 C 
HETATM    7  C   UNK N   1      33.968  20.352  -3.650  0.00  0.00     0.271 C 
HETATM    8  C   UNK N   1      31.880  20.007  -4.680  0.00  0.00     0.271 C 
ENDBRANCH   4   5
ENDBRANCH   3   4
ENDBRANCH   2   3
ENDBRANCH   1   2
BRANCH   1   9
HETATM    9  C   UNK N   1      28.751  24.025  -3.947  0.00  0.00     0.000 C 
BRANCH   9  10
HETATM   10  C   UNK N   1      27.690  25.105  -3.955  0.00  0.00     0.000 C 
BRANCH  10  11
HETATM   11  C   UNK N   1      26.325  24.456  -3.954  0.00  0.00     0.000 C 
BRANCH  11  12
HETATM   12  C   UNK N   1      25.721  24.515  -5.340  0.00  0.00     0.000 C 
BRANCH  12  13
HETATM   13  C   UNK N   1      25.978  25.890  -5.914  0.00  0.00     0.000 C 
BRANCH  13  14
HETATM   14  C   UNK N   1      24.832  26.820  -5.585  0.00  0.00    -0.000 C 
BRANCH  14  15
HETATM   15  C   UNK N   1      25.358  27.960  -4.737  0.00  0.00    -0.005 C 
HETATM   16  C   UNK N   1      26.693  28.423  -5.276  0.00  0.00     0.005 C 
ENDBRANCH  14  15
ENDBRANCH  13  14
ENDBRANCH  12  13
ENDBRANCH  11  12
ENDBRANCH  10  11
ENDBRANCH   9  10
ENDBRANCH   1   9
TORSDOF 11
ENDMDL
MODEL 7
REMARK VINA RESULT:      -3.7      1.308      2.735
REMARK  11 active torsions:
REMARK  status: ('A' for Active; 'I' for Inactive)
REMARK    1  A    between atoms: C_1  and  C_2 
REMARK    2  A    between atoms: C_1  and  N_16 
REMARK    3  A    between atoms: C_2  and  C_3 
REMARK    4  A    between atoms: C_3  and  C_4 
REMARK    5  A    between atoms: C_4  and  C_5 
REMARK    6  A    between atoms: C_5  and  C_6 
REMARK    7  A    between atoms: C_6  and  C_7 
REMARK    8  A    between atoms: C_7  and  C_8 
REMARK    9  A    between atoms: C_8  and  C_9 
REMARK   10  A    between atoms: C_9  and  C_10 
REMARK   11  A    between atoms: C_10  and  C_11 
ROOT
HETATM    1  C   UNK N   1      28.300  24.250  -4.616  0.00  0.00     0.000 C 
ENDROOT
BRANCH   1   2
HETATM    2  C   UNK N   1      27.870  23.512  -5.864  0.00  0.00     0.002 C 
BRANCH   2   3
HETATM    3  C   UNK N   1      28.902  22.447  -6.155  0.00  0.00     0.028 C 
BRANCH   3   4
HETATM    4  C   UNK N   1      30.237  22.810  -5.512  0.00  0.00     0.236 C 
BRANCH   4   5
HETATM    5  N   UNK N   1      30.958  21.642  -5.005  0.00  0.00    -0.079 N 
HETATM    6  C   UNK N   1      30.908  20.526  -5.942  0.00  0.00     0.271 C 
HETATM    7  C   UNK N   1      32.347  22.008  -4.812  0.00  0.00     0.271 C 
HETATM    8  C   UNK N   1      30.415  21.222  -3.721  0.00  0.00     0.271 C 
ENDBRANCH   4   5
ENDBRANCH   3   4
ENDBRANCH   2   3
ENDBRANCH   1   2
BRANCH   1   9
HETATM    9  C   UNK N   1      27.179  24.247  -3.603  0.00  0.00     0.000 C 
BRANCH   9  10
HETATM   10  C   UNK N   1      26.151  25.282  -4.008  0.00  0.00     0.000 C 
BRANCH  10  11
HETATM   11  C   UNK N   1      26.469  26.590  -3.320  0.00  0.00     0.000 C 
BRANCH  11  12
HETATM   12  C   UNK N   1      25.641  27.706  -3.918  0.00  0.00     0.000 C 
BRANCH  12  13
HETATM   13  C   UNK N   1      25.609  27.524  -5.419  0.00  0.00     0.000 C 
BRANCH  13  14
HETATM   14  C   UNK N   1      26.861  28.096  -6.044  0.00  0.00    -0.000 C 
BRANCH  14  15
HETATM   15  C   UNK N   1      27.287  27.198  -7.188  0.00  0.00    -0.005 C 
HETATM   16  C   UNK N   1      26.123  26.332  -7.617  0.00  0.00     0.005 C 
ENDBRANCH  14  15
ENDBRANCH  13  14
ENDBRANCH  12  13
ENDBRANCH  11  12
ENDBRANCH  10  11
ENDBRANCH   9  10
ENDBRANCH   1   9
TORSDOF 11
ENDMDL
MODEL 8
REMARK VINA RESULT:      -3.7      2.235      5.941
REMARK  11 active torsions:
REMARK  status: ('A' for Active; 'I' for Inactive)
REMARK    1  A    between atoms: C_1  and  C_2 
REMARK    2  A    between atoms: C_1  and  N_16 
REMARK    3  A    between atoms: C_2  and  C_3 
REMARK    4  A    between atoms: C_3  and  C_4 
REMARK    5  A    between atoms: C_4  and  C_5 
REMARK    6  A    between atoms: C_5  and  C_6 
REMARK    7  A    between atoms: C_6  and  C_7 
REMARK    8  A    between atoms: C_7  and  C_8 
REMARK    9  A    between atoms: C_8  and  C_9 
REMARK   10  A    between atoms: C_9  and  C_10 
REMARK   11  A    between atoms: C_10  and  C_11 
ROOT
HETATM    1  C   UNK N   1      26.009  26.452  -6.096  0.00  0.00     0.000 C 
ENDROOT
BRANCH   1   2
HETATM    2  C   UNK N   1      25.129  27.381  -5.288  0.00  0.00     0.002 C 
BRANCH   2   3
HETATM    3  C   UNK N   1      25.808  27.629  -3.960  0.00  0.00     0.028 C 
BRANCH   3   4
HETATM    4  C   UNK N   1      26.072  29.119  -3.768  0.00  0.00     0.236 C 
BRANCH   4   5
HETATM    5  N   UNK N   1      27.499  29.444  -3.754  0.00  0.00    -0.079 N 
HETATM    6  C   UNK N   1      28.322  28.258  -3.556  0.00  0.00     0.271 C 
HETATM    7  C   UNK N   1      27.849  30.029  -5.032  0.00  0.00     0.271 C 
HETATM    8  C   UNK N   1      27.792  30.418  -2.712  0.00  0.00     0.271 C 
ENDBRANCH   4   5
ENDBRANCH   3   4
ENDBRANCH   2   3
ENDBRANCH   1   2
BRANCH   1   9
HETATM    9  C   UNK N   1      25.637  25.016  -5.814  0.00  0.00     0.000 C 
BRANCH   9  10
HETATM   10  C   UNK N   1      26.831  24.312  -5.205  0.00  0.00     0.000 C 
BRANCH  10  11
HETATM   11  C   UNK N   1      26.575  24.090  -3.732  0.00  0.00     0.000 C 
BRANCH  11  12
HETATM   12  C   UNK N   1      27.888  23.985  -2.988  0.00  0.00     0.000 C 
BRANCH  12  13
HETATM   13  C   UNK N   1      28.971  24.607  -3.839  0.00  0.00     0.000 C 
BRANCH  13  14
HETATM   14  C   UNK N   1      30.337  24.211  -3.324  0.00  0.00    -0.000 C 
BRANCH  14  15
HETATM   15  C   UNK N   1      30.195  22.962  -2.479  0.00  0.00    -0.005 C 
HETATM   16  C   UNK N   1      31.241  21.948  -2.886  0.00  0.00     0.005 C 
ENDBRANCH  14  15
ENDBRANCH  13  14
ENDBRANCH  12  13
ENDBRANCH  11  12
ENDBRANCH  10  11
ENDBRANCH   9  10
ENDBRANCH   1   9
TORSDOF 11
ENDMDL
MODEL 9
REMARK VINA RESULT:      -3.6     20.077     24.042
REMARK  11 active torsions:
REMARK  status: ('A' for Active; 'I' for Inactive)
REMARK    1  A    between atoms: C_1  and  C_2 
REMARK    2  A    between atoms: C_1  and  N_16 
REMARK    3  A    between atoms: C_2  and  C_3 
REMARK    4  A    between atoms: C_3  and  C_4 
REMARK    5  A    between atoms: C_4  and  C_5 
REMARK    6  A    between atoms: C_5  and  C_6 
REMARK    7  A    between atoms: C_6  and  C_7 
REMARK    8  A    between atoms: C_7  and  C_8 
REMARK    9  A    between atoms: C_8  and  C_9 
REMARK   10  A    between atoms: C_9  and  C_10 
REMARK   11  A    between atoms: C_10  and  C_11 
ROOT
HETATM    1  C   UNK N   1      36.621  13.859  15.371  0.00  0.00     0.000 C 
ENDROOT
BRANCH   1   2
HETATM    2  C   UNK N   1      35.768  13.602  14.148  0.00  0.00     0.002 C 
BRANCH   2   3
HETATM    3  C   UNK N   1      36.196  14.570  13.069  0.00  0.00     0.028 C 
BRANCH   3   4
HETATM    4  C   UNK N   1      36.565  13.816  11.795  0.00  0.00     0.236 C 
BRANCH   4   5
HETATM    5  N   UNK N   1      36.118  14.501  10.582  0.00  0.00    -0.079 N 
HETATM    6  C   UNK N   1      35.990  15.939  10.787  0.00  0.00     0.271 C 
HETATM    7  C   UNK N   1      37.100  14.278   9.540  0.00  0.00     0.271 C 
HETATM    8  C   UNK N   1      34.843  13.961  10.129  0.00  0.00     0.271 C 
ENDBRANCH   4   5
ENDBRANCH   3   4
ENDBRANCH   2   3
ENDBRANCH   1   2
BRANCH   1   9
HETATM    9  C   UNK N   1      35.839  13.537  16.622  0.00  0.00     0.000 C 
BRANCH   9  10
HETATM   10  C   UNK N   1      34.712  12.592  16.265  0.00  0.00     0.000 C 
BRANCH  10  11
HETATM   11  C   UNK N   1      35.105  11.185  16.652  0.00  0.00     0.000 C 
BRANCH  11  12
HETATM   12  C   UNK N   1      34.633  10.206  15.599  0.00  0.00     0.000 C 
BRANCH  12  13
HETATM   13  C   UNK N   1      35.843   9.677  14.862  0.00  0.00     0.000 C 
BRANCH  13  14
HETATM   14  C   UNK N   1      37.112  10.082  15.578  0.00  0.00    -0.000 C 
BRANCH  14  15
HETATM   15  C   UNK N   1      38.124  10.546  14.550  0.00  0.00    -0.005 C 
HETATM   16  C   UNK N   1      37.519  10.465  13.166  0.00  0.00     0.005 C 
ENDBRANCH  14  15
ENDBRANCH  13  14
ENDBRANCH  12  13
ENDBRANCH  11  12
ENDBRANCH  10  11
ENDBRANCH   9  10
ENDBRANCH   1   9
TORSDOF 11
ENDMDL
