REMARK  11 active torsions:
REMARK  status: ('A' for Active; 'I' for Inactive)
REMARK    1  A    between atoms: C_1  and  C_2 
REMARK    2  A    between atoms: C_1  and  N_16 
REMARK    3  A    between atoms: C_2  and  C_3 
REMARK    4  A    between atoms: C_3  and  C_4 
REMARK    5  A    between atoms: C_4  and  C_5 
REMARK    6  A    between atoms: C_5  and  C_6 
REMARK    7  A    between atoms: C_6  and  C_7 
REMARK    8  A    between atoms: C_7  and  C_8 
REMARK    9  A    between atoms: C_8  and  C_9 
REMARK   10  A    between atoms: C_9  and  C_10 
REMARK   11  A    between atoms: C_10  and  C_11 
ROOT
HETATM    1  C   UNK N   1       1.182  -0.243  -0.037  0.00  0.00     0.000 C 
ENDROOT
BRANCH   1   2
HETATM    2  C   UNK N   1       2.282  -1.195   0.378  0.00  0.00     0.002 C 
BRANCH   2   3
HETATM    3  C   UNK N   1       3.472  -0.371   0.814  0.00  0.00     0.028 C 
BRANCH   3   4
HETATM    4  C   UNK N   1       4.678  -0.668  -0.073  0.00  0.00     0.236 C 
BRANCH   4   5
HETATM    5  N   UNK N   1       5.576   0.479  -0.210  0.00  0.00    -0.079 N 
HETATM    6  C   UNK N   1       6.022   0.976   1.086  0.00  0.00     0.271 C 
HETATM    7  C   UNK N   1       6.743   0.061  -0.960  0.00  0.00     0.271 C 
HETATM    8  C   UNK N   1       4.924   1.555  -0.944  0.00  0.00     0.271 C 
ENDBRANCH   4   5
ENDBRANCH   3   4
ENDBRANCH   2   3
ENDBRANCH   1   2
BRANCH   1   9
HETATM    9  C   UNK N   1      -0.144  -0.966  -0.059  0.00  0.00     0.000 C 
BRANCH   9  10
HETATM   10  C   UNK N   1      -1.258   0.057  -0.115  0.00  0.00     0.000 C 
BRANCH  10  11
HETATM   11  C   UNK N   1      -2.588  -0.655  -0.023  0.00  0.00     0.000 C 
BRANCH  11  12
HETATM   12  C   UNK N   1      -3.717   0.352  -0.021  0.00  0.00     0.000 C 
BRANCH  12  13
HETATM   13  C   UNK N   1      -5.028  -0.401   0.013  0.00  0.00     0.000 C 
BRANCH  13  14
HETATM   14  C   UNK N   1      -6.190   0.567   0.002  0.00  0.00    -0.000 C 
BRANCH  14  15
HETATM   15  C   UNK N   1      -7.482  -0.224   0.005  0.00  0.00    -0.005 C 
HETATM   16  C   UNK N   1      -8.661   0.724  -0.001  0.00  0.00     0.005 C 
ENDBRANCH  14  15
ENDBRANCH  13  14
ENDBRANCH  12  13
ENDBRANCH  11  12
ENDBRANCH  10  11
ENDBRANCH   9  10
ENDBRANCH   1   9
TORSDOF 11
