MODEL 1
REMARK VINA RESULT:      -5.5      0.000      0.000
REMARK  4 active torsions:
REMARK  status: ('A' for Active; 'I' for Inactive)
REMARK    1  A    between atoms: O_1  and  C_2 
REMARK    2  A    between atoms: C_2  and  O_3 
REMARK    3  A    between atoms: C_2  and  C_4 
REMARK    4  A    between atoms: C_5  and  C_4 
ROOT
HETATM    1  C   UNK N   1      22.631  11.945  10.348  0.00  0.00     0.011 C 
HETATM    2  C   UNK N   1      23.070  12.051   8.870  0.00  0.00    -0.033 C 
HETATM    3  C   UNK N   1      23.661  10.759   8.326  0.00  0.00     0.016 C 
HETATM    4  C   UNK N   1      24.125  13.161   8.726  0.00  0.00     0.016 C 
HETATM    5  C   UNK N   1      21.754  12.438   8.157  0.00  0.00     0.059 C 
HETATM    6  C   UNK N   1      21.965  13.165   6.831  0.00  0.00     0.018 C 
HETATM    7  C   UNK N   1      21.103  13.283   9.198  0.00  0.00     0.131 C 
HETATM    8  O   UNK N   1      20.054  13.880   9.016  0.00  0.00    -0.298 OA
HETATM    9  C   UNK N   1      21.739  13.177  10.538  0.00  0.00     0.084 C 
ENDROOT
BRANCH   1  10
HETATM   10  C   UNK N   1      23.797  11.903  11.345  0.00  0.00     0.112 C 
BRANCH  10  11
HETATM   11  C   UNK N   1      23.349  11.925  12.777  0.00  0.00     0.106 C 
BRANCH  11  12
HETATM   12  O   UNK N   1      22.318  11.152  13.163  0.00  0.00    -0.778 OA
HETATM   13  H   UNK N   1      22.115  10.927  14.050  0.00  0.00     0.167 HD
ENDBRANCH  11  12
BRANCH  11  14
HETATM   14  O   UNK N   1      23.993  12.682  13.684  0.00  0.00    -0.778 OA
HETATM   15  H   UNK N   1      24.830  12.429  14.021  0.00  0.00     0.167 HD
ENDBRANCH  11  14
ENDBRANCH  10  11
ENDBRANCH   1  10
TORSDOF 4
ENDMDL
MODEL 2
REMARK VINA RESULT:      -5.3      9.237     10.879
REMARK  4 active torsions:
REMARK  status: ('A' for Active; 'I' for Inactive)
REMARK    1  A    between atoms: O_1  and  C_2 
REMARK    2  A    between atoms: C_2  and  O_3 
REMARK    3  A    between atoms: C_2  and  C_4 
REMARK    4  A    between atoms: C_5  and  C_4 
ROOT
HETATM    1  C   UNK N   1      31.087  17.702   7.769  0.00  0.00     0.011 C 
HETATM    2  C   UNK N   1      31.298  16.880   6.478  0.00  0.00    -0.033 C 
HETATM    3  C   UNK N   1      30.152  17.015   5.487  0.00  0.00     0.016 C 
HETATM    4  C   UNK N   1      31.451  15.392   6.836  0.00  0.00     0.016 C 
HETATM    5  C   UNK N   1      32.621  17.459   5.925  0.00  0.00     0.059 C 
HETATM    6  C   UNK N   1      33.378  16.496   5.013  0.00  0.00     0.018 C 
HETATM    7  C   UNK N   1      33.347  17.769   7.189  0.00  0.00     0.131 C 
HETATM    8  O   UNK N   1      34.497  18.176   7.218  0.00  0.00    -0.298 OA
HETATM    9  C   UNK N   1      32.484  17.729   8.400  0.00  0.00     0.084 C 
ENDROOT
BRANCH   1  10
HETATM   10  C   UNK N   1      30.025  17.121   8.714  0.00  0.00     0.112 C 
BRANCH  10  11
HETATM   11  C   UNK N   1      29.234  18.175   9.430  0.00  0.00     0.106 C 
BRANCH  11  12
HETATM   12  O   UNK N   1      27.939  18.362   9.119  0.00  0.00    -0.778 OA
HETATM   13  H   UNK N   1      27.384  17.725   8.714  0.00  0.00     0.167 HD
ENDBRANCH  11  12
BRANCH  11  14
HETATM   14  O   UNK N   1      29.799  18.910  10.407  0.00  0.00    -0.778 OA
HETATM   15  H   UNK N   1      30.637  19.311  10.289  0.00  0.00     0.167 HD
ENDBRANCH  11  14
ENDBRANCH  10  11
ENDBRANCH   1  10
TORSDOF 4
ENDMDL
MODEL 3
REMARK VINA RESULT:      -5.2     13.800     15.296
REMARK  4 active torsions:
REMARK  status: ('A' for Active; 'I' for Inactive)
REMARK    1  A    between atoms: O_1  and  C_2 
REMARK    2  A    between atoms: C_2  and  O_3 
REMARK    3  A    between atoms: C_2  and  C_4 
REMARK    4  A    between atoms: C_5  and  C_4 
ROOT
HETATM    1  C   UNK N   1      35.997  12.493  16.329  0.00  0.00     0.011 C 
HETATM    2  C   UNK N   1      35.810  10.963  16.214  0.00  0.00    -0.033 C 
HETATM    3  C   UNK N   1      36.858  10.295  15.337  0.00  0.00     0.016 C 
HETATM    4  C   UNK N   1      34.423  10.658  15.623  0.00  0.00     0.016 C 
HETATM    5  C   UNK N   1      35.901  10.504  17.688  0.00  0.00     0.059 C 
HETATM    6  C   UNK N   1      35.196   9.178  17.961  0.00  0.00     0.018 C 
HETATM    7  C   UNK N   1      35.275  11.661  18.387  0.00  0.00     0.131 C 
HETATM    8  O   UNK N   1      35.060  11.681  19.588  0.00  0.00    -0.298 OA
HETATM    9  C   UNK N   1      35.116  12.865  17.528  0.00  0.00     0.084 C 
ENDROOT
BRANCH   1  10
HETATM   10  C   UNK N   1      35.618  13.266  15.058  0.00  0.00     0.112 C 
BRANCH  10  11
HETATM   11  C   UNK N   1      36.670  14.246  14.629  0.00  0.00     0.106 C 
BRANCH  11  12
HETATM   12  O   UNK N   1      37.588  14.668  15.517  0.00  0.00    -0.778 OA
HETATM   13  H   UNK N   1      37.981  14.137  16.181  0.00  0.00     0.167 HD
ENDBRANCH  11  12
BRANCH  11  14
HETATM   14  O   UNK N   1      36.726  14.677  13.355  0.00  0.00    -0.778 OA
HETATM   15  H   UNK N   1      36.139  15.336  13.039  0.00  0.00     0.167 HD
ENDBRANCH  11  14
ENDBRANCH  10  11
ENDBRANCH   1  10
TORSDOF 4
ENDMDL
MODEL 4
REMARK VINA RESULT:      -5.0     12.577     14.320
REMARK  4 active torsions:
REMARK  status: ('A' for Active; 'I' for Inactive)
REMARK    1  A    between atoms: O_1  and  C_2 
REMARK    2  A    between atoms: C_2  and  O_3 
REMARK    3  A    between atoms: C_2  and  C_4 
REMARK    4  A    between atoms: C_5  and  C_4 
ROOT
HETATM    1  C   UNK N   1      35.544  13.533  13.443  0.00  0.00     0.011 C 
HETATM    2  C   UNK N   1      36.307  13.163  14.735  0.00  0.00    -0.033 C 
HETATM    3  C   UNK N   1      36.899  14.369  15.447  0.00  0.00     0.016 C 
HETATM    4  C   UNK N   1      37.452  12.194  14.395  0.00  0.00     0.016 C 
HETATM    5  C   UNK N   1      35.216  12.462  15.578  0.00  0.00     0.059 C 
HETATM    6  C   UNK N   1      35.773  11.496  16.620  0.00  0.00     0.018 C 
HETATM    7  C   UNK N   1      34.420  11.789  14.513  0.00  0.00     0.131 C 
HETATM    8  O   UNK N   1      33.488  11.037  14.748  0.00  0.00    -0.298 OA
HETATM    9  C   UNK N   1      34.733  12.267  13.139  0.00  0.00     0.084 C 
ENDROOT
BRANCH   1  10
HETATM   10  C   UNK N   1      36.453  13.943  12.275  0.00  0.00     0.112 C 
BRANCH  10  11
HETATM   11  C   UNK N   1      35.987  15.184  11.574  0.00  0.00     0.106 C 
BRANCH  11  12
HETATM   12  O   UNK N   1      34.674  15.474  11.536  0.00  0.00    -0.778 OA
HETATM   13  H   UNK N   1      34.238  16.078  12.104  0.00  0.00     0.167 HD
ENDBRANCH  11  12
BRANCH  11  14
HETATM   14  O   UNK N   1      36.874  16.029  11.015  0.00  0.00    -0.778 OA
HETATM   15  H   UNK N   1      37.064  16.859  11.403  0.00  0.00     0.167 HD
ENDBRANCH  11  14
ENDBRANCH  10  11
ENDBRANCH   1  10
TORSDOF 4
ENDMDL
MODEL 5
REMARK VINA RESULT:      -4.9     18.839     21.185
REMARK  4 active torsions:
REMARK  status: ('A' for Active; 'I' for Inactive)
REMARK    1  A    between atoms: O_1  and  C_2 
REMARK    2  A    between atoms: C_2  and  O_3 
REMARK    3  A    between atoms: C_2  and  C_4 
REMARK    4  A    between atoms: C_5  and  C_4 
ROOT
HETATM    1  C   UNK N   1      25.836  24.600  -6.243  0.00  0.00     0.011 C 
HETATM    2  C   UNK N   1      25.984  26.034  -5.688  0.00  0.00    -0.033 C 
HETATM    3  C   UNK N   1      24.942  26.998  -6.235  0.00  0.00     0.016 C 
HETATM    4  C   UNK N   1      27.377  26.581  -6.042  0.00  0.00     0.016 C 
HETATM    5  C   UNK N   1      25.839  25.820  -4.164  0.00  0.00     0.059 C 
HETATM    6  C   UNK N   1      26.499  26.912  -3.326  0.00  0.00     0.018 C 
HETATM    7  C   UNK N   1      26.478  24.483  -4.002  0.00  0.00     0.131 C 
HETATM    8  O   UNK N   1      26.660  23.956  -2.916  0.00  0.00    -0.298 OA
HETATM    9  C   UNK N   1      26.693  23.764  -5.285  0.00  0.00     0.084 C 
ENDROOT
BRANCH   1  10
HETATM   10  C   UNK N   1      26.271  24.448  -7.708  0.00  0.00     0.112 C 
BRANCH  10  11
HETATM   11  C   UNK N   1      25.189  23.898  -8.589  0.00  0.00     0.106 C 
BRANCH  11  12
HETATM   12  O   UNK N   1      24.956  24.463  -9.788  0.00  0.00    -0.778 OA
HETATM   13  H   UNK N   1      25.447  24.296 -10.568  0.00  0.00     0.167 HD
ENDBRANCH  11  12
BRANCH  11  14
HETATM   14  O   UNK N   1      24.476  22.822  -8.208  0.00  0.00    -0.778 OA
HETATM   15  H   UNK N   1      24.329  22.633  -7.302  0.00  0.00     0.167 HD
ENDBRANCH  11  14
ENDBRANCH  10  11
ENDBRANCH   1  10
TORSDOF 4
ENDMDL
MODEL 6
REMARK VINA RESULT:      -4.9      9.864     11.295
REMARK  4 active torsions:
REMARK  status: ('A' for Active; 'I' for Inactive)
REMARK    1  A    between atoms: O_1  and  C_2 
REMARK    2  A    between atoms: C_2  and  O_3 
REMARK    3  A    between atoms: C_2  and  C_4 
REMARK    4  A    between atoms: C_5  and  C_4 
ROOT
HETATM    1  C   UNK N   1      32.661  16.775   7.736  0.00  0.00     0.011 C 
HETATM    2  C   UNK N   1      31.938  16.334   6.444  0.00  0.00    -0.033 C 
HETATM    3  C   UNK N   1      32.382  14.967   5.946  0.00  0.00     0.016 C 
HETATM    4  C   UNK N   1      32.206  17.361   5.331  0.00  0.00     0.016 C 
HETATM    5  C   UNK N   1      30.452  16.348   6.869  0.00  0.00     0.059 C 
HETATM    6  C   UNK N   1      29.482  16.526   5.704  0.00  0.00     0.018 C 
HETATM    7  C   UNK N   1      30.440  17.489   7.828  0.00  0.00     0.131 C 
HETATM    8  O   UNK N   1      29.422  17.914   8.351  0.00  0.00    -0.298 OA
HETATM    9  C   UNK N   1      31.797  17.936   8.242  0.00  0.00     0.084 C 
ENDROOT
BRANCH   1  10
HETATM   10  C   UNK N   1      34.127  17.179   7.528  0.00  0.00     0.112 C 
BRANCH  10  11
HETATM   11  C   UNK N   1      34.699  17.939   8.687  0.00  0.00     0.106 C 
BRANCH  11  12
HETATM   12  O   UNK N   1      34.697  17.385   9.913  0.00  0.00    -0.778 OA
HETATM   13  H   UNK N   1      35.097  16.567  10.136  0.00  0.00     0.167 HD
ENDBRANCH  11  12
BRANCH  11  14
HETATM   14  O   UNK N   1      35.248  19.155   8.506  0.00  0.00    -0.778 OA
HETATM   15  H   UNK N   1      34.714  19.914   8.375  0.00  0.00     0.167 HD
ENDBRANCH  11  14
ENDBRANCH  10  11
ENDBRANCH   1  10
TORSDOF 4
ENDMDL
MODEL 7
REMARK VINA RESULT:      -4.8     21.894     23.374
REMARK  4 active torsions:
REMARK  status: ('A' for Active; 'I' for Inactive)
REMARK    1  A    between atoms: O_1  and  C_2 
REMARK    2  A    between atoms: C_2  and  O_3 
REMARK    3  A    between atoms: C_2  and  C_4 
REMARK    4  A    between atoms: C_5  and  C_4 
ROOT
HETATM    1  C   UNK N   1      42.437  21.901   3.067  0.00  0.00     0.011 C 
HETATM    2  C   UNK N   1      41.609  21.092   2.044  0.00  0.00    -0.033 C 
HETATM    3  C   UNK N   1      40.948  19.861   2.646  0.00  0.00     0.016 C 
HETATM    4  C   UNK N   1      42.520  20.634   0.892  0.00  0.00     0.016 C 
HETATM    5  C   UNK N   1      40.573  22.132   1.555  0.00  0.00     0.059 C 
HETATM    6  C   UNK N   1      40.010  21.831   0.169  0.00  0.00     0.018 C 
HETATM    7  C   UNK N   1      41.379  23.384   1.607  0.00  0.00     0.131 C 
HETATM    8  O   UNK N   1      40.966  24.463   1.214  0.00  0.00    -0.298 OA
HETATM    9  C   UNK N   1      42.655  23.244   2.359  0.00  0.00     0.084 C 
ENDROOT
BRANCH   1  10
HETATM   10  C   UNK N   1      43.756  21.230   3.474  0.00  0.00     0.112 C 
BRANCH  10  11
HETATM   11  C   UNK N   1      44.564  22.052   4.435  0.00  0.00     0.106 C 
BRANCH  11  12
HETATM   12  O   UNK N   1      45.873  22.254   4.201  0.00  0.00    -0.778 OA
HETATM   13  H   UNK N   1      46.541  21.602   4.276  0.00  0.00     0.167 HD
ENDBRANCH  11  12
BRANCH  11  14
HETATM   14  O   UNK N   1      43.981  22.620   5.507  0.00  0.00    -0.778 OA
HETATM   15  H   UNK N   1      44.448  22.728   6.312  0.00  0.00     0.167 HD
ENDBRANCH  11  14
ENDBRANCH  10  11
ENDBRANCH   1  10
TORSDOF 4
ENDMDL
MODEL 8
REMARK VINA RESULT:      -4.8     19.248     21.559
REMARK  4 active torsions:
REMARK  status: ('A' for Active; 'I' for Inactive)
REMARK    1  A    between atoms: O_1  and  C_2 
REMARK    2  A    between atoms: C_2  and  O_3 
REMARK    3  A    between atoms: C_2  and  C_4 
REMARK    4  A    between atoms: C_5  and  C_4 
ROOT
HETATM    1  C   UNK N   1      26.723  27.696  -4.203  0.00  0.00     0.011 C 
HETATM    2  C   UNK N   1      26.279  26.895  -5.447  0.00  0.00    -0.033 C 
HETATM    3  C   UNK N   1      26.936  27.373  -6.733  0.00  0.00     0.016 C 
HETATM    4  C   UNK N   1      24.755  27.010  -5.614  0.00  0.00     0.016 C 
HETATM    5  C   UNK N   1      26.692  25.451  -5.080  0.00  0.00     0.059 C 
HETATM    6  C   UNK N   1      25.891  24.379  -5.814  0.00  0.00     0.018 C 
HETATM    7  C   UNK N   1      26.464  25.454  -3.607  0.00  0.00     0.131 C 
HETATM    8  O   UNK N   1      26.587  24.461  -2.908  0.00  0.00    -0.298 OA
HETATM    9  C   UNK N   1      26.267  26.813  -3.035  0.00  0.00     0.084 C 
ENDROOT
BRANCH   1  10
HETATM   10  C   UNK N   1      26.140  29.115  -4.130  0.00  0.00     0.112 C 
BRANCH  10  11
HETATM   11  C   UNK N   1      27.189  30.177  -3.986  0.00  0.00     0.106 C 
BRANCH  11  12
HETATM   12  O   UNK N   1      27.770  30.692  -5.085  0.00  0.00    -0.778 OA
HETATM   13  H   UNK N   1      27.519  30.502  -5.967  0.00  0.00     0.167 HD
ENDBRANCH  11  12
BRANCH  11  14
HETATM   14  O   UNK N   1      27.528  30.645  -2.770  0.00  0.00    -0.778 OA
HETATM   15  H   UNK N   1      28.369  30.466  -2.398  0.00  0.00     0.167 HD
ENDBRANCH  11  14
ENDBRANCH  10  11
ENDBRANCH   1  10
TORSDOF 4
ENDMDL
MODEL 9
REMARK VINA RESULT:      -4.8      7.019     10.098
REMARK  4 active torsions:
REMARK  status: ('A' for Active; 'I' for Inactive)
REMARK    1  A    between atoms: O_1  and  C_2 
REMARK    2  A    between atoms: C_2  and  O_3 
REMARK    3  A    between atoms: C_2  and  C_4 
REMARK    4  A    between atoms: C_5  and  C_4 
ROOT
HETATM    1  C   UNK N   1      21.213  18.593   3.077  0.00  0.00     0.011 C 
HETATM    2  C   UNK N   1      20.995  17.099   3.404  0.00  0.00    -0.033 C 
HETATM    3  C   UNK N   1      21.493  16.167   2.309  0.00  0.00     0.016 C 
HETATM    4  C   UNK N   1      19.496  16.833   3.617  0.00  0.00     0.016 C 
HETATM    5  C   UNK N   1      21.784  16.926   4.723  0.00  0.00     0.059 C 
HETATM    6  C   UNK N   1      21.299  15.760   5.580  0.00  0.00     0.018 C 
HETATM    7  C   UNK N   1      21.571  18.257   5.359  0.00  0.00     0.131 C 
HETATM    8  O   UNK N   1      21.961  18.532   6.483  0.00  0.00    -0.298 OA
HETATM    9  C   UNK N   1      21.017  19.281   4.433  0.00  0.00     0.084 C 
ENDROOT
BRANCH   1  10
HETATM   10  C   UNK N   1      20.269  19.141   1.998  0.00  0.00     0.112 C 
BRANCH  10  11
HETATM   11  C   UNK N   1      20.793  20.378   1.330  0.00  0.00     0.106 C 
BRANCH  11  12
HETATM   12  O   UNK N   1      21.381  21.336   2.069  0.00  0.00    -0.778 OA
HETATM   13  H   UNK N   1      21.895  22.041   1.728  0.00  0.00     0.167 HD
ENDBRANCH  11  12
BRANCH  11  14
HETATM   14  O   UNK N   1      20.714  20.520  -0.007  0.00  0.00    -0.778 OA
HETATM   15  H   UNK N   1      21.363  20.151  -0.573  0.00  0.00     0.167 HD
ENDBRANCH  11  14
ENDBRANCH  10  11
ENDBRANCH   1  10
TORSDOF 4
ENDMDL
