REMARK  7 active torsions:
REMARK  status: ('A' for Active; 'I' for Inactive)
REMARK    1  A    between atoms: O_1  and  N_2 
REMARK       I    between atoms: N_2  and  C_3 
REMARK    2  A    between atoms: C_3  and  C_5 
REMARK    3  A    between atoms: C_5  and  C_6 
REMARK    4  A    between atoms: C_6  and  S_12 
REMARK    5  A    between atoms: S_12  and  C_15 
REMARK    6  A    between atoms: C_18  and  O_21 
REMARK    7  A    between atoms: O_21  and  C_22 
ROOT
HETATM    1  S   UNK N   1      -1.250  -0.981   0.434  0.00  0.00     0.184 S 
HETATM    2  O   UNK N   1      -0.267  -1.732   1.346  0.00  0.00    -0.222 OA
HETATM    3  O   UNK N   1      -2.149  -0.390   1.532  0.00  0.00    -0.222 OA
ENDROOT
BRANCH   1   4
HETATM    4  C   UNK N   1      -2.208  -2.225  -0.518  0.00  0.00     0.081 C 
HETATM    5  C   UNK N   1      -1.262  -3.009  -1.438  0.00  0.00     0.052 C 
HETATM    6  C   UNK N   1      -0.396  -3.970  -0.617  0.00  0.00     0.169 C 
HETATM    7  O   UNK N   1      -1.223  -4.883   0.062  0.00  0.00    -0.391 OA
HETATM    8  C   UNK N   1      -1.889  -4.158   1.067  0.00  0.00     0.169 C 
HETATM    9  C   UNK N   1      -2.914  -3.213   0.428  0.00  0.00     0.052 C 
BRANCH   4  10
HETATM   10  C   UNK N   1      -3.231  -1.511  -1.409  0.00  0.00     0.131 C 
BRANCH  10  11
HETATM   11  C   UNK N   1      -4.144  -0.571  -0.678  0.00  0.00     0.242 C 
HETATM   12  N   UNK N   1      -4.088   0.751  -0.952  0.00  0.00    -0.237 N 
HETATM   13  H   UNK N   1      -3.460   1.079  -1.636  0.00  0.00     0.197 HD
HETATM   14  O   UNK N   1      -4.923  -0.996   0.162  0.00  0.00    -0.271 OA
BRANCH  12  15
HETATM   15  O   UNK N   1      -4.875   1.622  -0.305  0.00  0.00    -0.287 OA
HETATM   16  H   UNK N   1      -4.614   2.431   0.164  0.00  0.00     0.244 HD
ENDBRANCH  12  15
ENDBRANCH  10  11
ENDBRANCH   4  10
ENDBRANCH   1   4
BRANCH   1  17
HETATM   17  C   UNK N   1      -0.291   0.353  -0.252  0.00  0.00     0.060 A 
HETATM   18  C   UNK N   1      -0.467   1.663   0.209  0.00  0.00     0.026 A 
HETATM   19  C   UNK N   1       0.434   2.661  -0.170  0.00  0.00     0.039 A 
HETATM   20  C   UNK N   1       1.514   2.342  -0.998  0.00  0.00     0.076 A 
HETATM   21  C   UNK N   1       1.649   1.044  -1.508  0.00  0.00     0.039 A 
HETATM   22  C   UNK N   1       0.748   0.052  -1.134  0.00  0.00     0.026 A 
BRANCH  20  23
HETATM   23  O   UNK N   1       2.524   3.226  -1.146  0.00  0.00    -0.311 OA
BRANCH  23  24
HETATM   24  C   UNK N   1       3.698   3.034  -0.480  0.00  0.00     0.076 A 
HETATM   25  C   UNK N   1       4.772   3.908  -0.679  0.00  0.00     0.039 A 
HETATM   26  C   UNK N   1       5.967   3.723   0.031  0.00  0.00     0.026 A 
HETATM   27  C   UNK N   1       6.091   2.667   0.942  0.00  0.00     0.034 A 
HETATM   28  C   UNK N   1       5.027   1.793   1.147  0.00  0.00     0.026 A 
HETATM   29 Cl   UNK N   1       7.577   2.435   1.836  0.00  0.00    -0.084 Cl
HETATM   30  C   UNK N   1       3.841   1.975   0.444  0.00  0.00     0.039 A 
ENDBRANCH  23  24
ENDBRANCH  20  23
ENDBRANCH   1  17
TORSDOF 7
