MODEL 1
REMARK VINA RESULT:      -7.7      0.000      0.000
REMARK  7 active torsions:
REMARK  status: ('A' for Active; 'I' for Inactive)
REMARK    1  A    between atoms: O_1  and  N_2 
REMARK       I    between atoms: N_2  and  C_3 
REMARK    2  A    between atoms: C_3  and  C_5 
REMARK    3  A    between atoms: C_5  and  C_6 
REMARK    4  A    between atoms: C_6  and  S_12 
REMARK    5  A    between atoms: S_12  and  C_15 
REMARK    6  A    between atoms: C_18  and  O_21 
REMARK    7  A    between atoms: O_21  and  C_22 
ROOT
HETATM    1  S   UNK N   1      33.933  17.062   8.139  0.00  0.00     0.184 S 
HETATM    2  O   UNK N   1      34.712  16.992   6.816  0.00  0.00    -0.222 OA
HETATM    3  O   UNK N   1      34.574  18.343   8.696  0.00  0.00    -0.222 OA
ENDROOT
BRANCH   1   4
HETATM    4  C   UNK N   1      34.444  15.637   9.178  0.00  0.00     0.081 C 
HETATM    5  C   UNK N   1      33.209  14.806   9.555  0.00  0.00     0.052 C 
HETATM    6  C   UNK N   1      32.699  14.028   8.337  0.00  0.00     0.169 C 
HETATM    7  O   UNK N   1      33.706  13.157   7.882  0.00  0.00    -0.391 OA
HETATM    8  C   UNK N   1      34.711  13.961   7.315  0.00  0.00     0.169 C 
HETATM    9  C   UNK N   1      35.437  14.737   8.421  0.00  0.00     0.052 C 
BRANCH   4  10
HETATM   10  C   UNK N   1      35.069  16.150  10.480  0.00  0.00     0.131 C 
BRANCH  10  11
HETATM   11  C   UNK N   1      35.482  15.073  11.439  0.00  0.00     0.242 C 
HETATM   12  N   UNK N   1      36.789  14.747  11.544  0.00  0.00    -0.237 N 
HETATM   13  H   UNK N   1      37.455  15.228  11.001  0.00  0.00     0.197 HD
HETATM   14  O   UNK N   1      34.643  14.491  12.111  0.00  0.00    -0.271 OA
BRANCH  12  15
HETATM   15  O   UNK N   1      37.192  13.776  12.376  0.00  0.00    -0.287 OA
HETATM   16  H   UNK N   1      38.073  13.376  12.447  0.00  0.00     0.244 HD
ENDBRANCH  12  15
ENDBRANCH  10  11
ENDBRANCH   4  10
ENDBRANCH   1   4
BRANCH   1  17
HETATM   17  C   UNK N   1      32.267  17.462   7.654  0.00  0.00     0.060 A 
HETATM   18  C   UNK N   1      31.790  17.099   6.389  0.00  0.00     0.026 A 
HETATM   19  C   UNK N   1      30.429  17.216   6.098  0.00  0.00     0.039 A 
HETATM   20  C   UNK N   1      29.549  17.684   7.078  0.00  0.00     0.076 A 
HETATM   21  C   UNK N   1      30.040  18.106   8.320  0.00  0.00     0.039 A 
HETATM   22  C   UNK N   1      31.397  17.993   8.607  0.00  0.00     0.026 A 
BRANCH  20  23
HETATM   23  O   UNK N   1      28.217  17.546   6.898  0.00  0.00    -0.311 OA
BRANCH  23  24
HETATM   24  C   UNK N   1      27.587  18.253   5.917  0.00  0.00     0.076 A 
HETATM   25  C   UNK N   1      27.626  19.651   5.921  0.00  0.00     0.039 A 
HETATM   26  C   UNK N   1      27.002  20.373   4.894  0.00  0.00     0.026 A 
HETATM   27  C   UNK N   1      26.339  19.699   3.860  0.00  0.00     0.034 A 
HETATM   28  C   UNK N   1      26.296  18.308   3.848  0.00  0.00     0.026 A 
HETATM   29 Cl   UNK N   1      25.564  20.594   2.571  0.00  0.00    -0.084 Cl
HETATM   30  C   UNK N   1      26.915  17.591   4.866  0.00  0.00     0.039 A 
ENDBRANCH  23  24
ENDBRANCH  20  23
ENDBRANCH   1  17
TORSDOF 7
ENDMDL
MODEL 2
REMARK VINA RESULT:      -7.7      1.882      3.011
REMARK  7 active torsions:
REMARK  status: ('A' for Active; 'I' for Inactive)
REMARK    1  A    between atoms: O_1  and  N_2 
REMARK       I    between atoms: N_2  and  C_3 
REMARK    2  A    between atoms: C_3  and  C_5 
REMARK    3  A    between atoms: C_5  and  C_6 
REMARK    4  A    between atoms: C_6  and  S_12 
REMARK    5  A    between atoms: S_12  and  C_15 
REMARK    6  A    between atoms: C_18  and  O_21 
REMARK    7  A    between atoms: O_21  and  C_22 
ROOT
HETATM    1  S   UNK N   1      32.413  15.097   8.056  0.00  0.00     0.184 S 
HETATM    2  O   UNK N   1      31.862  15.454   9.446  0.00  0.00    -0.222 OA
HETATM    3  O   UNK N   1      32.300  13.568   8.168  0.00  0.00    -0.222 OA
ENDROOT
BRANCH   1   4
HETATM    4  C   UNK N   1      34.189  15.564   8.010  0.00  0.00     0.081 C 
HETATM    5  C   UNK N   1      34.614  15.827   6.559  0.00  0.00     0.052 C 
HETATM    6  C   UNK N   1      34.020  17.149   6.062  0.00  0.00     0.169 C 
HETATM    7  O   UNK N   1      34.485  18.205   6.867  0.00  0.00    -0.391 OA
HETATM    8  C   UNK N   1      33.868  18.061   8.123  0.00  0.00     0.169 C 
HETATM    9  C   UNK N   1      34.443  16.834   8.842  0.00  0.00     0.052 C 
BRANCH   4  10
HETATM   10  C   UNK N   1      35.037  14.400   8.535  0.00  0.00     0.131 C 
BRANCH  10  11
HETATM   11  C   UNK N   1      35.187  14.362  10.028  0.00  0.00     0.242 C 
HETATM   12  N   UNK N   1      34.149  13.943  10.785  0.00  0.00    -0.237 N 
HETATM   13  H   UNK N   1      33.315  13.654  10.349  0.00  0.00     0.197 HD
HETATM   14  O   UNK N   1      36.232  14.716  10.552  0.00  0.00    -0.271 OA
BRANCH  12  15
HETATM   15  O   UNK N   1      34.240  13.914  12.122  0.00  0.00    -0.287 OA
HETATM   16  H   UNK N   1      34.622  14.585  12.711  0.00  0.00     0.244 HD
ENDBRANCH  12  15
ENDBRANCH  10  11
ENDBRANCH   4  10
ENDBRANCH   1   4
BRANCH   1  17
HETATM   17  C   UNK N   1      31.155  15.649   6.924  0.00  0.00     0.060 A 
HETATM   18  C   UNK N   1      30.502  16.870   7.129  0.00  0.00     0.026 A 
HETATM   19  C   UNK N   1      29.682  17.397   6.128  0.00  0.00     0.039 A 
HETATM   20  C   UNK N   1      29.529  16.708   4.922  0.00  0.00     0.076 A 
HETATM   21  C   UNK N   1      30.134  15.456   4.747  0.00  0.00     0.039 A 
HETATM   22  C   UNK N   1      30.946  14.929   5.746  0.00  0.00     0.026 A 
BRANCH  20  23
HETATM   23  O   UNK N   1      28.966  17.331   3.865  0.00  0.00    -0.311 OA
BRANCH  23  24
HETATM   24  C   UNK N   1      27.659  17.714   3.919  0.00  0.00     0.076 A 
HETATM   25  C   UNK N   1      27.323  19.072   3.932  0.00  0.00     0.039 A 
HETATM   26  C   UNK N   1      25.976  19.460   3.958  0.00  0.00     0.026 A 
HETATM   27  C   UNK N   1      24.962  18.494   3.969  0.00  0.00     0.034 A 
HETATM   28  C   UNK N   1      25.288  17.140   3.955  0.00  0.00     0.026 A 
HETATM   29 Cl   UNK N   1      23.279  18.972   3.994  0.00  0.00    -0.084 Cl
HETATM   30  C   UNK N   1      26.623  16.754   3.929  0.00  0.00     0.039 A 
ENDBRANCH  23  24
ENDBRANCH  20  23
ENDBRANCH   1  17
TORSDOF 7
ENDMDL
MODEL 3
REMARK VINA RESULT:      -7.4      2.493      3.675
REMARK  7 active torsions:
REMARK  status: ('A' for Active; 'I' for Inactive)
REMARK    1  A    between atoms: O_1  and  N_2 
REMARK       I    between atoms: N_2  and  C_3 
REMARK    2  A    between atoms: C_3  and  C_5 
REMARK    3  A    between atoms: C_5  and  C_6 
REMARK    4  A    between atoms: C_6  and  S_12 
REMARK    5  A    between atoms: S_12  and  C_15 
REMARK    6  A    between atoms: C_18  and  O_21 
REMARK    7  A    between atoms: O_21  and  C_22 
ROOT
HETATM    1  S   UNK N   1      32.551  14.961   8.144  0.00  0.00     0.184 S 
HETATM    2  O   UNK N   1      31.930  15.360   9.492  0.00  0.00    -0.222 OA
HETATM    3  O   UNK N   1      32.500  13.436   8.330  0.00  0.00    -0.222 OA
ENDROOT
BRANCH   1   4
HETATM    4  C   UNK N   1      34.305  15.505   8.141  0.00  0.00     0.081 C 
HETATM    5  C   UNK N   1      34.758  15.771   6.699  0.00  0.00     0.052 C 
HETATM    6  C   UNK N   1      34.120  17.060   6.170  0.00  0.00     0.169 C 
HETATM    7  O   UNK N   1      34.516  18.144   6.974  0.00  0.00    -0.391 OA
HETATM    8  C   UNK N   1      33.872  17.986   8.214  0.00  0.00     0.169 C 
HETATM    9  C   UNK N   1      34.479  16.794   8.964  0.00  0.00     0.052 C 
BRANCH   4  10
HETATM   10  C   UNK N   1      35.189  14.386   8.703  0.00  0.00     0.131 C 
BRANCH  10  11
HETATM   11  C   UNK N   1      35.289  14.364  10.200  0.00  0.00     0.242 C 
HETATM   12  N   UNK N   1      34.259  13.874  10.924  0.00  0.00    -0.237 N 
HETATM   13  H   UNK N   1      33.463  13.525  10.461  0.00  0.00     0.197 HD
HETATM   14  O   UNK N   1      36.287  14.794  10.758  0.00  0.00    -0.271 OA
BRANCH  12  15
HETATM   15  O   UNK N   1      34.306  13.857  12.264  0.00  0.00    -0.287 OA
HETATM   16  H   UNK N   1      34.847  13.290  12.837  0.00  0.00     0.244 HD
ENDBRANCH  12  15
ENDBRANCH  10  11
ENDBRANCH   4  10
ENDBRANCH   1   4
BRANCH   1  17
HETATM   17  C   UNK N   1      31.315  15.397   6.939  0.00  0.00     0.060 A 
HETATM   18  C   UNK N   1      30.585  16.585   7.069  0.00  0.00     0.026 A 
HETATM   19  C   UNK N   1      29.783  17.028   6.015  0.00  0.00     0.039 A 
HETATM   20  C   UNK N   1      29.725  16.288   4.830  0.00  0.00     0.076 A 
HETATM   21  C   UNK N   1      30.407  15.069   4.728  0.00  0.00     0.039 A 
HETATM   22  C   UNK N   1      31.201  14.626   5.781  0.00  0.00     0.026 A 
BRANCH  20  23
HETATM   23  O   UNK N   1      29.175  16.840   3.727  0.00  0.00    -0.311 OA
BRANCH  23  24
HETATM   24  C   UNK N   1      27.998  16.356   3.239  0.00  0.00     0.076 A 
HETATM   25  C   UNK N   1      27.992  15.250   2.382  0.00  0.00     0.039 A 
HETATM   26  C   UNK N   1      26.776  14.738   1.907  0.00  0.00     0.026 A 
HETATM   27  C   UNK N   1      25.564  15.328   2.289  0.00  0.00     0.034 A 
HETATM   28  C   UNK N   1      25.561  16.428   3.142  0.00  0.00     0.026 A 
HETATM   29 Cl   UNK N   1      24.043  14.690   1.705  0.00  0.00    -0.084 Cl
HETATM   30  C   UNK N   1      26.766  16.937   3.614  0.00  0.00     0.039 A 
ENDBRANCH  23  24
ENDBRANCH  20  23
ENDBRANCH   1  17
TORSDOF 7
ENDMDL
MODEL 4
REMARK VINA RESULT:      -7.4      4.730      9.418
REMARK  7 active torsions:
REMARK  status: ('A' for Active; 'I' for Inactive)
REMARK    1  A    between atoms: O_1  and  N_2 
REMARK       I    between atoms: N_2  and  C_3 
REMARK    2  A    between atoms: C_3  and  C_5 
REMARK    3  A    between atoms: C_5  and  C_6 
REMARK    4  A    between atoms: C_6  and  S_12 
REMARK    5  A    between atoms: S_12  and  C_15 
REMARK    6  A    between atoms: C_18  and  O_21 
REMARK    7  A    between atoms: O_21  and  C_22 
ROOT
HETATM    1  S   UNK N   1      32.445  15.241   8.734  0.00  0.00     0.184 S 
HETATM    2  O   UNK N   1      32.204  13.930   7.969  0.00  0.00    -0.222 OA
HETATM    3  O   UNK N   1      31.277  15.126   9.727  0.00  0.00    -0.222 OA
ENDROOT
BRANCH   1   4
HETATM    4  C   UNK N   1      32.120  16.638   7.588  0.00  0.00     0.081 C 
HETATM    5  C   UNK N   1      32.703  17.931   8.174  0.00  0.00     0.052 C 
HETATM    6  C   UNK N   1      34.232  17.916   8.084  0.00  0.00     0.169 C 
HETATM    7  O   UNK N   1      34.621  17.817   6.736  0.00  0.00    -0.391 OA
HETATM    8  C   UNK N   1      34.290  16.518   6.311  0.00  0.00     0.169 C 
HETATM    9  C   UNK N   1      32.765  16.380   6.214  0.00  0.00     0.052 C 
BRANCH   4  10
HETATM   10  C   UNK N   1      30.608  16.839   7.441  0.00  0.00     0.131 C 
BRANCH  10  11
HETATM   11  C   UNK N   1      30.030  17.893   8.339  0.00  0.00     0.242 C 
HETATM   12  N   UNK N   1      30.198  17.787   9.676  0.00  0.00    -0.237 N 
HETATM   13  H   UNK N   1      30.709  17.029  10.042  0.00  0.00     0.197 HD
HETATM   14  O   UNK N   1      29.406  18.831   7.867  0.00  0.00    -0.271 OA
BRANCH  12  15
HETATM   15  O   UNK N   1      29.680  18.700  10.509  0.00  0.00    -0.287 OA
HETATM   16  H   UNK N   1      30.140  19.225  11.183  0.00  0.00     0.244 HD
ENDBRANCH  12  15
ENDBRANCH  10  11
ENDBRANCH   4  10
ENDBRANCH   1   4
BRANCH   1  17
HETATM   17  C   UNK N   1      33.951  14.957   9.640  0.00  0.00     0.060 A 
HETATM   18  C   UNK N   1      34.304  15.790  10.709  0.00  0.00     0.026 A 
HETATM   19  C   UNK N   1      35.361  15.434  11.549  0.00  0.00     0.039 A 
HETATM   20  C   UNK N   1      36.054  14.241  11.325  0.00  0.00     0.076 A 
HETATM   21  C   UNK N   1      35.739  13.444  10.216  0.00  0.00     0.039 A 
HETATM   22  C   UNK N   1      34.689  13.802   9.377  0.00  0.00     0.026 A 
BRANCH  20  23
HETATM   23  O   UNK N   1      36.885  13.764  12.276  0.00  0.00    -0.311 OA
BRANCH  23  24
HETATM   24  C   UNK N   1      36.424  13.562  13.543  0.00  0.00     0.076 A 
HETATM   25  C   UNK N   1      35.468  12.572  13.795  0.00  0.00     0.039 A 
HETATM   26  C   UNK N   1      35.019  12.349  15.105  0.00  0.00     0.026 A 
HETATM   27  C   UNK N   1      35.524  13.112  16.164  0.00  0.00     0.034 A 
HETATM   28  C   UNK N   1      36.476  14.099  15.922  0.00  0.00     0.026 A 
HETATM   29 Cl   UNK N   1      34.973  12.834  17.801  0.00  0.00    -0.084 Cl
HETATM   30  C   UNK N   1      36.923  14.321  14.624  0.00  0.00     0.039 A 
ENDBRANCH  23  24
ENDBRANCH  20  23
ENDBRANCH   1  17
TORSDOF 7
ENDMDL
MODEL 5
REMARK VINA RESULT:      -7.3      3.272      4.515
REMARK  7 active torsions:
REMARK  status: ('A' for Active; 'I' for Inactive)
REMARK    1  A    between atoms: O_1  and  N_2 
REMARK       I    between atoms: N_2  and  C_3 
REMARK    2  A    between atoms: C_3  and  C_5 
REMARK    3  A    between atoms: C_5  and  C_6 
REMARK    4  A    between atoms: C_6  and  S_12 
REMARK    5  A    between atoms: S_12  and  C_15 
REMARK    6  A    between atoms: C_18  and  O_21 
REMARK    7  A    between atoms: O_21  and  C_22 
ROOT
HETATM    1  S   UNK N   1      36.403  14.994  10.414  0.00  0.00     0.184 S 
HETATM    2  O   UNK N   1      37.780  14.786   9.764  0.00  0.00    -0.222 OA
HETATM    3  O   UNK N   1      36.790  16.131  11.373  0.00  0.00    -0.222 OA
ENDROOT
BRANCH   1   4
HETATM    4  C   UNK N   1      36.004  13.494  11.395  0.00  0.00     0.081 C 
HETATM    5  C   UNK N   1      35.088  12.572  10.577  0.00  0.00     0.052 C 
HETATM    6  C   UNK N   1      35.878  11.902   9.448  0.00  0.00     0.169 C 
HETATM    7  O   UNK N   1      36.918  11.130   9.998  0.00  0.00    -0.391 OA
HETATM    8  C   UNK N   1      37.862  12.034  10.520  0.00  0.00     0.169 C 
HETATM    9  C   UNK N   1      37.285  12.723  11.762  0.00  0.00     0.052 C 
BRANCH   4  10
HETATM   10  C   UNK N   1      35.239  13.898  12.660  0.00  0.00     0.131 C 
BRANCH  10  11
HETATM   11  C   UNK N   1      36.036  13.795  13.928  0.00  0.00     0.242 C 
HETATM   12  N   UNK N   1      36.863  14.806  14.273  0.00  0.00    -0.237 N 
HETATM   13  H   UNK N   1      36.922  15.603  13.696  0.00  0.00     0.197 HD
HETATM   14  O   UNK N   1      35.943  12.803  14.636  0.00  0.00    -0.271 OA
BRANCH  12  15
HETATM   15  O   UNK N   1      37.603  14.740  15.388  0.00  0.00    -0.287 OA
HETATM   16  H   UNK N   1      38.522  14.439  15.480  0.00  0.00     0.244 HD
ENDBRANCH  12  15
ENDBRANCH  10  11
ENDBRANCH   4  10
ENDBRANCH   1   4
BRANCH   1  17
HETATM   17  C   UNK N   1      35.401  15.698   9.121  0.00  0.00     0.060 A 
HETATM   18  C   UNK N   1      34.798  16.949   9.294  0.00  0.00     0.026 A 
HETATM   19  C   UNK N   1      34.203  17.591   8.205  0.00  0.00     0.039 A 
HETATM   20  C   UNK N   1      34.225  16.984   6.946  0.00  0.00     0.076 A 
HETATM   21  C   UNK N   1      34.773  15.704   6.792  0.00  0.00     0.039 A 
HETATM   22  C   UNK N   1      35.361  15.064   7.879  0.00  0.00     0.026 A 
BRANCH  20  23
HETATM   23  O   UNK N   1      33.898  17.706   5.852  0.00  0.00    -0.311 OA
BRANCH  23  24
HETATM   24  C   UNK N   1      32.825  17.342   5.093  0.00  0.00     0.076 A 
HETATM   25  C   UNK N   1      31.569  17.172   5.685  0.00  0.00     0.039 A 
HETATM   26  C   UNK N   1      30.464  16.826   4.894  0.00  0.00     0.026 A 
HETATM   27  C   UNK N   1      30.610  16.651   3.513  0.00  0.00     0.034 A 
HETATM   28  C   UNK N   1      31.856  16.819   2.916  0.00  0.00     0.026 A 
HETATM   29 Cl   UNK N   1      29.233  16.226   2.520  0.00  0.00    -0.084 Cl
HETATM   30  C   UNK N   1      32.954  17.162   3.698  0.00  0.00     0.039 A 
ENDBRANCH  23  24
ENDBRANCH  20  23
ENDBRANCH   1  17
TORSDOF 7
ENDMDL
MODEL 6
REMARK VINA RESULT:      -7.3      1.906      3.063
REMARK  7 active torsions:
REMARK  status: ('A' for Active; 'I' for Inactive)
REMARK    1  A    between atoms: O_1  and  N_2 
REMARK       I    between atoms: N_2  and  C_3 
REMARK    2  A    between atoms: C_3  and  C_5 
REMARK    3  A    between atoms: C_5  and  C_6 
REMARK    4  A    between atoms: C_6  and  S_12 
REMARK    5  A    between atoms: S_12  and  C_15 
REMARK    6  A    between atoms: C_18  and  O_21 
REMARK    7  A    between atoms: O_21  and  C_22 
ROOT
HETATM    1  S   UNK N   1      33.776  15.444   6.467  0.00  0.00     0.184 S 
HETATM    2  O   UNK N   1      33.932  13.921   6.325  0.00  0.00    -0.222 OA
HETATM    3  O   UNK N   1      35.046  15.860   5.709  0.00  0.00    -0.222 OA
ENDROOT
BRANCH   1   4
HETATM    4  C   UNK N   1      33.970  15.873   8.242  0.00  0.00     0.081 C 
HETATM    5  C   UNK N   1      34.500  17.308   8.369  0.00  0.00     0.052 C 
HETATM    6  C   UNK N   1      33.402  18.315   8.011  0.00  0.00     0.169 C 
HETATM    7  O   UNK N   1      32.316  18.156   8.891  0.00  0.00    -0.391 OA
HETATM    8  C   UNK N   1      31.706  16.931   8.567  0.00  0.00     0.169 C 
HETATM    9  C   UNK N   1      32.623  15.773   8.980  0.00  0.00     0.052 C 
BRANCH   4  10
HETATM   10  C   UNK N   1      35.004  14.941   8.884  0.00  0.00     0.131 C 
BRANCH  10  11
HETATM   11  C   UNK N   1      34.925  14.861  10.380  0.00  0.00     0.242 C 
HETATM   12  N   UNK N   1      34.412  13.751  10.956  0.00  0.00    -0.237 N 
HETATM   13  H   UNK N   1      34.110  13.005  10.388  0.00  0.00     0.197 HD
HETATM   14  O   UNK N   1      35.313  15.792  11.069  0.00  0.00    -0.271 OA
BRANCH  12  15
HETATM   15  O   UNK N   1      34.309  13.652  12.288  0.00  0.00    -0.287 OA
HETATM   16  H   UNK N   1      34.359  14.363  12.947  0.00  0.00     0.244 HD
ENDBRANCH  12  15
ENDBRANCH  10  11
ENDBRANCH   4  10
ENDBRANCH   1   4
BRANCH   1  17
HETATM   17  C   UNK N   1      32.379  15.846   5.438  0.00  0.00     0.060 A 
HETATM   18  C   UNK N   1      31.251  15.017   5.418  0.00  0.00     0.026 A 
HETATM   19  C   UNK N   1      30.082  15.448   4.787  0.00  0.00     0.039 A 
HETATM   20  C   UNK N   1      30.042  16.711   4.189  0.00  0.00     0.076 A 
HETATM   21  C   UNK N   1      31.193  17.510   4.157  0.00  0.00     0.039 A 
HETATM   22  C   UNK N   1      32.359  17.077   4.781  0.00  0.00     0.026 A 
BRANCH  20  23
HETATM   23  O   UNK N   1      28.854  17.237   3.821  0.00  0.00    -0.311 OA
BRANCH  23  24
HETATM   24  C   UNK N   1      28.309  18.257   4.542  0.00  0.00     0.076 A 
HETATM   25  C   UNK N   1      27.663  19.313   3.892  0.00  0.00     0.039 A 
HETATM   26  C   UNK N   1      27.079  20.345   4.640  0.00  0.00     0.026 A 
HETATM   27  C   UNK N   1      27.136  20.323   6.039  0.00  0.00     0.034 A 
HETATM   28  C   UNK N   1      27.777  19.275   6.695  0.00  0.00     0.026 A 
HETATM   29 Cl   UNK N   1      26.403  21.603   6.979  0.00  0.00    -0.084 Cl
HETATM   30  C   UNK N   1      28.357  18.251   5.954  0.00  0.00     0.039 A 
ENDBRANCH  23  24
ENDBRANCH  20  23
ENDBRANCH   1  17
TORSDOF 7
ENDMDL
MODEL 7
REMARK VINA RESULT:      -7.3      7.287     12.236
REMARK  7 active torsions:
REMARK  status: ('A' for Active; 'I' for Inactive)
REMARK    1  A    between atoms: O_1  and  N_2 
REMARK       I    between atoms: N_2  and  C_3 
REMARK    2  A    between atoms: C_3  and  C_5 
REMARK    3  A    between atoms: C_5  and  C_6 
REMARK    4  A    between atoms: C_6  and  S_12 
REMARK    5  A    between atoms: S_12  and  C_15 
REMARK    6  A    between atoms: C_18  and  O_21 
REMARK    7  A    between atoms: O_21  and  C_22 
ROOT
HETATM    1  S   UNK N   1      21.783  18.113   4.457  0.00  0.00     0.184 S 
HETATM    2  O   UNK N   1      21.756  16.950   5.462  0.00  0.00    -0.222 OA
HETATM    3  O   UNK N   1      21.447  19.248   5.438  0.00  0.00    -0.222 OA
ENDROOT
BRANCH   1   4
HETATM    4  C   UNK N   1      20.380  17.893   3.293  0.00  0.00     0.081 C 
HETATM    5  C   UNK N   1      20.903  17.365   1.950  0.00  0.00     0.052 C 
HETATM    6  C   UNK N   1      21.321  15.897   2.082  0.00  0.00     0.169 C 
HETATM    7  O   UNK N   1      20.209  15.126   2.467  0.00  0.00    -0.391 OA
HETATM    8  C   UNK N   1      19.919  15.468   3.800  0.00  0.00     0.169 C 
HETATM    9  C   UNK N   1      19.354  16.893   3.856  0.00  0.00     0.052 C 
BRANCH   4  10
HETATM   10  C   UNK N   1      19.717  19.250   3.028  0.00  0.00     0.131 C 
BRANCH  10  11
HETATM   11  C   UNK N   1      20.519  20.176   2.163  0.00  0.00     0.242 C 
HETATM   12  N   UNK N   1      20.400  20.093   0.819  0.00  0.00    -0.237 N 
HETATM   13  H   UNK N   1      19.780  19.438   0.426  0.00  0.00     0.197 HD
HETATM   14  O   UNK N   1      21.279  20.989   2.667  0.00  0.00    -0.271 OA
BRANCH  12  15
HETATM   15  O   UNK N   1      21.115  20.892   0.014  0.00  0.00    -0.287 OA
HETATM   16  H   UNK N   1      21.076  20.956  -0.954  0.00  0.00     0.244 HD
ENDBRANCH  12  15
ENDBRANCH  10  11
ENDBRANCH   4  10
ENDBRANCH   1   4
BRANCH   1  17
HETATM   17  C   UNK N   1      23.499  18.278   4.012  0.00  0.00     0.060 A 
HETATM   18  C   UNK N   1      24.045  19.539   3.749  0.00  0.00     0.026 A 
HETATM   19  C   UNK N   1      25.429  19.685   3.619  0.00  0.00     0.039 A 
HETATM   20  C   UNK N   1      26.260  18.571   3.765  0.00  0.00     0.076 A 
HETATM   21  C   UNK N   1      25.704  17.301   3.964  0.00  0.00     0.039 A 
HETATM   22  C   UNK N   1      24.326  17.156   4.088  0.00  0.00     0.026 A 
BRANCH  20  23
HETATM   23  O   UNK N   1      27.591  18.747   3.908  0.00  0.00    -0.311 OA
BRANCH  23  24
HETATM   24  C   UNK N   1      28.197  18.422   5.085  0.00  0.00     0.076 A 
HETATM   25  C   UNK N   1      29.229  17.478   5.109  0.00  0.00     0.039 A 
HETATM   26  C   UNK N   1      29.869  17.169   6.318  0.00  0.00     0.026 A 
HETATM   27  C   UNK N   1      29.480  17.803   7.504  0.00  0.00     0.034 A 
HETATM   28  C   UNK N   1      28.454  18.744   7.490  0.00  0.00     0.026 A 
HETATM   29 Cl   UNK N   1      30.279  17.426   9.015  0.00  0.00    -0.084 Cl
HETATM   30  C   UNK N   1      27.819  19.052   6.291  0.00  0.00     0.039 A 
ENDBRANCH  23  24
ENDBRANCH  20  23
ENDBRANCH   1  17
TORSDOF 7
ENDMDL
MODEL 8
REMARK VINA RESULT:      -7.3      8.850     10.338
REMARK  7 active torsions:
REMARK  status: ('A' for Active; 'I' for Inactive)
REMARK    1  A    between atoms: O_1  and  N_2 
REMARK       I    between atoms: N_2  and  C_3 
REMARK    2  A    between atoms: C_3  and  C_5 
REMARK    3  A    between atoms: C_5  and  C_6 
REMARK    4  A    between atoms: C_6  and  S_12 
REMARK    5  A    between atoms: S_12  and  C_15 
REMARK    6  A    between atoms: C_18  and  O_21 
REMARK    7  A    between atoms: O_21  and  C_22 
ROOT
HETATM    1  S   UNK N   1      21.651  13.189   8.666  0.00  0.00     0.184 S 
HETATM    2  O   UNK N   1      20.623  13.234   9.808  0.00  0.00    -0.222 OA
HETATM    3  O   UNK N   1      20.857  12.292   7.702  0.00  0.00    -0.222 OA
ENDROOT
BRANCH   1   4
HETATM    4  C   UNK N   1      23.124  12.270   9.261  0.00  0.00     0.081 C 
HETATM    5  C   UNK N   1      23.524  11.211   8.224  0.00  0.00     0.052 C 
HETATM    6  C   UNK N   1      24.154  11.878   6.998  0.00  0.00     0.169 C 
HETATM    7  O   UNK N   1      25.306  12.584   7.388  0.00  0.00    -0.391 OA
HETATM    8  C   UNK N   1      24.870  13.695   8.133  0.00  0.00     0.169 C 
HETATM    9  C   UNK N   1      24.312  13.223   9.482  0.00  0.00     0.052 C 
BRANCH   4  10
HETATM   10  C   UNK N   1      22.778  11.534  10.561  0.00  0.00     0.131 C 
BRANCH  10  11
HETATM   11  C   UNK N   1      23.670  11.868  11.721  0.00  0.00     0.242 C 
HETATM   12  N   UNK N   1      23.114  12.242  12.895  0.00  0.00    -0.237 N 
HETATM   13  H   UNK N   1      22.134  12.277  12.979  0.00  0.00     0.197 HD
HETATM   14  O   UNK N   1      24.885  11.811  11.602  0.00  0.00    -0.271 OA
BRANCH  12  15
HETATM   15  O   UNK N   1      23.880  12.565  13.947  0.00  0.00    -0.287 OA
HETATM   16  H   UNK N   1      24.182  11.990  14.668  0.00  0.00     0.244 HD
ENDBRANCH  12  15
ENDBRANCH  10  11
ENDBRANCH   4  10
ENDBRANCH   1   4
BRANCH   1  17
HETATM   17  C   UNK N   1      21.644  14.838   7.996  0.00  0.00     0.060 A 
HETATM   18  C   UNK N   1      22.517  15.185   6.958  0.00  0.00     0.026 A 
HETATM   19  C   UNK N   1      22.356  16.402   6.291  0.00  0.00     0.039 A 
HETATM   20  C   UNK N   1      21.316  17.261   6.657  0.00  0.00     0.076 A 
HETATM   21  C   UNK N   1      20.486  16.938   7.738  0.00  0.00     0.039 A 
HETATM   22  C   UNK N   1      20.650  15.728   8.405  0.00  0.00     0.026 A 
BRANCH  20  23
HETATM   23  O   UNK N   1      20.993  18.297   5.853  0.00  0.00    -0.311 OA
BRANCH  23  24
HETATM   24  C   UNK N   1      20.789  18.085   4.521  0.00  0.00     0.076 A 
HETATM   25  C   UNK N   1      20.246  16.876   4.075  0.00  0.00     0.039 A 
HETATM   26  C   UNK N   1      20.011  16.676   2.707  0.00  0.00     0.026 A 
HETATM   27  C   UNK N   1      20.315  17.683   1.783  0.00  0.00     0.034 A 
HETATM   28  C   UNK N   1      20.855  18.890   2.219  0.00  0.00     0.026 A 
HETATM   29 Cl   UNK N   1      20.018  17.441   0.076  0.00  0.00    -0.084 Cl
HETATM   30  C   UNK N   1      21.089  19.090   3.575  0.00  0.00     0.039 A 
ENDBRANCH  23  24
ENDBRANCH  20  23
ENDBRANCH   1  17
TORSDOF 7
ENDMDL
MODEL 9
REMARK VINA RESULT:      -7.3     12.895     16.997
REMARK  7 active torsions:
REMARK  status: ('A' for Active; 'I' for Inactive)
REMARK    1  A    between atoms: O_1  and  N_2 
REMARK       I    between atoms: N_2  and  C_3 
REMARK    2  A    between atoms: C_3  and  C_5 
REMARK    3  A    between atoms: C_5  and  C_6 
REMARK    4  A    between atoms: C_6  and  S_12 
REMARK    5  A    between atoms: S_12  and  C_15 
REMARK    6  A    between atoms: C_18  and  O_21 
REMARK    7  A    between atoms: O_21  and  C_22 
ROOT
HETATM    1  S   UNK N   1      27.161  25.391  -5.078  0.00  0.00     0.184 S 
HETATM    2  O   UNK N   1      27.385  24.648  -6.405  0.00  0.00    -0.222 OA
HETATM    3  O   UNK N   1      25.792  24.787  -4.727  0.00  0.00    -0.222 OA
ENDROOT
BRANCH   1   4
HETATM    4  C   UNK N   1      26.950  27.176  -5.453  0.00  0.00     0.081 C 
HETATM    5  C   UNK N   1      25.590  27.655  -4.925  0.00  0.00     0.052 C 
HETATM    6  C   UNK N   1      25.614  27.745  -3.396  0.00  0.00     0.169 C 
HETATM    7  O   UNK N   1      26.602  28.664  -2.996  0.00  0.00    -0.391 OA
HETATM    8  C   UNK N   1      27.846  28.069  -3.273  0.00  0.00     0.169 C 
HETATM    9  C   UNK N   1      28.062  28.009  -4.791  0.00  0.00     0.052 C 
BRANCH   4  10
HETATM   10  C   UNK N   1      26.955  27.384  -6.971  0.00  0.00     0.131 C 
BRANCH  10  11
HETATM   11  C   UNK N   1      28.294  27.740  -7.546  0.00  0.00     0.242 C 
HETATM   12  N   UNK N   1      29.208  26.765  -7.746  0.00  0.00    -0.237 N 
HETATM   13  H   UNK N   1      28.979  25.833  -7.525  0.00  0.00     0.197 HD
HETATM   14  O   UNK N   1      28.559  28.901  -7.822  0.00  0.00    -0.271 OA
BRANCH  12  15
HETATM   15  O   UNK N   1      30.421  27.048  -8.240  0.00  0.00    -0.287 OA
HETATM   16  H   UNK N   1      30.789  27.919  -8.460  0.00  0.00     0.244 HD
ENDBRANCH  12  15
ENDBRANCH  10  11
ENDBRANCH   4  10
ENDBRANCH   1   4
BRANCH   1  17
HETATM   17  C   UNK N   1      28.360  24.687  -3.966  0.00  0.00     0.060 A 
HETATM   18  C   UNK N   1      27.959  23.808  -2.954  0.00  0.00     0.026 A 
HETATM   19  C   UNK N   1      28.917  23.093  -2.232  0.00  0.00     0.039 A 
HETATM   20  C   UNK N   1      30.273  23.251  -2.535  0.00  0.00     0.076 A 
HETATM   21  C   UNK N   1      30.673  24.179  -3.505  0.00  0.00     0.039 A 
HETATM   22  C   UNK N   1      29.717  24.895  -4.219  0.00  0.00     0.026 A 
BRANCH  20  23
HETATM   23  O   UNK N   1      31.173  22.377  -2.036  0.00  0.00    -0.311 OA
BRANCH  23  24
HETATM   24  C   UNK N   1      31.861  21.554  -2.878  0.00  0.00     0.076 A 
HETATM   25  C   UNK N   1      33.237  21.369  -2.715  0.00  0.00     0.039 A 
HETATM   26  C   UNK N   1      33.934  20.499  -3.566  0.00  0.00     0.026 A 
HETATM   27  C   UNK N   1      33.257  19.811  -4.580  0.00  0.00     0.034 A 
HETATM   28  C   UNK N   1      31.887  19.988  -4.749  0.00  0.00     0.026 A 
HETATM   29 Cl   UNK N   1      34.119  18.718  -5.640  0.00  0.00    -0.084 Cl
HETATM   30  C   UNK N   1      31.194  20.850  -3.906  0.00  0.00     0.039 A 
ENDBRANCH  23  24
ENDBRANCH  20  23
ENDBRANCH   1  17
TORSDOF 7
ENDMDL
