MODEL 1
REMARK VINA RESULT:      -6.1      0.000      0.000
REMARK  4 active torsions:
REMARK  status: ('A' for Active; 'I' for Inactive)
REMARK    1  A    between atoms: O_1  and  C_2 
REMARK    2  A    between atoms: C_3  and  C_2 
REMARK    3  A    between atoms: C_7  and  N_8 
REMARK    4  A    between atoms: C_20  and  N_21 
ROOT
HETATM    1  N   UNK N   1      35.805  13.380  15.869  0.00  0.00    -0.300 N 
HETATM    2  C   UNK N   1      36.675  14.418  15.735  0.00  0.00     0.188 A 
HETATM    3  N   UNK N   1      37.001  14.623  14.425  0.00  0.00    -0.346 N 
ATOM      4  HN  UNK N   1      37.625  15.332  14.040  1.00  0.00     0.167 HD
HETATM    5  C   UNK N   1      36.311  13.678  13.759  0.00  0.00     0.122 A 
HETATM    6  C   UNK N   1      35.602  12.935  14.627  0.00  0.00     0.143 A 
HETATM    7  N   UNK N   1      34.820  11.900  14.238  0.00  0.00    -0.316 N 
ATOM      8  HN  UNK N   1      34.292  11.356  14.919  1.00  0.00     0.170 HD
HETATM    9  C   UNK N   1      34.760  11.607  12.903  0.00  0.00     0.182 A 
HETATM   10 Cl   UNK N   1      33.792  10.256  12.356  0.00  0.00    -0.045 Cl
HETATM   11  N   UNK N   1      35.463  12.361  11.993  0.00  0.00    -0.317 N 
ATOM     12  HN  UNK N   1      35.401  12.137  11.000  1.00  0.00     0.170 HD
HETATM   13  C   UNK N   1      36.245  13.407  12.401  0.00  0.00     0.132 A 
ENDROOT
BRANCH   1  14
HETATM   14  C   UNK N   1      35.162  12.868  17.079  0.00  0.00     0.231 C 
HETATM   15  O   UNK N   1      35.766  11.676  17.510  0.00  0.00    -0.359 OA
HETATM   16  C   UNK N   1      35.239  11.511  18.801  0.00  0.00     0.147 C 
HETATM   17  C   UNK N   1      35.235  12.889  19.441  0.00  0.00     0.038 C 
HETATM   18  C   UNK N   1      35.228  13.826  18.254  0.00  0.00     0.057 C 
BRANCH  16  19
HETATM   19  C   UNK N   1      36.074  10.525  19.599  0.00  0.00     0.196 C 
BRANCH  19  20
HETATM   20  O   UNK N   1      36.441  11.088  20.824  0.00  0.00    -0.398 OA
HETATM   21  H   UNK N   1      35.962  11.835  21.215  0.00  0.00     0.209 HD
ENDBRANCH  19  20
ENDBRANCH  16  19
ENDBRANCH   1  14
BRANCH  13  22
HETATM   22  N   UNK N   1      36.956  14.181  11.461  0.00  0.00    -0.383 N 
HETATM   23  H   UNK N   1      37.907  14.400  11.592  0.00  0.00     0.157 HD
HETATM   24  H   UNK N   1      36.491  14.510  10.659  0.00  0.00     0.157 HD
ENDBRANCH  13  22
TORSDOF 4
ENDMDL
MODEL 2
REMARK VINA RESULT:      -5.9     12.403     14.264
REMARK  4 active torsions:
REMARK  status: ('A' for Active; 'I' for Inactive)
REMARK    1  A    between atoms: O_1  and  C_2 
REMARK    2  A    between atoms: C_3  and  C_2 
REMARK    3  A    between atoms: C_7  and  N_8 
REMARK    4  A    between atoms: C_20  and  N_21 
ROOT
HETATM    1  N   UNK N   1      28.864  18.022   6.821  0.00  0.00    -0.300 N 
HETATM    2  C   UNK N   1      28.763  18.138   8.173  0.00  0.00     0.188 A 
HETATM    3  N   UNK N   1      27.878  19.117   8.520  0.00  0.00    -0.346 N 
ATOM      4  HN  UNK N   1      27.608  19.412   9.459  1.00  0.00     0.167 HD
HETATM    5  C   UNK N   1      27.441  19.604   7.343  0.00  0.00     0.122 A 
HETATM    6  C   UNK N   1      28.038  18.950   6.331  0.00  0.00     0.143 A 
HETATM    7  N   UNK N   1      27.796  19.237   5.029  0.00  0.00    -0.316 N 
ATOM      8  HN  UNK N   1      28.262  18.722   4.283  1.00  0.00     0.170 HD
HETATM    9  C   UNK N   1      26.909  20.240   4.747  0.00  0.00     0.182 A 
HETATM   10 Cl   UNK N   1      26.594  20.672   3.081  0.00  0.00    -0.045 Cl
HETATM   11  N   UNK N   1      26.275  20.914   5.763  0.00  0.00    -0.317 N 
ATOM     12  HN  UNK N   1      25.609  21.653   5.538  1.00  0.00     0.170 HD
HETATM   13  C   UNK N   1      26.525  20.609   7.074  0.00  0.00     0.132 A 
ENDROOT
BRANCH   1  14
HETATM   14  C   UNK N   1      29.645  17.068   6.033  0.00  0.00     0.231 C 
HETATM   15  O   UNK N   1      30.270  17.700   4.946  0.00  0.00    -0.359 OA
HETATM   16  C   UNK N   1      31.185  16.728   4.508  0.00  0.00     0.147 C 
HETATM   17  C   UNK N   1      31.790  16.115   5.760  0.00  0.00     0.038 C 
HETATM   18  C   UNK N   1      30.749  16.389   6.822  0.00  0.00     0.057 C 
BRANCH  16  19
HETATM   19  C   UNK N   1      32.247  17.352   3.620  0.00  0.00     0.196 C 
BRANCH  19  20
HETATM   20  O   UNK N   1      31.865  17.262   2.280  0.00  0.00    -0.398 OA
HETATM   21  H   UNK N   1      31.970  18.001   1.660  0.00  0.00     0.209 HD
ENDBRANCH  19  20
ENDBRANCH  16  19
ENDBRANCH   1  14
BRANCH  13  22
HETATM   22  N   UNK N   1      25.864  21.298   8.110  0.00  0.00    -0.383 N 
HETATM   23  H   UNK N   1      26.230  21.324   9.024  0.00  0.00     0.157 HD
HETATM   24  H   UNK N   1      25.018  21.763   7.916  0.00  0.00     0.157 HD
ENDBRANCH  13  22
TORSDOF 4
ENDMDL
MODEL 3
REMARK VINA RESULT:      -5.8     15.746     17.768
REMARK  4 active torsions:
REMARK  status: ('A' for Active; 'I' for Inactive)
REMARK    1  A    between atoms: O_1  and  C_2 
REMARK    2  A    between atoms: C_3  and  C_2 
REMARK    3  A    between atoms: C_7  and  N_8 
REMARK    4  A    between atoms: C_20  and  N_21 
ROOT
HETATM    1  N   UNK N   1      24.568  17.844   4.056  0.00  0.00    -0.300 N 
HETATM    2  C   UNK N   1      25.125  16.816   3.358  0.00  0.00     0.188 A 
HETATM    3  N   UNK N   1      26.487  16.855   3.423  0.00  0.00    -0.346 N 
ATOM      4  HN  UNK N   1      27.152  16.209   2.998  1.00  0.00     0.167 HD
HETATM    5  C   UNK N   1      26.754  17.940   4.176  0.00  0.00     0.122 A 
HETATM    6  C   UNK N   1      25.603  18.530   4.546  0.00  0.00     0.143 A 
HETATM    7  N   UNK N   1      25.566  19.652   5.304  0.00  0.00    -0.316 N 
ATOM      8  HN  UNK N   1      24.679  20.076   5.571  1.00  0.00     0.170 HD
HETATM    9  C   UNK N   1      26.756  20.200   5.697  0.00  0.00     0.182 A 
HETATM   10 Cl   UNK N   1      26.760  21.671   6.645  0.00  0.00    -0.045 Cl
HETATM   11  N   UNK N   1      27.946  19.608   5.344  0.00  0.00    -0.317 N 
ATOM     12  HN  UNK N   1      28.825  20.023   5.653  1.00  0.00     0.170 HD
HETATM   13  C   UNK N   1      27.968  18.471   4.583  0.00  0.00     0.132 A 
ENDROOT
BRANCH   1  14
HETATM   14  C   UNK N   1      23.155  18.138   4.293  0.00  0.00     0.231 C 
HETATM   15  O   UNK N   1      22.800  19.388   3.760  0.00  0.00    -0.359 OA
HETATM   16  C   UNK N   1      21.397  19.358   3.809  0.00  0.00     0.147 C 
HETATM   17  C   UNK N   1      20.983  17.961   3.378  0.00  0.00     0.038 C 
HETATM   18  C   UNK N   1      22.211  17.127   3.669  0.00  0.00     0.057 C 
BRANCH  16  19
HETATM   19  C   UNK N   1      20.806  20.423   2.901  0.00  0.00     0.196 C 
BRANCH  19  20
HETATM   20  O   UNK N   1      21.690  21.498   2.785  0.00  0.00    -0.398 OA
HETATM   21  H   UNK N   1      22.606  21.387   2.487  0.00  0.00     0.209 HD
ENDBRANCH  19  20
ENDBRANCH  16  19
ENDBRANCH   1  14
BRANCH  13  22
HETATM   22  N   UNK N   1      29.190  17.865   4.233  0.00  0.00    -0.383 N 
HETATM   23  H   UNK N   1      29.438  17.717   3.292  0.00  0.00     0.157 HD
HETATM   24  H   UNK N   1      29.809  17.583   4.944  0.00  0.00     0.157 HD
ENDBRANCH  13  22
TORSDOF 4
ENDMDL
MODEL 4
REMARK VINA RESULT:      -5.8     14.068     15.459
REMARK  4 active torsions:
REMARK  status: ('A' for Active; 'I' for Inactive)
REMARK    1  A    between atoms: O_1  and  C_2 
REMARK    2  A    between atoms: C_3  and  C_2 
REMARK    3  A    between atoms: C_7  and  N_8 
REMARK    4  A    between atoms: C_20  and  N_21 
ROOT
HETATM    1  N   UNK N   1      21.305  14.429   8.799  0.00  0.00    -0.300 N 
HETATM    2  C   UNK N   1      20.253  15.266   9.013  0.00  0.00     0.188 A 
HETATM    3  N   UNK N   1      20.289  16.332   8.162  0.00  0.00    -0.346 N 
ATOM      4  HN  UNK N   1      19.626  17.105   8.100  1.00  0.00     0.167 HD
HETATM    5  C   UNK N   1      21.395  16.129   7.421  0.00  0.00     0.122 A 
HETATM    6  C   UNK N   1      22.001  14.993   7.810  0.00  0.00     0.143 A 
HETATM    7  N   UNK N   1      23.147  14.544   7.244  0.00  0.00    -0.316 N 
ATOM      8  HN  UNK N   1      23.582  13.678   7.558  1.00  0.00     0.170 HD
HETATM    9  C   UNK N   1      23.702  15.288   6.239  0.00  0.00     0.182 A 
HETATM   10 Cl   UNK N   1      25.202  14.767   5.504  0.00  0.00    -0.045 Cl
HETATM   11  N   UNK N   1      23.094  16.445   5.813  0.00  0.00    -0.317 N 
ATOM     12  HN  UNK N   1      23.514  16.985   5.057  1.00  0.00     0.170 HD
HETATM   13  C   UNK N   1      21.933  16.884   6.390  0.00  0.00     0.132 A 
ENDROOT
BRANCH   1  14
HETATM   14  C   UNK N   1      21.613  13.152   9.443  0.00  0.00     0.231 C 
HETATM   15  O   UNK N   1      22.917  13.148   9.964  0.00  0.00    -0.359 OA
HETATM   16  C   UNK N   1      22.920  12.005  10.781  0.00  0.00     0.147 C 
HETATM   17  C   UNK N   1      21.582  11.990  11.501  0.00  0.00     0.038 C 
HETATM   18  C   UNK N   1      20.692  12.819  10.602  0.00  0.00     0.057 C 
BRANCH  16  19
HETATM   19  C   UNK N   1      24.082  12.048  11.758  0.00  0.00     0.196 C 
BRANCH  19  20
HETATM   20  O   UNK N   1      25.148  12.760  11.203  0.00  0.00    -0.398 OA
HETATM   21  H   UNK N   1      25.039  13.346  10.439  0.00  0.00     0.209 HD
ENDBRANCH  19  20
ENDBRANCH  16  19
ENDBRANCH   1  14
BRANCH  13  22
HETATM   22  N   UNK N   1      21.311  18.067   5.942  0.00  0.00    -0.383 N 
HETATM   23  H   UNK N   1      21.805  18.916   5.882  0.00  0.00     0.157 HD
HETATM   24  H   UNK N   1      20.361  18.042   5.684  0.00  0.00     0.157 HD
ENDBRANCH  13  22
TORSDOF 4
ENDMDL
MODEL 5
REMARK VINA RESULT:      -5.8      4.798      7.712
REMARK  4 active torsions:
REMARK  status: ('A' for Active; 'I' for Inactive)
REMARK    1  A    between atoms: O_1  and  C_2 
REMARK    2  A    between atoms: C_3  and  C_2 
REMARK    3  A    between atoms: C_7  and  N_8 
REMARK    4  A    between atoms: C_20  and  N_21 
ROOT
HETATM    1  N   UNK N   1      35.031  14.937  10.993  0.00  0.00    -0.300 N 
HETATM    2  C   UNK N   1      35.861  15.858  11.553  0.00  0.00     0.188 A 
HETATM    3  N   UNK N   1      36.464  15.364  12.674  0.00  0.00    -0.346 N 
ATOM      4  HN  UNK N   1      37.132  15.835  13.283  1.00  0.00     0.167 HD
HETATM    5  C   UNK N   1      35.976  14.114  12.790  0.00  0.00     0.122 A 
HETATM    6  C   UNK N   1      35.116  13.866  11.786  0.00  0.00     0.143 A 
HETATM    7  N   UNK N   1      34.463  12.686  11.655  0.00  0.00    -0.316 N 
ATOM      8  HN  UNK N   1      33.819  12.526  10.883  1.00  0.00     0.170 HD
HETATM    9  C   UNK N   1      34.695  11.717  12.593  0.00  0.00     0.182 A 
HETATM   10 Cl   UNK N   1      33.847  10.191  12.487  0.00  0.00    -0.045 Cl
HETATM   11  N   UNK N   1      35.581  11.941  13.620  0.00  0.00    -0.317 N 
ATOM     12  HN  UNK N   1      35.751  11.205  14.307  1.00  0.00     0.170 HD
HETATM   13  C   UNK N   1      36.238  13.135  13.737  0.00  0.00     0.132 A 
ENDROOT
BRANCH   1  14
HETATM   14  C   UNK N   1      34.244  15.031   9.764  0.00  0.00     0.231 C 
HETATM   15  O   UNK N   1      33.873  16.360   9.499  0.00  0.00    -0.359 OA
HETATM   16  C   UNK N   1      33.412  16.294   8.173  0.00  0.00     0.147 C 
HETATM   17  C   UNK N   1      34.375  15.382   7.430  0.00  0.00     0.038 C 
HETATM   18  C   UNK N   1      34.983  14.542   8.531  0.00  0.00     0.057 C 
BRANCH  16  19
HETATM   19  C   UNK N   1      33.361  17.679   7.554  0.00  0.00     0.196 C 
BRANCH  19  20
HETATM   20  O   UNK N   1      34.504  17.902   6.783  0.00  0.00    -0.398 OA
HETATM   21  H   UNK N   1      34.981  18.746   6.795  0.00  0.00     0.209 HD
ENDBRANCH  19  20
ENDBRANCH  16  19
ENDBRANCH   1  14
BRANCH  13  22
HETATM   22  N   UNK N   1      37.151  13.354  14.787  0.00  0.00    -0.383 N 
HETATM   23  H   UNK N   1      37.408  12.630  15.402  0.00  0.00     0.157 HD
HETATM   24  H   UNK N   1      37.540  14.250  14.908  0.00  0.00     0.157 HD
ENDBRANCH  13  22
TORSDOF 4
ENDMDL
MODEL 6
REMARK VINA RESULT:      -5.7     18.055     19.669
REMARK  4 active torsions:
REMARK  status: ('A' for Active; 'I' for Inactive)
REMARK    1  A    between atoms: O_1  and  C_2 
REMARK    2  A    between atoms: C_3  and  C_2 
REMARK    3  A    between atoms: C_7  and  N_8 
REMARK    4  A    between atoms: C_20  and  N_21 
ROOT
HETATM    1  N   UNK N   1      20.448  17.531   3.865  0.00  0.00    -0.300 N 
HETATM    2  C   UNK N   1      19.270  17.549   3.184  0.00  0.00     0.188 A 
HETATM    3  N   UNK N   1      19.251  18.549   2.255  0.00  0.00    -0.346 N 
ATOM      4  HN  UNK N   1      18.500  18.787   1.607  1.00  0.00     0.167 HD
HETATM    5  C   UNK N   1      20.450  19.149   2.388  0.00  0.00     0.122 A 
HETATM    6  C   UNK N   1      21.159  18.540   3.354  0.00  0.00     0.143 A 
HETATM    7  N   UNK N   1      22.402  18.939   3.713  0.00  0.00    -0.316 N 
ATOM      8  HN  UNK N   1      22.917  18.456   4.448  1.00  0.00     0.170 HD
HETATM    9  C   UNK N   1      22.946  20.011   3.058  0.00  0.00     0.182 A 
HETATM   10 Cl   UNK N   1      24.535  20.587   3.513  0.00  0.00    -0.045 Cl
HETATM   11  N   UNK N   1      22.248  20.641   2.056  0.00  0.00    -0.317 N 
ATOM     12  HN  UNK N   1      22.669  21.433   1.571  1.00  0.00     0.170 HD
HETATM   13  C   UNK N   1      20.994  20.223   1.701  0.00  0.00     0.132 A 
ENDROOT
BRANCH   1  14
HETATM   14  C   UNK N   1      20.904  16.596   4.893  0.00  0.00     0.231 C 
HETATM   15  O   UNK N   1      20.873  17.187   6.167  0.00  0.00    -0.359 OA
HETATM   16  C   UNK N   1      21.040  16.087   7.023  0.00  0.00     0.147 C 
HETATM   17  C   UNK N   1      20.193  14.964   6.447  0.00  0.00     0.038 C 
HETATM   18  C   UNK N   1      20.061  15.339   4.988  0.00  0.00     0.057 C 
BRANCH  16  19
HETATM   19  C   UNK N   1      20.617  16.439   8.438  0.00  0.00     0.196 C 
BRANCH  19  20
HETATM   20  O   UNK N   1      20.248  17.785   8.507  0.00  0.00    -0.398 OA
HETATM   21  H   UNK N   1      20.768  18.441   8.996  0.00  0.00     0.209 HD
ENDBRANCH  19  20
ENDBRANCH  16  19
ENDBRANCH   1  14
BRANCH  13  22
HETATM   22  N   UNK N   1      20.288  20.869   0.666  0.00  0.00    -0.383 N 
HETATM   23  H   UNK N   1      19.314  21.002   0.716  0.00  0.00     0.157 HD
HETATM   24  H   UNK N   1      20.779  21.193  -0.123  0.00  0.00     0.157 HD
ENDBRANCH  13  22
TORSDOF 4
ENDMDL
MODEL 7
REMARK VINA RESULT:      -5.5     16.874     18.919
REMARK  4 active torsions:
REMARK  status: ('A' for Active; 'I' for Inactive)
REMARK    1  A    between atoms: O_1  and  C_2 
REMARK    2  A    between atoms: C_3  and  C_2 
REMARK    3  A    between atoms: C_7  and  N_8 
REMARK    4  A    between atoms: C_20  and  N_21 
ROOT
HETATM    1  N   UNK N   1      22.910  17.951   3.983  0.00  0.00    -0.300 N 
HETATM    2  C   UNK N   1      22.903  16.600   3.818  0.00  0.00     0.188 A 
HETATM    3  N   UNK N   1      24.111  16.055   4.145  0.00  0.00    -0.346 N 
ATOM      4  HN  UNK N   1      24.381  15.072   4.119  1.00  0.00     0.167 HD
HETATM    5  C   UNK N   1      24.864  17.111   4.511  0.00  0.00     0.122 A 
HETATM    6  C   UNK N   1      24.143  18.241   4.407  0.00  0.00     0.143 A 
HETATM    7  N   UNK N   1      24.649  19.463   4.701  0.00  0.00    -0.316 N 
ATOM      8  HN  UNK N   1      24.078  20.302   4.614  1.00  0.00     0.170 HD
HETATM    9  C   UNK N   1      25.951  19.535   5.115  0.00  0.00     0.182 A 
HETATM   10 Cl   UNK N   1      26.660  21.095   5.470  0.00  0.00    -0.045 Cl
HETATM   11  N   UNK N   1      26.704  18.393   5.244  0.00  0.00    -0.317 N 
ATOM     12  HN  UNK N   1      27.671  18.461   5.564  1.00  0.00     0.170 HD
HETATM   13  C   UNK N   1      26.178  17.165   4.949  0.00  0.00     0.132 A 
ENDROOT
BRANCH   1  14
HETATM   14  C   UNK N   1      21.818  18.907   3.805  0.00  0.00     0.231 C 
HETATM   15  O   UNK N   1      22.063  19.762   2.719  0.00  0.00    -0.359 OA
HETATM   16  C   UNK N   1      20.816  20.377   2.522  0.00  0.00     0.147 C 
HETATM   17  C   UNK N   1      19.770  19.288   2.689  0.00  0.00     0.038 C 
HETATM   18  C   UNK N   1      20.475  18.252   3.536  0.00  0.00     0.057 C 
BRANCH  16  19
HETATM   19  C   UNK N   1      20.745  21.016   1.146  0.00  0.00     0.196 C 
BRANCH  19  20
HETATM   20  O   UNK N   1      20.692  20.028   0.161  0.00  0.00    -0.398 OA
HETATM   21  H   UNK N   1      19.986  19.995  -0.505  0.00  0.00     0.209 HD
ENDBRANCH  19  20
ENDBRANCH  16  19
ENDBRANCH   1  14
BRANCH  13  22
HETATM   22  N   UNK N   1      26.953  15.997   5.093  0.00  0.00    -0.383 N 
HETATM   23  H   UNK N   1      27.806  16.005   5.585  0.00  0.00     0.157 HD
HETATM   24  H   UNK N   1      26.636  15.156   4.692  0.00  0.00     0.157 HD
ENDBRANCH  13  22
TORSDOF 4
ENDMDL
MODEL 8
REMARK VINA RESULT:      -5.5     17.988     20.148
REMARK  4 active torsions:
REMARK  status: ('A' for Active; 'I' for Inactive)
REMARK    1  A    between atoms: O_1  and  C_2 
REMARK    2  A    between atoms: C_3  and  C_2 
REMARK    3  A    between atoms: C_7  and  N_8 
REMARK    4  A    between atoms: C_20  and  N_21 
ROOT
HETATM    1  N   UNK N   1      41.797  22.792   1.822  0.00  0.00    -0.300 N 
HETATM    2  C   UNK N   1      41.706  21.707   2.639  0.00  0.00     0.188 A 
HETATM    3  N   UNK N   1      42.870  21.506   3.324  0.00  0.00    -0.346 N 
ATOM      4  HN  UNK N   1      43.077  20.773   4.003  1.00  0.00     0.167 HD
HETATM    5  C   UNK N   1      43.680  22.495   2.901  0.00  0.00     0.122 A 
HETATM    6  C   UNK N   1      43.035  23.257   2.000  0.00  0.00     0.143 A 
HETATM    7  N   UNK N   1      43.612  24.324   1.396  0.00  0.00    -0.316 N 
ATOM      8  HN  UNK N   1      43.098  24.885   0.718  1.00  0.00     0.170 HD
HETATM    9  C   UNK N   1      44.906  24.624   1.723  0.00  0.00     0.182 A 
HETATM   10 Cl   UNK N   1      45.706  25.970   0.941  0.00  0.00    -0.045 Cl
HETATM   11  N   UNK N   1      45.582  23.870   2.652  0.00  0.00    -0.317 N 
ATOM     12  HN  UNK N   1      46.544  24.111   2.893  1.00  0.00     0.170 HD
HETATM   13  C   UNK N   1      44.985  22.798   3.259  0.00  0.00     0.132 A 
ENDROOT
BRANCH   1  14
HETATM   14  C   UNK N   1      40.772  23.389   0.966  0.00  0.00     0.231 C 
HETATM   15  O   UNK N   1      40.891  24.788   0.931  0.00  0.00    -0.359 OA
HETATM   16  C   UNK N   1      40.055  25.143  -0.140  0.00  0.00     0.147 C 
HETATM   17  C   UNK N   1      40.299  24.115  -1.232  0.00  0.00     0.038 C 
HETATM   18  C   UNK N   1      40.836  22.921  -0.475  0.00  0.00     0.057 C 
BRANCH  16  19
HETATM   19  C   UNK N   1      40.364  26.552  -0.617  0.00  0.00     0.196 C 
BRANCH  19  20
HETATM   20  O   UNK N   1      39.424  27.448  -0.104  0.00  0.00    -0.398 OA
HETATM   21  H   UNK N   1      39.183  28.267  -0.564  0.00  0.00     0.209 HD
ENDBRANCH  19  20
ENDBRANCH  16  19
ENDBRANCH   1  14
BRANCH  13  22
HETATM   22  N   UNK N   1      45.681  22.035   4.217  0.00  0.00    -0.383 N 
HETATM   23  H   UNK N   1      46.575  21.669   4.030  0.00  0.00     0.157 HD
HETATM   24  H   UNK N   1      45.264  21.864   5.092  0.00  0.00     0.157 HD
ENDBRANCH  13  22
TORSDOF 4
ENDMDL
MODEL 9
REMARK VINA RESULT:      -5.3      2.965      3.692
REMARK  4 active torsions:
REMARK  status: ('A' for Active; 'I' for Inactive)
REMARK    1  A    between atoms: O_1  and  C_2 
REMARK    2  A    between atoms: C_3  and  C_2 
REMARK    3  A    between atoms: C_7  and  N_8 
REMARK    4  A    between atoms: C_20  and  N_21 
ROOT
HETATM    1  N   UNK N   1      35.667  13.088  12.946  0.00  0.00    -0.300 N 
HETATM    2  C   UNK N   1      36.315  14.094  13.595  0.00  0.00     0.188 A 
HETATM    3  N   UNK N   1      36.188  15.276  12.925  0.00  0.00    -0.346 N 
ATOM      4  HN  UNK N   1      36.566  16.187  13.186  1.00  0.00     0.167 HD
HETATM    5  C   UNK N   1      35.446  14.968  11.843  0.00  0.00     0.122 A 
HETATM    6  C   UNK N   1      35.143  13.658  11.859  0.00  0.00     0.143 A 
HETATM    7  N   UNK N   1      34.413  13.063  10.885  0.00  0.00    -0.316 N 
ATOM      8  HN  UNK N   1      34.197  12.068  10.925  1.00  0.00     0.170 HD
HETATM    9  C   UNK N   1      33.975  13.839   9.847  0.00  0.00     0.182 A 
HETATM   10 Cl   UNK N   1      33.060  13.109   8.546  0.00  0.00    -0.045 Cl
HETATM   11  N   UNK N   1      34.259  15.184   9.816  0.00  0.00    -0.317 N 
ATOM     12  HN  UNK N   1      33.918  15.752   9.040  1.00  0.00     0.170 HD
HETATM   13  C   UNK N   1      34.993  15.772  10.809  0.00  0.00     0.132 A 
ENDROOT
BRANCH   1  14
HETATM   14  C   UNK N   1      35.504  11.690  13.345  0.00  0.00     0.231 C 
HETATM   15  O   UNK N   1      36.518  11.292  14.230  0.00  0.00    -0.359 OA
HETATM   16  C   UNK N   1      36.036  10.068  14.723  0.00  0.00     0.147 C 
HETATM   17  C   UNK N   1      34.549  10.261  14.967  0.00  0.00     0.038 C 
HETATM   18  C   UNK N   1      34.190  11.409  14.050  0.00  0.00     0.057 C 
BRANCH  16  19
HETATM   19  C   UNK N   1      36.767   9.677  15.995  0.00  0.00     0.196 C 
BRANCH  19  20
HETATM   20  O   UNK N   1      36.468  10.582  17.017  0.00  0.00    -0.398 OA
HETATM   21  H   UNK N   1      37.136  11.175  17.396  0.00  0.00     0.209 HD
ENDBRANCH  19  20
ENDBRANCH  16  19
ENDBRANCH   1  14
BRANCH  13  22
HETATM   22  N   UNK N   1      35.272  17.153  10.775  0.00  0.00    -0.383 N 
HETATM   23  H   UNK N   1      35.833  17.545  10.067  0.00  0.00     0.157 HD
HETATM   24  H   UNK N   1      34.899  17.737  11.474  0.00  0.00     0.157 HD
ENDBRANCH  13  22
TORSDOF 4
ENDMDL
