MODEL 1
REMARK VINA RESULT:      -5.4      0.000      0.000
REMARK  10 active torsions:
REMARK  status: ('A' for Active; 'I' for Inactive)
REMARK    1  A    between atoms: C_1  and  C_9 
REMARK    2  A    between atoms: C_3  and  O_8 
REMARK    3  A    between atoms: C_4  and  N_6 
REMARK    4  A    between atoms: C_5  and  O_7 
REMARK       I    between atoms: C_15  and  N_6 
REMARK    5  A    between atoms: C_9  and  O_11 
REMARK    6  A    between atoms: O_11  and  P_10 
REMARK    7  A    between atoms: O_13  and  P_10 
REMARK    8  A    between atoms: O_14  and  P_10 
REMARK    9  A    between atoms: C_17  and  C_15 
REMARK   10  A    between atoms: N_18  and  C_17 
ROOT
HETATM    1  C   UNK N   1      30.118  16.948   7.846  0.00  0.00     0.180 C 
HETATM    2  O   UNK N   1      29.756  17.762   6.763  0.00  0.00    -0.354 OA
HETATM    3  C   UNK N   1      29.759  17.693   9.122  0.00  0.00     0.182 C 
HETATM    4  C   UNK N   1      28.523  18.310   7.158  0.00  0.00     0.255 C 
HETATM    5  C   UNK N   1      28.570  18.504   8.677  0.00  0.00     0.198 C 
ENDROOT
BRANCH   1   6
HETATM    6  C   UNK N   1      31.587  16.563   7.770  0.00  0.00     0.215 C 
BRANCH   6   7
HETATM    7  O   UNK N   1      32.345  17.642   7.304  0.00  0.00    -0.294 OA
BRANCH   7   8
HETATM    8  P   UNK N   1      34.000  17.189   7.595  0.00  0.00     0.390 P 
HETATM    9  O   UNK N   1      34.898  18.448   7.718  0.00  0.00    -0.632 OA
BRANCH   8  10
HETATM   10  O   UNK N   1      33.379  17.995   9.002  0.00  0.00    -0.307 OA
HETATM   11  H   UNK N   1      33.897  18.503   9.645  0.00  0.00     0.222 HD
ENDBRANCH   8  10
BRANCH   8  12
HETATM   12  O   UNK N   1      33.882  17.942   6.032  0.00  0.00    -0.307 OA
HETATM   13  H   UNK N   1      34.085  17.610   5.144  0.00  0.00     0.222 HD
ENDBRANCH   8  12
ENDBRANCH   7   8
ENDBRANCH   6   7
ENDBRANCH   1   6
BRANCH   3  14
HETATM   14  O   UNK N   1      30.777  18.584   9.472  0.00  0.00    -0.390 OA
HETATM   15  H   UNK N   1      31.459  19.001   8.923  0.00  0.00     0.210 HD
ENDBRANCH   3  14
BRANCH   4  16
HETATM   16  N   UNK N   1      27.375  17.512   6.729  0.00  0.00    -0.331 N 
HETATM   17  C   UNK N   1      26.815  17.487   5.487  0.00  0.00     0.236 C 
HETATM   18  O   UNK N   1      27.268  18.151   4.569  0.00  0.00    -0.272 OA
HETATM   19  H   UNK N   1      26.965  16.931   7.408  0.00  0.00     0.165 HD
BRANCH  17  20
HETATM   20  C   UNK N   1      25.620  16.629   5.247  0.00  0.00     0.214 C 
BRANCH  20  21
HETATM   21  N   UNK N   1      25.241  15.958   6.478  0.00  0.00    -0.422 N 
HETATM   22  H   UNK N   1      24.862  15.029   6.657  0.00  0.00     0.150 HD
HETATM   23  H   UNK N   1      25.379  16.521   7.318  0.00  0.00     0.150 HD
ENDBRANCH  20  21
ENDBRANCH  17  20
ENDBRANCH   4  16
BRANCH   5  24
HETATM   24  O   UNK N   1      27.401  18.074   9.307  0.00  0.00    -0.389 OA
HETATM   25  H   UNK N   1      26.437  18.152   9.384  0.00  0.00     0.210 HD
ENDBRANCH   5  24
TORSDOF 10
ENDMDL
MODEL 2
REMARK VINA RESULT:      -5.4      6.110      8.227
REMARK  10 active torsions:
REMARK  status: ('A' for Active; 'I' for Inactive)
REMARK    1  A    between atoms: C_1  and  C_9 
REMARK    2  A    between atoms: C_3  and  O_8 
REMARK    3  A    between atoms: C_4  and  N_6 
REMARK    4  A    between atoms: C_5  and  O_7 
REMARK       I    between atoms: C_15  and  N_6 
REMARK    5  A    between atoms: C_9  and  O_11 
REMARK    6  A    between atoms: O_11  and  P_10 
REMARK    7  A    between atoms: O_13  and  P_10 
REMARK    8  A    between atoms: O_14  and  P_10 
REMARK    9  A    between atoms: C_17  and  C_15 
REMARK   10  A    between atoms: N_18  and  C_17 
ROOT
HETATM    1  C   UNK N   1      35.062  14.933   9.877  0.00  0.00     0.180 C 
HETATM    2  O   UNK N   1      34.117  14.863  10.911  0.00  0.00    -0.354 OA
HETATM    3  C   UNK N   1      36.387  15.353  10.492  0.00  0.00     0.182 C 
HETATM    4  C   UNK N   1      34.832  14.280  11.973  0.00  0.00     0.255 C 
HETATM    5  C   UNK N   1      36.281  14.767  11.875  0.00  0.00     0.198 C 
ENDROOT
BRANCH   1   6
HETATM    6  C   UNK N   1      34.590  15.865   8.772  0.00  0.00     0.215 C 
BRANCH   6   7
HETATM    7  O   UNK N   1      33.835  16.911   9.313  0.00  0.00    -0.294 OA
BRANCH   7   8
HETATM    8  P   UNK N   1      33.570  18.008   7.988  0.00  0.00     0.390 P 
HETATM    9  O   UNK N   1      34.631  17.788   6.878  0.00  0.00    -0.632 OA
BRANCH   8  10
HETATM   10  O   UNK N   1      33.265  16.385   7.449  0.00  0.00    -0.307 OA
HETATM   11  H   UNK N   1      32.944  16.125   6.572  0.00  0.00     0.222 HD
ENDBRANCH   8  10
BRANCH   8  12
HETATM   12  O   UNK N   1      35.075  18.403   8.763  0.00  0.00    -0.307 OA
HETATM   13  H   UNK N   1      35.921  18.709   8.401  0.00  0.00     0.222 HD
ENDBRANCH   8  12
ENDBRANCH   7   8
ENDBRANCH   6   7
ENDBRANCH   1   6
BRANCH   3  14
HETATM   14  O   UNK N   1      36.449  16.743  10.620  0.00  0.00    -0.390 OA
HETATM   15  H   UNK N   1      36.442  17.435   9.940  0.00  0.00     0.210 HD
ENDBRANCH   3  14
BRANCH   4  16
HETATM   16  N   UNK N   1      34.729  12.822  12.005  0.00  0.00    -0.331 N 
HETATM   17  C   UNK N   1      34.550  12.038  13.104  0.00  0.00     0.236 C 
HETATM   18  O   UNK N   1      34.430  12.520  14.219  0.00  0.00    -0.272 OA
HETATM   19  H   UNK N   1      34.795  12.358  11.139  0.00  0.00     0.165 HD
BRANCH  17  20
HETATM   20  C   UNK N   1      34.503  10.557  12.939  0.00  0.00     0.214 C 
BRANCH  20  21
HETATM   21  N   UNK N   1      33.533  10.207  11.916  0.00  0.00    -0.422 N 
HETATM   22  H   UNK N   1      33.466  10.457  10.930  0.00  0.00     0.150 HD
HETATM   23  H   UNK N   1      32.782   9.600  12.244  0.00  0.00     0.150 HD
ENDBRANCH  20  21
ENDBRANCH  17  20
ENDBRANCH   4  16
BRANCH   5  24
HETATM   24  O   UNK N   1      37.205  13.736  12.059  0.00  0.00    -0.389 OA
HETATM   25  H   UNK N   1      37.936  13.377  12.586  0.00  0.00     0.210 HD
ENDBRANCH   5  24
TORSDOF 10
ENDMDL
MODEL 3
REMARK VINA RESULT:      -5.2      5.625      8.049
REMARK  10 active torsions:
REMARK  status: ('A' for Active; 'I' for Inactive)
REMARK    1  A    between atoms: C_1  and  C_9 
REMARK    2  A    between atoms: C_3  and  O_8 
REMARK    3  A    between atoms: C_4  and  N_6 
REMARK    4  A    between atoms: C_5  and  O_7 
REMARK       I    between atoms: C_15  and  N_6 
REMARK    5  A    between atoms: C_9  and  O_11 
REMARK    6  A    between atoms: O_11  and  P_10 
REMARK    7  A    between atoms: O_13  and  P_10 
REMARK    8  A    between atoms: O_14  and  P_10 
REMARK    9  A    between atoms: C_17  and  C_15 
REMARK   10  A    between atoms: N_18  and  C_17 
ROOT
HETATM    1  C   UNK N   1      34.247  15.311   9.124  0.00  0.00     0.180 C 
HETATM    2  O   UNK N   1      33.612  14.858  10.289  0.00  0.00    -0.354 OA
HETATM    3  C   UNK N   1      35.042  16.555   9.487  0.00  0.00     0.182 C 
HETATM    4  C   UNK N   1      34.587  15.034  11.288  0.00  0.00     0.255 C 
HETATM    5  C   UNK N   1      35.399  16.280  10.924  0.00  0.00     0.198 C 
ENDROOT
BRANCH   1   6
HETATM    6  C   UNK N   1      33.238  15.547   8.011  0.00  0.00     0.215 C 
BRANCH   6   7
HETATM    7  O   UNK N   1      33.881  16.051   6.876  0.00  0.00    -0.294 OA
BRANCH   7   8
HETATM    8  P   UNK N   1      32.736  17.149   6.160  0.00  0.00     0.390 P 
HETATM    9  O   UNK N   1      33.201  17.574   4.742  0.00  0.00    -0.632 OA
BRANCH   8  10
HETATM   10  O   UNK N   1      32.729  15.660   5.265  0.00  0.00    -0.307 OA
HETATM   11  H   UNK N   1      32.644  14.769   5.638  0.00  0.00     0.222 HD
ENDBRANCH   8  10
BRANCH   8  12
HETATM   12  O   UNK N   1      34.231  17.990   6.444  0.00  0.00    -0.307 OA
HETATM   13  H   UNK N   1      34.686  18.228   7.267  0.00  0.00     0.222 HD
ENDBRANCH   8  12
ENDBRANCH   7   8
ENDBRANCH   6   7
ENDBRANCH   1   6
BRANCH   3  14
HETATM   14  O   UNK N   1      34.221  17.685   9.459  0.00  0.00    -0.390 OA
HETATM   15  H   UNK N   1      33.817  18.147   8.708  0.00  0.00     0.210 HD
ENDBRANCH   3  14
BRANCH   4  16
HETATM   16  N   UNK N   1      35.427  13.853  11.486  0.00  0.00    -0.331 N 
HETATM   17  C   UNK N   1      35.423  13.018  12.561  0.00  0.00     0.236 C 
HETATM   18  O   UNK N   1      34.654  13.183  13.495  0.00  0.00    -0.272 OA
HETATM   19  H   UNK N   1      36.061  13.639  10.764  0.00  0.00     0.165 HD
BRANCH  17  20
HETATM   20  C   UNK N   1      36.382  11.877  12.598  0.00  0.00     0.214 C 
BRANCH  20  21
HETATM   21  N   UNK N   1      37.719  12.368  12.883  0.00  0.00    -0.422 N 
HETATM   22  H   UNK N   1      38.078  12.969  13.624  0.00  0.00     0.150 HD
HETATM   23  H   UNK N   1      38.428  12.053  12.221  0.00  0.00     0.150 HD
ENDBRANCH  20  21
ENDBRANCH  17  20
ENDBRANCH   4  16
BRANCH   5  24
HETATM   24  O   UNK N   1      36.774  16.085  11.074  0.00  0.00    -0.389 OA
HETATM   25  H   UNK N   1      37.668  16.449  10.974  0.00  0.00     0.210 HD
ENDBRANCH   5  24
TORSDOF 10
ENDMDL
MODEL 4
REMARK VINA RESULT:      -5.2      5.114      6.914
REMARK  10 active torsions:
REMARK  status: ('A' for Active; 'I' for Inactive)
REMARK    1  A    between atoms: C_1  and  C_9 
REMARK    2  A    between atoms: C_3  and  O_8 
REMARK    3  A    between atoms: C_4  and  N_6 
REMARK    4  A    between atoms: C_5  and  O_7 
REMARK       I    between atoms: C_15  and  N_6 
REMARK    5  A    between atoms: C_9  and  O_11 
REMARK    6  A    between atoms: O_11  and  P_10 
REMARK    7  A    between atoms: O_13  and  P_10 
REMARK    8  A    between atoms: O_14  and  P_10 
REMARK    9  A    between atoms: C_17  and  C_15 
REMARK   10  A    between atoms: N_18  and  C_17 
ROOT
HETATM    1  C   UNK N   1      34.621  15.108  11.234  0.00  0.00     0.180 C 
HETATM    2  O   UNK N   1      34.113  14.496  10.079  0.00  0.00    -0.354 OA
HETATM    3  C   UNK N   1      35.648  16.140  10.793  0.00  0.00     0.182 C 
HETATM    4  C   UNK N   1      33.973  15.563   9.173  0.00  0.00     0.255 C 
HETATM    5  C   UNK N   1      35.107  16.554   9.450  0.00  0.00     0.198 C 
ENDROOT
BRANCH   1   6
HETATM    6  C   UNK N   1      35.185  14.074  12.195  0.00  0.00     0.215 C 
BRANCH   6   7
HETATM    7  O   UNK N   1      35.888  14.706  13.226  0.00  0.00    -0.294 OA
BRANCH   7   8
HETATM    8  P   UNK N   1      36.511  13.410  14.206  0.00  0.00     0.390 P 
HETATM    9  O   UNK N   1      36.128  12.034  13.600  0.00  0.00    -0.632 OA
BRANCH   8  10
HETATM   10  O   UNK N   1      37.325  13.401  12.672  0.00  0.00    -0.307 OA
HETATM   11  H   UNK N   1      37.523  12.619  12.135  0.00  0.00     0.222 HD
ENDBRANCH   8  10
BRANCH   8  12
HETATM   12  O   UNK N   1      34.774  13.391  14.274  0.00  0.00    -0.307 OA
HETATM   13  H   UNK N   1      34.112  14.014  13.936  0.00  0.00     0.222 HD
ENDBRANCH   8  12
ENDBRANCH   7   8
ENDBRANCH   6   7
ENDBRANCH   1   6
BRANCH   3  14
HETATM   14  O   UNK N   1      36.891  15.536  10.585  0.00  0.00    -0.390 OA
HETATM   15  H   UNK N   1      37.769  15.780  10.918  0.00  0.00     0.210 HD
ENDBRANCH   3  14
BRANCH   4  16
HETATM   16  N   UNK N   1      32.653  16.190   9.222  0.00  0.00    -0.331 N 
HETATM   17  C   UNK N   1      31.778  16.336   8.188  0.00  0.00     0.236 C 
HETATM   18  O   UNK N   1      32.031  15.909   7.073  0.00  0.00    -0.272 OA
HETATM   19  H   UNK N   1      32.365  16.542  10.095  0.00  0.00     0.165 HD
BRANCH  17  20
HETATM   20  C   UNK N   1      30.484  17.038   8.426  0.00  0.00     0.214 C 
BRANCH  20  21
HETATM   21  N   UNK N   1      30.684  18.135   9.355  0.00  0.00    -0.422 N 
HETATM   22  H   UNK N   1      31.406  18.312  10.053  0.00  0.00     0.150 HD
HETATM   23  H   UNK N   1      29.970  18.862   9.301  0.00  0.00     0.150 HD
ENDBRANCH  20  21
ENDBRANCH  17  20
ENDBRANCH   4  16
BRANCH   5  24
HETATM   24  O   UNK N   1      34.666  17.879   9.470  0.00  0.00    -0.389 OA
HETATM   25  H   UNK N   1      34.008  18.527   9.172  0.00  0.00     0.210 HD
ENDBRANCH   5  24
TORSDOF 10
ENDMDL
MODEL 5
REMARK VINA RESULT:      -5.2      8.725     10.349
REMARK  10 active torsions:
REMARK  status: ('A' for Active; 'I' for Inactive)
REMARK    1  A    between atoms: C_1  and  C_9 
REMARK    2  A    between atoms: C_3  and  O_8 
REMARK    3  A    between atoms: C_4  and  N_6 
REMARK    4  A    between atoms: C_5  and  O_7 
REMARK       I    between atoms: C_15  and  N_6 
REMARK    5  A    between atoms: C_9  and  O_11 
REMARK    6  A    between atoms: O_11  and  P_10 
REMARK    7  A    between atoms: O_13  and  P_10 
REMARK    8  A    between atoms: O_14  and  P_10 
REMARK    9  A    between atoms: C_17  and  C_15 
REMARK   10  A    between atoms: N_18  and  C_17 
ROOT
HETATM    1  C   UNK N   1      20.848  17.545   4.226  0.00  0.00     0.180 C 
HETATM    2  O   UNK N   1      21.050  18.489   5.242  0.00  0.00    -0.354 OA
HETATM    3  C   UNK N   1      22.015  16.571   4.265  0.00  0.00     0.182 C 
HETATM    4  C   UNK N   1      21.535  17.721   6.317  0.00  0.00     0.255 C 
HETATM    5  C   UNK N   1      22.375  16.584   5.727  0.00  0.00     0.198 C 
ENDROOT
BRANCH   1   6
HETATM    6  C   UNK N   1      20.680  18.226   2.876  0.00  0.00     0.215 C 
BRANCH   6   7
HETATM    7  O   UNK N   1      21.593  19.278   2.751  0.00  0.00    -0.294 OA
BRANCH   7   8
HETATM    8  P   UNK N   1      20.736  20.516   1.877  0.00  0.00     0.390 P 
HETATM    9  O   UNK N   1      21.481  20.874   0.565  0.00  0.00    -0.632 OA
BRANCH   8  10
HETATM   10  O   UNK N   1      20.683  19.040   0.964  0.00  0.00    -0.307 OA
HETATM   11  H   UNK N   1      21.417  18.419   0.838  0.00  0.00     0.222 HD
ENDBRANCH   8  10
BRANCH   8  12
HETATM   12  O   UNK N   1      22.259  21.154   2.421  0.00  0.00    -0.307 OA
HETATM   13  H   UNK N   1      22.614  22.056   2.418  0.00  0.00     0.222 HD
ENDBRANCH   8  12
ENDBRANCH   7   8
ENDBRANCH   6   7
ENDBRANCH   1   6
BRANCH   3  14
HETATM   14  O   UNK N   1      23.103  17.081   3.552  0.00  0.00    -0.390 OA
HETATM   15  H   UNK N   1      23.193  17.285   2.608  0.00  0.00     0.210 HD
ENDBRANCH   3  14
BRANCH   4  16
HETATM   16  N   UNK N   1      20.477  17.238   7.203  0.00  0.00    -0.331 N 
HETATM   17  C   UNK N   1      19.919  17.907   8.249  0.00  0.00     0.236 C 
HETATM   18  O   UNK N   1      20.261  19.042   8.537  0.00  0.00    -0.272 OA
HETATM   19  H   UNK N   1      20.130  16.335   7.022  0.00  0.00     0.165 HD
BRANCH  17  20
HETATM   20  C   UNK N   1      18.867  17.233   9.064  0.00  0.00     0.214 C 
BRANCH  20  21
HETATM   21  N   UNK N   1      18.028  18.230   9.705  0.00  0.00    -0.422 N 
HETATM   22  H   UNK N   1      17.322  18.155  10.436  0.00  0.00     0.150 HD
HETATM   23  H   UNK N   1      18.172  19.179   9.361  0.00  0.00     0.150 HD
ENDBRANCH  20  21
ENDBRANCH  17  20
ENDBRANCH   4  16
BRANCH   5  24
HETATM   24  O   UNK N   1      22.101  15.352   6.326  0.00  0.00    -0.389 OA
HETATM   25  H   UNK N   1      22.083  14.386   6.238  0.00  0.00     0.210 HD
ENDBRANCH   5  24
TORSDOF 10
ENDMDL
MODEL 6
REMARK VINA RESULT:      -4.9      4.611      5.911
REMARK  10 active torsions:
REMARK  status: ('A' for Active; 'I' for Inactive)
REMARK    1  A    between atoms: C_1  and  C_9 
REMARK    2  A    between atoms: C_3  and  O_8 
REMARK    3  A    between atoms: C_4  and  N_6 
REMARK    4  A    between atoms: C_5  and  O_7 
REMARK       I    between atoms: C_15  and  N_6 
REMARK    5  A    between atoms: C_9  and  O_11 
REMARK    6  A    between atoms: O_11  and  P_10 
REMARK    7  A    between atoms: O_13  and  P_10 
REMARK    8  A    between atoms: O_14  and  P_10 
REMARK    9  A    between atoms: C_17  and  C_15 
REMARK   10  A    between atoms: N_18  and  C_17 
ROOT
HETATM    1  C   UNK N   1      33.941  15.651   9.566  0.00  0.00     0.180 C 
HETATM    2  O   UNK N   1      34.526  15.213   8.370  0.00  0.00    -0.354 OA
HETATM    3  C   UNK N   1      34.425  17.070   9.823  0.00  0.00     0.182 C 
HETATM    4  C   UNK N   1      34.460  16.343   7.535  0.00  0.00     0.255 C 
HETATM    5  C   UNK N   1      34.628  17.581   8.421  0.00  0.00     0.198 C 
ENDROOT
BRANCH   1   6
HETATM    6  C   UNK N   1      34.253  14.696  10.707  0.00  0.00     0.215 C 
BRANCH   6   7
HETATM    7  O   UNK N   1      35.401  13.953  10.413  0.00  0.00    -0.294 OA
BRANCH   7   8
HETATM    8  P   UNK N   1      36.174  13.692  11.951  0.00  0.00     0.390 P 
HETATM    9  O   UNK N   1      36.132  14.984  12.809  0.00  0.00    -0.632 OA
BRANCH   8  10
HETATM   10  O   UNK N   1      34.477  13.954  12.208  0.00  0.00    -0.307 OA
HETATM   11  H   UNK N   1      33.779  13.285  12.142  0.00  0.00     0.222 HD
ENDBRANCH   8  10
BRANCH   8  12
HETATM   12  O   UNK N   1      37.106  14.837  11.031  0.00  0.00    -0.307 OA
HETATM   13  H   UNK N   1      37.028  15.136  10.112  0.00  0.00     0.222 HD
ENDBRANCH   8  12
ENDBRANCH   7   8
ENDBRANCH   6   7
ENDBRANCH   1   6
BRANCH   3  14
HETATM   14  O   UNK N   1      35.670  17.055  10.457  0.00  0.00    -0.390 OA
HETATM   15  H   UNK N   1      36.503  16.637  10.190  0.00  0.00     0.210 HD
ENDBRANCH   3  14
BRANCH   4  16
HETATM   16  N   UNK N   1      33.241  16.390   6.728  0.00  0.00    -0.331 N 
HETATM   17  C   UNK N   1      33.029  17.141   5.611  0.00  0.00     0.236 C 
HETATM   18  O   UNK N   1      33.899  17.862   5.151  0.00  0.00    -0.272 OA
HETATM   19  H   UNK N   1      32.497  15.818   7.022  0.00  0.00     0.165 HD
BRANCH  17  20
HETATM   20  C   UNK N   1      31.699  17.080   4.938  0.00  0.00     0.214 C 
BRANCH  20  21
HETATM   21  N   UNK N   1      31.738  17.848   3.706  0.00  0.00    -0.422 N 
HETATM   22  H   UNK N   1      31.922  17.575   2.741  0.00  0.00     0.150 HD
HETATM   23  H   UNK N   1      31.544  18.842   3.828  0.00  0.00     0.150 HD
ENDBRANCH  20  21
ENDBRANCH  17  20
ENDBRANCH   4  16
BRANCH   5  24
HETATM   24  O   UNK N   1      33.710  18.588   8.112  0.00  0.00    -0.389 OA
HETATM   25  H   UNK N   1      32.821  18.816   7.799  0.00  0.00     0.210 HD
ENDBRANCH   5  24
TORSDOF 10
ENDMDL
MODEL 7
REMARK VINA RESULT:      -4.8      3.807      6.812
REMARK  10 active torsions:
REMARK  status: ('A' for Active; 'I' for Inactive)
REMARK    1  A    between atoms: C_1  and  C_9 
REMARK    2  A    between atoms: C_3  and  O_8 
REMARK    3  A    between atoms: C_4  and  N_6 
REMARK    4  A    between atoms: C_5  and  O_7 
REMARK       I    between atoms: C_15  and  N_6 
REMARK    5  A    between atoms: C_9  and  O_11 
REMARK    6  A    between atoms: O_11  and  P_10 
REMARK    7  A    between atoms: O_13  and  P_10 
REMARK    8  A    between atoms: O_14  and  P_10 
REMARK    9  A    between atoms: C_17  and  C_15 
REMARK   10  A    between atoms: N_18  and  C_17 
ROOT
HETATM    1  C   UNK N   1      31.880  16.870   7.503  0.00  0.00     0.180 C 
HETATM    2  O   UNK N   1      32.416  17.800   8.404  0.00  0.00    -0.354 OA
HETATM    3  C   UNK N   1      32.881  16.696   6.371  0.00  0.00     0.182 C 
HETATM    4  C   UNK N   1      33.779  17.456   8.464  0.00  0.00     0.255 C 
HETATM    5  C   UNK N   1      34.186  16.948   7.078  0.00  0.00     0.198 C 
ENDROOT
BRANCH   1   6
HETATM    6  C   UNK N   1      30.504  17.306   7.025  0.00  0.00     0.215 C 
BRANCH   6   7
HETATM    7  O   UNK N   1      29.514  16.784   7.863  0.00  0.00    -0.294 OA
BRANCH   7   8
HETATM    8  P   UNK N   1      28.734  18.175   8.560  0.00  0.00     0.390 P 
HETATM    9  O   UNK N   1      27.674  17.740   9.606  0.00  0.00    -0.632 OA
BRANCH   8  10
HETATM   10  O   UNK N   1      29.674  17.381   9.785  0.00  0.00    -0.307 OA
HETATM   11  H   UNK N   1      29.991  17.779  10.610  0.00  0.00     0.222 HD
ENDBRANCH   8  10
BRANCH   8  12
HETATM   12  O   UNK N   1      27.572  17.277   7.630  0.00  0.00    -0.307 OA
HETATM   13  H   UNK N   1      27.570  17.001   6.700  0.00  0.00     0.222 HD
ENDBRANCH   8  12
ENDBRANCH   7   8
ENDBRANCH   6   7
ENDBRANCH   1   6
BRANCH   3  14
HETATM   14  O   UNK N   1      32.713  17.697   5.412  0.00  0.00    -0.390 OA
HETATM   15  H   UNK N   1      32.613  18.656   5.519  0.00  0.00     0.210 HD
ENDBRANCH   3  14
BRANCH   4  16
HETATM   16  N   UNK N   1      34.085  16.500   9.527  0.00  0.00    -0.331 N 
HETATM   17  C   UNK N   1      35.104  16.575  10.426  0.00  0.00     0.236 C 
HETATM   18  O   UNK N   1      35.880  17.517  10.434  0.00  0.00    -0.272 OA
HETATM   19  H   UNK N   1      33.489  15.720   9.601  0.00  0.00     0.165 HD
BRANCH  17  20
HETATM   20  C   UNK N   1      35.276  15.478  11.422  0.00  0.00     0.214 C 
BRANCH  20  21
HETATM   21  N   UNK N   1      34.164  14.550  11.328  0.00  0.00    -0.422 N 
HETATM   22  H   UNK N   1      34.020  13.619  11.719  0.00  0.00     0.150 HD
HETATM   23  H   UNK N   1      33.382  14.892  10.768  0.00  0.00     0.150 HD
ENDBRANCH  20  21
ENDBRANCH  17  20
ENDBRANCH   4  16
BRANCH   5  24
HETATM   24  O   UNK N   1      34.960  15.786   7.141  0.00  0.00    -0.389 OA
HETATM   25  H   UNK N   1      34.982  14.824   7.262  0.00  0.00     0.210 HD
ENDBRANCH   5  24
TORSDOF 10
ENDMDL
MODEL 8
REMARK VINA RESULT:      -4.8      6.087      8.554
REMARK  10 active torsions:
REMARK  status: ('A' for Active; 'I' for Inactive)
REMARK    1  A    between atoms: C_1  and  C_9 
REMARK    2  A    between atoms: C_3  and  O_8 
REMARK    3  A    between atoms: C_4  and  N_6 
REMARK    4  A    between atoms: C_5  and  O_7 
REMARK       I    between atoms: C_15  and  N_6 
REMARK    5  A    between atoms: C_9  and  O_11 
REMARK    6  A    between atoms: O_11  and  P_10 
REMARK    7  A    between atoms: O_13  and  P_10 
REMARK    8  A    between atoms: O_14  and  P_10 
REMARK    9  A    between atoms: C_17  and  C_15 
REMARK   10  A    between atoms: N_18  and  C_17 
ROOT
HETATM    1  C   UNK N   1      34.039  14.567   9.350  0.00  0.00     0.180 C 
HETATM    2  O   UNK N   1      35.407  14.566   9.659  0.00  0.00    -0.354 OA
HETATM    3  C   UNK N   1      33.638  13.134   9.038  0.00  0.00     0.182 C 
HETATM    4  C   UNK N   1      35.571  13.405  10.435  0.00  0.00     0.255 C 
HETATM    5  C   UNK N   1      34.591  12.355   9.905  0.00  0.00     0.198 C 
ENDROOT
BRANCH   1   6
HETATM    6  C   UNK N   1      33.738  15.535   8.217  0.00  0.00     0.215 C 
BRANCH   6   7
HETATM    7  O   UNK N   1      34.793  16.440   8.062  0.00  0.00    -0.294 OA
BRANCH   7   8
HETATM    8  P   UNK N   1      34.101  18.000   8.401  0.00  0.00     0.390 P 
HETATM    9  O   UNK N   1      35.183  19.109   8.307  0.00  0.00    -0.632 OA
BRANCH   8  10
HETATM   10  O   UNK N   1      34.593  17.950   6.736  0.00  0.00    -0.307 OA
HETATM   11  H   UNK N   1      34.005  17.970   5.966  0.00  0.00     0.222 HD
ENDBRANCH   8  10
BRANCH   8  12
HETATM   12  O   UNK N   1      35.230  17.592   9.659  0.00  0.00    -0.307 OA
HETATM   13  H   UNK N   1      36.199  17.574   9.669  0.00  0.00     0.222 HD
ENDBRANCH   8  12
ENDBRANCH   7   8
ENDBRANCH   6   7
ENDBRANCH   1   6
BRANCH   3  14
HETATM   14  O   UNK N   1      33.921  12.826   7.705  0.00  0.00    -0.390 OA
HETATM   15  H   UNK N   1      34.087  11.968   7.283  0.00  0.00     0.210 HD
ENDBRANCH   3  14
BRANCH   4  16
HETATM   16  N   UNK N   1      35.417  13.645  11.869  0.00  0.00    -0.331 N 
HETATM   17  C   UNK N   1      36.264  13.251  12.860  0.00  0.00     0.236 C 
HETATM   18  O   UNK N   1      37.297  12.649  12.615  0.00  0.00    -0.272 OA
HETATM   19  H   UNK N   1      34.617  14.146  12.147  0.00  0.00     0.165 HD
BRANCH  17  20
HETATM   20  C   UNK N   1      35.919  13.562  14.277  0.00  0.00     0.214 C 
BRANCH  20  21
HETATM   21  N   UNK N   1      37.112  13.978  14.993  0.00  0.00    -0.422 N 
HETATM   22  H   UNK N   1      37.238  14.547  15.830  0.00  0.00     0.150 HD
HETATM   23  H   UNK N   1      37.983  13.640  14.584  0.00  0.00     0.150 HD
ENDBRANCH  20  21
ENDBRANCH  17  20
ENDBRANCH   4  16
BRANCH   5  24
HETATM   24  O   UNK N   1      33.914  11.690  10.930  0.00  0.00    -0.389 OA
HETATM   25  H   UNK N   1      33.385  11.759  11.740  0.00  0.00     0.210 HD
ENDBRANCH   5  24
TORSDOF 10
ENDMDL
MODEL 9
REMARK VINA RESULT:      -4.8     12.445     13.853
REMARK  10 active torsions:
REMARK  status: ('A' for Active; 'I' for Inactive)
REMARK    1  A    between atoms: C_1  and  C_9 
REMARK    2  A    between atoms: C_3  and  O_8 
REMARK    3  A    between atoms: C_4  and  N_6 
REMARK    4  A    between atoms: C_5  and  O_7 
REMARK       I    between atoms: C_15  and  N_6 
REMARK    5  A    between atoms: C_9  and  O_11 
REMARK    6  A    between atoms: O_11  and  P_10 
REMARK    7  A    between atoms: O_13  and  P_10 
REMARK    8  A    between atoms: O_14  and  P_10 
REMARK    9  A    between atoms: C_17  and  C_15 
REMARK   10  A    between atoms: N_18  and  C_17 
ROOT
HETATM    1  C   UNK N   1      28.992  23.864  -4.923  0.00  0.00     0.180 C 
HETATM    2  O   UNK N   1      28.698  24.126  -6.269  0.00  0.00    -0.354 OA
HETATM    3  C   UNK N   1      28.092  24.751  -4.075  0.00  0.00     0.182 C 
HETATM    4  C   UNK N   1      27.297  24.249  -6.284  0.00  0.00     0.255 C 
HETATM    5  C   UNK N   1      26.875  24.877  -4.953  0.00  0.00     0.198 C 
ENDROOT
BRANCH   1   6
HETATM    6  C   UNK N   1      30.472  24.067  -4.640  0.00  0.00     0.215 C 
BRANCH   6   7
HETATM    7  O   UNK N   1      30.727  23.912  -3.273  0.00  0.00    -0.294 OA
BRANCH   7   8
HETATM    8  P   UNK N   1      30.854  22.194  -3.031  0.00  0.00     0.390 P 
HETATM    9  O   UNK N   1      32.099  21.854  -2.169  0.00  0.00    -0.632 OA
BRANCH   8  10
HETATM   10  O   UNK N   1      30.514  22.956  -1.508  0.00  0.00    -0.307 OA
HETATM   11  H   UNK N   1      29.898  23.689  -1.361  0.00  0.00     0.222 HD
ENDBRANCH   8  10
BRANCH   8  12
HETATM   12  O   UNK N   1      32.194  22.733  -3.999  0.00  0.00    -0.307 OA
HETATM   13  H   UNK N   1      32.302  22.806  -4.960  0.00  0.00     0.222 HD
ENDBRANCH   8  12
ENDBRANCH   7   8
ENDBRANCH   6   7
ENDBRANCH   1   6
BRANCH   3  14
HETATM   14  O   UNK N   1      28.652  26.023  -3.933  0.00  0.00    -0.390 OA
HETATM   15  H   UNK N   1      28.885  26.682  -4.605  0.00  0.00     0.210 HD
ENDBRANCH   3  14
BRANCH   4  16
HETATM   16  N   UNK N   1      26.612  22.985  -6.552  0.00  0.00    -0.331 N 
HETATM   17  C   UNK N   1      25.573  22.784  -7.409  0.00  0.00     0.236 C 
HETATM   18  O   UNK N   1      25.116  23.693  -8.083  0.00  0.00    -0.272 OA
HETATM   19  H   UNK N   1      26.937  22.196  -6.062  0.00  0.00     0.165 HD
BRANCH  17  20
HETATM   20  C   UNK N   1      24.980  21.421  -7.524  0.00  0.00     0.214 C 
BRANCH  20  21
HETATM   21  N   UNK N   1      23.786  21.334  -6.702  0.00  0.00    -0.422 N 
HETATM   22  H   UNK N   1      23.431  20.596  -6.095  0.00  0.00     0.150 HD
HETATM   23  H   UNK N   1      23.194  22.164  -6.739  0.00  0.00     0.150 HD
ENDBRANCH  20  21
ENDBRANCH  17  20
ENDBRANCH   4  16
BRANCH   5  24
HETATM   24  O   UNK N   1      25.773  24.235  -4.384  0.00  0.00    -0.389 OA
HETATM   25  H   UNK N   1      24.886  24.319  -4.000  0.00  0.00     0.210 HD
ENDBRANCH   5  24
TORSDOF 10
ENDMDL
