MODEL 1
REMARK VINA RESULT:      -6.4      0.000      0.000
REMARK  4 active torsions:
REMARK  status: ('A' for Active; 'I' for Inactive)
REMARK    1  A    between atoms: C_14  and  N_11 
REMARK    2  A    between atoms: C_12  and  O_19 
REMARK    3  A    between atoms: C_16  and  C_17 
REMARK    4  A    between atoms: O_18  and  C_17 
ROOT
HETATM    1  N   UNK N   1      20.997  21.014   2.265  0.00  0.00    -0.318 N 
HETATM    2  C   UNK N   1      20.825  20.451   3.505  0.00  0.00     0.185 A 
HETATM    3  N   UNK N   1      20.495  19.129   3.625  0.00  0.00    -0.336 N 
ATOM      4  HN  UNK N   1      20.373  18.701   4.543  1.00  0.00     0.168 HD
HETATM    5  C   UNK N   1      20.333  18.407   2.492  0.00  0.00     0.144 A 
HETATM    6  C   UNK N   1      20.486  18.928   1.262  0.00  0.00     0.146 A 
HETATM    7  C   UNK N   1      20.833  20.264   1.120  0.00  0.00     0.277 A 
HETATM    8  N   UNK N   1      20.270  17.976   0.333  0.00  0.00    -0.345 N 
ATOM      9  HN  UNK N   1      20.309  18.071  -0.682  1.00  0.00     0.167 HD
HETATM   10  C   UNK N   1      19.984  16.855   1.060  0.00  0.00     0.188 A 
HETATM   11  N   UNK N   1      20.025  17.112   2.393  0.00  0.00    -0.300 N 
HETATM   12  O   UNK N   1      20.998  20.763   0.022  0.00  0.00    -0.266 OA
HETATM   13  H   UNK N   1      21.240  21.965   2.192  0.00  0.00     0.169 HD
ENDROOT
BRANCH  11  14
HETATM   14  C   UNK N   1      19.850  16.218   3.530  0.00  0.00     0.233 C 
HETATM   15  C   UNK N   1      19.436  14.810   3.217  0.00  0.00     0.088 C 
HETATM   16  C   UNK N   1      19.131  14.359   4.623  0.00  0.00     0.153 C 
HETATM   17  C   UNK N   1      18.765  15.654   5.347  0.00  0.00     0.176 C 
HETATM   18  O   UNK N   1      18.899  16.709   4.428  0.00  0.00    -0.356 OA
BRANCH  16  19
HETATM   19  O   UNK N   1      18.056  13.474   4.630  0.00  0.00    -0.393 OA
HETATM   20  H   UNK N   1      17.154  13.607   4.297  0.00  0.00     0.210 HD
ENDBRANCH  16  19
BRANCH  17  21
HETATM   21  C   UNK N   1      19.713  15.877   6.521  0.00  0.00     0.198 C 
BRANCH  21  22
HETATM   22  O   UNK N   1      20.057  14.652   7.096  0.00  0.00    -0.398 OA
HETATM   23  H   UNK N   1      20.504  14.508   7.945  0.00  0.00     0.209 HD
ENDBRANCH  21  22
ENDBRANCH  17  21
ENDBRANCH  11  14
TORSDOF 4
ENDMDL
MODEL 2
REMARK VINA RESULT:      -5.9     13.184     14.315
REMARK  4 active torsions:
REMARK  status: ('A' for Active; 'I' for Inactive)
REMARK    1  A    between atoms: C_14  and  N_11 
REMARK    2  A    between atoms: C_12  and  O_19 
REMARK    3  A    between atoms: C_16  and  C_17 
REMARK    4  A    between atoms: O_18  and  C_17 
ROOT
HETATM    1  N   UNK N   1      34.963  14.966  10.982  0.00  0.00    -0.318 N 
HETATM    2  C   UNK N   1      33.650  14.607  10.803  0.00  0.00     0.185 A 
HETATM    3  N   UNK N   1      32.828  15.361  10.012  0.00  0.00    -0.336 N 
ATOM      4  HN  UNK N   1      31.854  15.097   9.867  1.00  0.00     0.168 HD
HETATM    5  C   UNK N   1      33.344  16.468   9.429  0.00  0.00     0.144 A 
HETATM    6  C   UNK N   1      34.623  16.853   9.589  0.00  0.00     0.146 A 
HETATM    7  C   UNK N   1      35.475  16.094  10.377  0.00  0.00     0.277 A 
HETATM    8  N   UNK N   1      34.850  17.981   8.887  0.00  0.00    -0.345 N 
ATOM      9  HN  UNK N   1      35.720  18.510   8.818  1.00  0.00     0.167 HD
HETATM   10  C   UNK N   1      33.652  18.256   8.292  0.00  0.00     0.188 A 
HETATM   11  N   UNK N   1      32.718  17.324   8.619  0.00  0.00    -0.300 N 
HETATM   12  O   UNK N   1      36.643  16.403  10.528  0.00  0.00    -0.266 OA
HETATM   13  H   UNK N   1      35.546  14.412  11.549  0.00  0.00     0.169 HD
ENDROOT
BRANCH  11  14
HETATM   14  C   UNK N   1      31.338  17.179   8.176  0.00  0.00     0.233 C 
HETATM   15  C   UNK N   1      31.125  16.988   6.702  0.00  0.00     0.088 C 
HETATM   16  C   UNK N   1      29.626  17.150   6.681  0.00  0.00     0.153 C 
HETATM   17  C   UNK N   1      29.338  18.029   7.897  0.00  0.00     0.176 C 
HETATM   18  O   UNK N   1      30.564  18.284   8.537  0.00  0.00    -0.356 OA
BRANCH  16  19
HETATM   19  O   UNK N   1      29.219  17.786   5.510  0.00  0.00    -0.393 OA
HETATM   20  H   UNK N   1      28.395  17.676   5.011  0.00  0.00     0.210 HD
ENDBRANCH  16  19
BRANCH  17  21
HETATM   21  C   UNK N   1      28.405  17.299   8.856  0.00  0.00     0.198 C 
BRANCH  21  22
HETATM   22  O   UNK N   1      27.446  18.182   9.356  0.00  0.00    -0.398 OA
HETATM   23  H   UNK N   1      26.488  18.149   9.214  0.00  0.00     0.209 HD
ENDBRANCH  21  22
ENDBRANCH  17  21
ENDBRANCH  11  14
TORSDOF 4
ENDMDL
MODEL 3
REMARK VINA RESULT:      -5.9     18.190     19.948
REMARK  4 active torsions:
REMARK  status: ('A' for Active; 'I' for Inactive)
REMARK    1  A    between atoms: C_14  and  N_11 
REMARK    2  A    between atoms: C_12  and  O_19 
REMARK    3  A    between atoms: C_16  and  C_17 
REMARK    4  A    between atoms: O_18  and  C_17 
ROOT
HETATM    1  N   UNK N   1      36.601  14.418  16.815  0.00  0.00    -0.318 N 
HETATM    2  C   UNK N   1      37.150  15.125  15.773  0.00  0.00     0.185 A 
HETATM    3  N   UNK N   1      36.827  14.815  14.480  0.00  0.00    -0.336 N 
ATOM      4  HN  UNK N   1      37.223  15.340  13.701  1.00  0.00     0.168 HD
HETATM    5  C   UNK N   1      35.967  13.792  14.266  0.00  0.00     0.144 A 
HETATM    6  C   UNK N   1      35.417  13.074  15.262  0.00  0.00     0.146 A 
HETATM    7  C   UNK N   1      35.723  13.381  16.580  0.00  0.00     0.277 A 
HETATM    8  N   UNK N   1      34.602  12.132  14.748  0.00  0.00    -0.345 N 
ATOM      9  HN  UNK N   1      34.052  11.437  15.254  1.00  0.00     0.167 HD
HETATM   10  C   UNK N   1      34.681  12.317  13.397  0.00  0.00     0.188 A 
HETATM   11  N   UNK N   1      35.518  13.342  13.092  0.00  0.00    -0.300 N 
HETATM   12  O   UNK N   1      35.229  12.764  17.506  0.00  0.00    -0.266 OA
HETATM   13  H   UNK N   1      36.836  14.654  17.740  0.00  0.00     0.169 HD
ENDROOT
BRANCH  11  14
HETATM   14  C   UNK N   1      35.857  13.929  11.802  0.00  0.00     0.233 C 
HETATM   15  C   UNK N   1      37.155  13.493  11.189  0.00  0.00     0.088 C 
HETATM   16  C   UNK N   1      37.212  14.501  10.069  0.00  0.00     0.153 C 
HETATM   17  C   UNK N   1      36.396  15.679  10.600  0.00  0.00     0.176 C 
HETATM   18  O   UNK N   1      35.912  15.323  11.871  0.00  0.00    -0.356 OA
BRANCH  16  19
HETATM   19  O   UNK N   1      38.528  14.888   9.824  0.00  0.00    -0.393 OA
HETATM   20  H   UNK N   1      39.227  14.408   9.354  0.00  0.00     0.210 HD
ENDBRANCH  16  19
BRANCH  17  21
HETATM   21  C   UNK N   1      35.223  15.959   9.667  0.00  0.00     0.198 C 
BRANCH  21  22
HETATM   22  O   UNK N   1      34.497  17.059  10.128  0.00  0.00    -0.398 OA
HETATM   23  H   UNK N   1      34.781  17.716  10.783  0.00  0.00     0.209 HD
ENDBRANCH  21  22
ENDBRANCH  17  21
ENDBRANCH  11  14
TORSDOF 4
ENDMDL
MODEL 4
REMARK VINA RESULT:      -5.8      6.204      9.125
REMARK  4 active torsions:
REMARK  status: ('A' for Active; 'I' for Inactive)
REMARK    1  A    between atoms: C_14  and  N_11 
REMARK    2  A    between atoms: C_12  and  O_19 
REMARK    3  A    between atoms: C_16  and  C_17 
REMARK    4  A    between atoms: O_18  and  C_17 
ROOT
HETATM    1  N   UNK N   1      25.116  12.510  11.020  0.00  0.00    -0.318 N 
HETATM    2  C   UNK N   1      24.962  13.131   9.805  0.00  0.00     0.185 A 
HETATM    3  N   UNK N   1      23.712  13.364   9.301  0.00  0.00    -0.336 N 
ATOM      4  HN  UNK N   1      23.588  13.832   8.404  1.00  0.00     0.168 HD
HETATM    5  C   UNK N   1      22.645  12.956  10.028  0.00  0.00     0.144 A 
HETATM    6  C   UNK N   1      22.760  12.338  11.217  0.00  0.00     0.146 A 
HETATM    7  C   UNK N   1      24.019  12.104  11.750  0.00  0.00     0.277 A 
HETATM    8  N   UNK N   1      21.536  12.057  11.705  0.00  0.00    -0.345 N 
ATOM      9  HN  UNK N   1      21.304  11.590  12.582  1.00  0.00     0.167 HD
HETATM   10  C   UNK N   1      20.676  12.538  10.758  0.00  0.00     0.188 A 
HETATM   11  N   UNK N   1      21.354  13.097   9.721  0.00  0.00    -0.300 N 
HETATM   12  O   UNK N   1      24.159  11.565  12.833  0.00  0.00    -0.266 OA
HETATM   13  H   UNK N   1      26.020  12.353  11.375  0.00  0.00     0.169 HD
ENDROOT
BRANCH  11  14
HETATM   14  C   UNK N   1      20.859  13.780   8.533  0.00  0.00     0.233 C 
HETATM   15  C   UNK N   1      21.018  13.054   7.229  0.00  0.00     0.088 C 
HETATM   16  C   UNK N   1      20.641  14.186   6.307  0.00  0.00     0.153 C 
HETATM   17  C   UNK N   1      20.992  15.439   7.109  0.00  0.00     0.176 C 
HETATM   18  O   UNK N   1      21.476  15.021   8.361  0.00  0.00    -0.356 OA
BRANCH  16  19
HETATM   19  O   UNK N   1      21.389  14.131   5.133  0.00  0.00    -0.393 OA
HETATM   20  H   UNK N   1      21.726  13.353   4.662  0.00  0.00     0.210 HD
ENDBRANCH  16  19
BRANCH  17  21
HETATM   21  C   UNK N   1      19.746  16.296   7.303  0.00  0.00     0.198 C 
BRANCH  21  22
HETATM   22  O   UNK N   1      18.719  15.841   6.474  0.00  0.00    -0.398 OA
HETATM   23  H   UNK N   1      17.794  15.684   6.719  0.00  0.00     0.209 HD
ENDBRANCH  21  22
ENDBRANCH  17  21
ENDBRANCH  11  14
TORSDOF 4
ENDMDL
MODEL 5
REMARK VINA RESULT:      -5.6     16.047     17.275
REMARK  4 active torsions:
REMARK  status: ('A' for Active; 'I' for Inactive)
REMARK    1  A    between atoms: C_14  and  N_11 
REMARK    2  A    between atoms: C_12  and  O_19 
REMARK    3  A    between atoms: C_16  and  C_17 
REMARK    4  A    between atoms: O_18  and  C_17 
ROOT
HETATM    1  N   UNK N   1      32.527  14.717   8.187  0.00  0.00    -0.318 N 
HETATM    2  C   UNK N   1      32.880  13.628   8.945  0.00  0.00     0.185 A 
HETATM    3  N   UNK N   1      33.771  13.762   9.974  0.00  0.00    -0.336 N 
ATOM      4  HN  UNK N   1      34.032  12.960  10.548  1.00  0.00     0.168 HD
HETATM    5  C   UNK N   1      34.294  14.987  10.210  0.00  0.00     0.144 A 
HETATM    6  C   UNK N   1      33.977  16.073   9.483  0.00  0.00     0.146 A 
HETATM    7  C   UNK N   1      33.066  15.961   8.442  0.00  0.00     0.277 A 
HETATM    8  N   UNK N   1      34.645  17.146   9.950  0.00  0.00    -0.345 N 
ATOM      9  HN  UNK N   1      34.612  18.104   9.601  1.00  0.00     0.167 HD
HETATM   10  C   UNK N   1      35.376  16.659  10.996  0.00  0.00     0.188 A 
HETATM   11  N   UNK N   1      35.163  15.328  11.165  0.00  0.00    -0.300 N 
HETATM   12  O   UNK N   1      32.741  16.927   7.776  0.00  0.00    -0.266 OA
HETATM   13  H   UNK N   1      31.881  14.610   7.453  0.00  0.00     0.169 HD
ENDROOT
BRANCH  11  14
HETATM   14  C   UNK N   1      35.674  14.414  12.177  0.00  0.00     0.233 C 
HETATM   15  C   UNK N   1      36.785  13.498  11.752  0.00  0.00     0.088 C 
HETATM   16  C   UNK N   1      36.801  12.605  12.966  0.00  0.00     0.153 C 
HETATM   17  C   UNK N   1      35.374  12.697  13.504  0.00  0.00     0.176 C 
HETATM   18  O   UNK N   1      34.665  13.589  12.680  0.00  0.00    -0.356 OA
BRANCH  16  19
HETATM   19  O   UNK N   1      37.104  11.293  12.605  0.00  0.00    -0.393 OA
HETATM   20  H   UNK N   1      37.904  10.947  12.180  0.00  0.00     0.210 HD
ENDBRANCH  16  19
BRANCH  17  21
HETATM   21  C   UNK N   1      35.393  13.229  14.934  0.00  0.00     0.198 C 
BRANCH  21  22
HETATM   22  O   UNK N   1      34.151  13.021  15.537  0.00  0.00    -0.398 OA
HETATM   23  H   UNK N   1      33.734  13.567  16.222  0.00  0.00     0.209 HD
ENDBRANCH  21  22
ENDBRANCH  17  21
ENDBRANCH  11  14
TORSDOF 4
ENDMDL
MODEL 6
REMARK VINA RESULT:      -5.6     14.322     15.402
REMARK  4 active torsions:
REMARK  status: ('A' for Active; 'I' for Inactive)
REMARK    1  A    between atoms: C_14  and  N_11 
REMARK    2  A    between atoms: C_12  and  O_19 
REMARK    3  A    between atoms: C_16  and  C_17 
REMARK    4  A    between atoms: O_18  and  C_17 
ROOT
HETATM    1  N   UNK N   1      35.795  15.108   9.700  0.00  0.00    -0.318 N 
HETATM    2  C   UNK N   1      35.728  14.478   8.482  0.00  0.00     0.185 A 
HETATM    3  N   UNK N   1      35.081  15.069   7.432  0.00  0.00    -0.336 N 
ATOM      4  HN  UNK N   1      35.033  14.612   6.522  1.00  0.00     0.168 HD
HETATM    5  C   UNK N   1      34.505  16.277   7.636  0.00  0.00     0.144 A 
HETATM    6  C   UNK N   1      34.545  16.918   8.817  0.00  0.00     0.146 A 
HETATM    7  C   UNK N   1      35.208  16.341   9.891  0.00  0.00     0.277 A 
HETATM    8  N   UNK N   1      33.896  18.095   8.719  0.00  0.00    -0.345 N 
ATOM      9  HN  UNK N   1      33.756  18.795   9.448  1.00  0.00     0.167 HD
HETATM   10  C   UNK N   1      33.467  18.137   7.423  0.00  0.00     0.188 A 
HETATM   11  N   UNK N   1      33.842  17.020   6.747  0.00  0.00    -0.300 N 
HETATM   12  O   UNK N   1      35.279  16.902  10.968  0.00  0.00    -0.266 OA
HETATM   13  H   UNK N   1      36.269  14.676  10.446  0.00  0.00     0.169 HD
ENDROOT
BRANCH  11  14
HETATM   14  C   UNK N   1      33.661  16.661   5.347  0.00  0.00     0.233 C 
HETATM   15  C   UNK N   1      32.967  17.672   4.481  0.00  0.00     0.088 C 
HETATM   16  C   UNK N   1      32.772  16.810   3.260  0.00  0.00     0.153 C 
HETATM   17  C   UNK N   1      32.739  15.389   3.820  0.00  0.00     0.176 C 
HETATM   18  O   UNK N   1      32.938  15.475   5.210  0.00  0.00    -0.356 OA
BRANCH  16  19
HETATM   19  O   UNK N   1      31.567  17.117   2.632  0.00  0.00    -0.393 OA
HETATM   20  H   UNK N   1      30.905  16.515   2.256  0.00  0.00     0.210 HD
ENDBRANCH  16  19
BRANCH  17  21
HETATM   21  C   UNK N   1      33.856  14.560   3.196  0.00  0.00     0.198 C 
BRANCH  21  22
HETATM   22  O   UNK N   1      34.166  15.054   1.927  0.00  0.00    -0.398 OA
HETATM   23  H   UNK N   1      33.640  14.960   1.117  0.00  0.00     0.209 HD
ENDBRANCH  21  22
ENDBRANCH  17  21
ENDBRANCH  11  14
TORSDOF 4
ENDMDL
MODEL 7
REMARK VINA RESULT:      -5.6     11.677     12.564
REMARK  4 active torsions:
REMARK  status: ('A' for Active; 'I' for Inactive)
REMARK    1  A    between atoms: C_14  and  N_11 
REMARK    2  A    between atoms: C_12  and  O_19 
REMARK    3  A    between atoms: C_16  and  C_17 
REMARK    4  A    between atoms: O_18  and  C_17 
ROOT
HETATM    1  N   UNK N   1      33.780  15.760   4.550  0.00  0.00    -0.318 N 
HETATM    2  C   UNK N   1      32.466  16.062   4.293  0.00  0.00     0.185 A 
HETATM    3  N   UNK N   1      31.680  16.614   5.267  0.00  0.00    -0.336 N 
ATOM      4  HN  UNK N   1      30.705  16.849   5.082  1.00  0.00     0.168 HD
HETATM    5  C   UNK N   1      32.233  16.839   6.481  0.00  0.00     0.144 A 
HETATM    6  C   UNK N   1      33.514  16.549   6.770  0.00  0.00     0.146 A 
HETATM    7  C   UNK N   1      34.331  16.000   5.791  0.00  0.00     0.277 A 
HETATM    8  N   UNK N   1      33.782  16.886   8.046  0.00  0.00    -0.345 N 
ATOM      9  HN  UNK N   1      34.663  16.781   8.550  1.00  0.00     0.167 HD
HETATM   10  C   UNK N   1      32.605  17.398   8.514  0.00  0.00     0.188 A 
HETATM   11  N   UNK N   1      31.645  17.376   7.553  0.00  0.00    -0.300 N 
HETATM   12  O   UNK N   1      35.500  15.742   6.012  0.00  0.00    -0.266 OA
HETATM   13  H   UNK N   1      34.338  15.369   3.840  0.00  0.00     0.169 HD
ENDROOT
BRANCH  11  14
HETATM   14  C   UNK N   1      30.274  17.868   7.580  0.00  0.00     0.233 C 
HETATM   15  C   UNK N   1      29.721  18.235   8.926  0.00  0.00     0.088 C 
HETATM   16  C   UNK N   1      28.280  18.419   8.522  0.00  0.00     0.153 C 
HETATM   17  C   UNK N   1      28.130  17.521   7.294  0.00  0.00     0.176 C 
HETATM   18  O   UNK N   1      29.384  16.939   7.037  0.00  0.00    -0.356 OA
BRANCH  16  19
HETATM   19  O   UNK N   1      27.429  17.999   9.542  0.00  0.00    -0.393 OA
HETATM   20  H   UNK N   1      27.539  17.264  10.164  0.00  0.00     0.210 HD
ENDBRANCH  16  19
BRANCH  17  21
HETATM   21  C   UNK N   1      27.699  18.354   6.093  0.00  0.00     0.198 C 
BRANCH  21  22
HETATM   22  O   UNK N   1      26.825  19.364   6.500  0.00  0.00    -0.398 OA
HETATM   23  H   UNK N   1      26.227  19.349   7.263  0.00  0.00     0.209 HD
ENDBRANCH  21  22
ENDBRANCH  17  21
ENDBRANCH  11  14
TORSDOF 4
ENDMDL
MODEL 8
REMARK VINA RESULT:      -5.6     17.032     18.925
REMARK  4 active torsions:
REMARK  status: ('A' for Active; 'I' for Inactive)
REMARK    1  A    between atoms: C_14  and  N_11 
REMARK    2  A    between atoms: C_12  and  O_19 
REMARK    3  A    between atoms: C_16  and  C_17 
REMARK    4  A    between atoms: O_18  and  C_17 
ROOT
HETATM    1  N   UNK N   1      34.904  10.666  14.740  0.00  0.00    -0.318 N 
HETATM    2  C   UNK N   1      34.276  10.859  13.535  0.00  0.00     0.185 A 
HETATM    3  N   UNK N   1      34.480  12.009  12.824  0.00  0.00    -0.336 N 
ATOM      4  HN  UNK N   1      34.024  12.156  11.924  1.00  0.00     0.168 HD
HETATM    5  C   UNK N   1      35.305  12.945  13.349  0.00  0.00     0.144 A 
HETATM    6  C   UNK N   1      35.930  12.793  14.530  0.00  0.00     0.146 A 
HETATM    7  C   UNK N   1      35.745  11.628  15.260  0.00  0.00     0.277 A 
HETATM    8  N   UNK N   1      36.685  13.879  14.790  0.00  0.00    -0.345 N 
ATOM      9  HN  UNK N   1      37.268  14.055  15.608  1.00  0.00     0.167 HD
HETATM   10  C   UNK N   1      36.490  14.691  13.709  0.00  0.00     0.188 A 
HETATM   11  N   UNK N   1      35.643  14.120  12.814  0.00  0.00    -0.300 N 
HETATM   12  O   UNK N   1      36.310  11.449  16.323  0.00  0.00    -0.266 OA
HETATM   13  H   UNK N   1      34.754   9.832  15.239  0.00  0.00     0.169 HD
ENDROOT
BRANCH  11  14
HETATM   14  C   UNK N   1      35.200  14.587  11.506  0.00  0.00     0.233 C 
HETATM   15  C   UNK N   1      35.620  15.973  11.113  0.00  0.00     0.088 C 
HETATM   16  C   UNK N   1      34.759  16.117   9.884  0.00  0.00     0.153 C 
HETATM   17  C   UNK N   1      33.582  15.180  10.155  0.00  0.00     0.176 C 
HETATM   18  O   UNK N   1      33.808  14.560  11.396  0.00  0.00    -0.356 OA
BRANCH  16  19
HETATM   19  O   UNK N   1      34.317  17.431   9.747  0.00  0.00    -0.393 OA
HETATM   20  H   UNK N   1      33.543  17.767   9.269  0.00  0.00     0.210 HD
ENDBRANCH  16  19
BRANCH  17  21
HETATM   21  C   UNK N   1      33.501  14.120   9.061  0.00  0.00     0.198 C 
BRANCH  21  22
HETATM   22  O   UNK N   1      32.370  13.324   9.250  0.00  0.00    -0.398 OA
HETATM   23  H   UNK N   1      32.308  12.507   9.770  0.00  0.00     0.209 HD
ENDBRANCH  21  22
ENDBRANCH  17  21
ENDBRANCH  11  14
TORSDOF 4
ENDMDL
MODEL 9
REMARK VINA RESULT:      -5.4     12.269     13.523
REMARK  4 active torsions:
REMARK  status: ('A' for Active; 'I' for Inactive)
REMARK    1  A    between atoms: C_14  and  N_11 
REMARK    2  A    between atoms: C_12  and  O_19 
REMARK    3  A    between atoms: C_16  and  C_17 
REMARK    4  A    between atoms: O_18  and  C_17 
ROOT
HETATM    1  N   UNK N   1      33.824  14.205   9.225  0.00  0.00    -0.318 N 
HETATM    2  C   UNK N   1      32.455  14.214   9.115  0.00  0.00     0.185 A 
HETATM    3  N   UNK N   1      31.791  15.380   8.850  0.00  0.00    -0.336 N 
ATOM      4  HN  UNK N   1      30.775  15.395   8.759  1.00  0.00     0.168 HD
HETATM    5  C   UNK N   1      32.520  16.512   8.713  0.00  0.00     0.144 A 
HETATM    6  C   UNK N   1      33.860  16.541   8.822  0.00  0.00     0.146 A 
HETATM    7  C   UNK N   1      34.552  15.366   9.078  0.00  0.00     0.277 A 
HETATM    8  N   UNK N   1      34.306  17.797   8.632  0.00  0.00    -0.345 N 
ATOM      9  HN  UNK N   1      35.271  18.130   8.659  1.00  0.00     0.167 HD
HETATM   10  C   UNK N   1      33.175  18.526   8.399  0.00  0.00     0.188 A 
HETATM   11  N   UNK N   1      32.068  17.739   8.444  0.00  0.00    -0.300 N 
HETATM   12  O   UNK N   1      35.767  15.352   9.164  0.00  0.00    -0.266 OA
HETATM   13  H   UNK N   1      34.291  13.359   9.409  0.00  0.00     0.169 HD
ENDROOT
BRANCH  11  14
HETATM   14  C   UNK N   1      30.670  18.067   8.198  0.00  0.00     0.233 C 
HETATM   15  C   UNK N   1      29.821  18.328   9.408  0.00  0.00     0.088 C 
HETATM   16  C   UNK N   1      28.477  18.352   8.726  0.00  0.00     0.153 C 
HETATM   17  C   UNK N   1      28.683  17.478   7.489  0.00  0.00     0.176 C 
HETATM   18  O   UNK N   1      30.023  17.055   7.485  0.00  0.00    -0.356 OA
BRANCH  16  19
HETATM   19  O   UNK N   1      27.498  17.807   9.553  0.00  0.00    -0.393 OA
HETATM   20  H   UNK N   1      27.568  17.063  10.172  0.00  0.00     0.210 HD
ENDBRANCH  16  19
BRANCH  17  21
HETATM   21  C   UNK N   1      28.400  18.288   6.229  0.00  0.00     0.198 C 
BRANCH  21  22
HETATM   22  O   UNK N   1      27.061  18.683   6.205  0.00  0.00    -0.398 OA
HETATM   23  H   UNK N   1      26.283  18.128   6.368  0.00  0.00     0.209 HD
ENDBRANCH  21  22
ENDBRANCH  17  21
ENDBRANCH  11  14
TORSDOF 4
ENDMDL
