MODEL 1
REMARK VINA RESULT:      -5.4      0.000      0.000
REMARK  8 active torsions:
REMARK  status: ('A' for Active; 'I' for Inactive)
REMARK    1  A    between atoms: N_2  and  C_9 
REMARK    2  A    between atoms: N_2  and  C_11 
REMARK    3  A    between atoms: N_2  and  C_12 
REMARK    4  A    between atoms: N_3  and  C_8 
REMARK    5  A    between atoms: N_3  and  C_13 
REMARK    6  A    between atoms: C_6  and  C_7 
REMARK    7  A    between atoms: C_6  and  C_8 
REMARK    8  A    between atoms: C_7  and  C_9 
ROOT
HETATM    1 Cl   UNK N   1      34.948  13.201  18.097  0.00  0.00    -0.084 Cl
HETATM    2  N   UNK N   1      34.200  11.386  13.375  0.00  0.00    -0.365 N 
ATOM      3  HN  UNK N   1      33.423  10.851  13.762  1.00  0.00     0.165 HD
HETATM    4  C   UNK N   1      36.312  12.835  12.319  0.00  0.00     0.042 A 
HETATM    5  C   UNK N   1      36.019  12.926  13.685  0.00  0.00     0.017 A 
HETATM    6  C   UNK N   1      35.531  12.020  11.496  0.00  0.00     0.047 A 
HETATM    7  C   UNK N   1      34.934  12.180  14.199  0.00  0.00     0.046 A 
HETATM    8  C   UNK N   1      36.754  13.760  14.537  0.00  0.00     0.018 A 
HETATM    9  C   UNK N   1      34.479  11.290  12.046  0.00  0.00     0.090 A 
HETATM   10  C   UNK N   1      34.608  12.273  15.554  0.00  0.00     0.054 A 
HETATM   11  C   UNK N   1      36.422  13.845  15.892  0.00  0.00     0.025 A 
HETATM   12  C   UNK N   1      35.352  13.101  16.398  0.00  0.00     0.036 A 
ENDROOT
BRANCH   4  13
HETATM   13  N   UNK N   1      37.318  13.639  11.749  0.00  0.00    -0.385 N 
HETATM   14  H   UNK N   1      38.196  13.747  12.181  0.00  0.00     0.160 HD
BRANCH  13  15
HETATM   15  C   UNK N   1      37.007  14.293  10.511  0.00  0.00     0.077 C 
HETATM   16  C   UNK N   1      38.011  14.034   9.400  0.00  0.00     0.032 C 
BRANCH  15  17
HETATM   17  C   UNK N   1      36.392  15.677  10.703  0.00  0.00     0.026 C 
BRANCH  17  18
HETATM   18  C   UNK N   1      34.912  15.765  10.388  0.00  0.00     0.032 C 
BRANCH  18  19
HETATM   19  C   UNK N   1      34.497  14.929   9.170  0.00  0.00     0.272 C 
BRANCH  19  20
HETATM   20  N   UNK N   1      33.852  15.750   8.134  0.00  0.00     0.087 N 
BRANCH  20  21
HETATM   21  C   UNK N   1      34.748  15.865   6.976  0.00  0.00     0.268 C 
HETATM   22  C   UNK N   1      35.455  14.550   6.710  0.00  0.00     0.037 C 
ENDBRANCH  20  21
BRANCH  20  23
HETATM   23  C   UNK N   1      33.517  17.037   8.762  0.00  0.00     0.268 C 
HETATM   24  C   UNK N   1      33.999  18.278   8.018  0.00  0.00     0.037 C 
ENDBRANCH  20  23
ENDBRANCH  19  20
ENDBRANCH  18  19
ENDBRANCH  17  18
ENDBRANCH  15  17
ENDBRANCH  13  15
ENDBRANCH   4  13
TORSDOF 8
ENDMDL
MODEL 2
REMARK VINA RESULT:      -5.2     12.608     14.649
REMARK  8 active torsions:
REMARK  status: ('A' for Active; 'I' for Inactive)
REMARK    1  A    between atoms: N_2  and  C_9 
REMARK    2  A    between atoms: N_2  and  C_11 
REMARK    3  A    between atoms: N_2  and  C_12 
REMARK    4  A    between atoms: N_3  and  C_8 
REMARK    5  A    between atoms: N_3  and  C_13 
REMARK    6  A    between atoms: C_6  and  C_7 
REMARK    7  A    between atoms: C_6  and  C_8 
REMARK    8  A    between atoms: C_7  and  C_9 
ROOT
HETATM    1 Cl   UNK N   1      22.939  11.595  12.891  0.00  0.00    -0.084 Cl
HETATM    2  N   UNK N   1      24.522  13.412   8.381  0.00  0.00    -0.365 N 
ATOM      3  HN  UNK N   1      25.470  13.193   8.686  1.00  0.00     0.165 HD
HETATM    4  C   UNK N   1      21.949  14.014   7.548  0.00  0.00     0.042 A 
HETATM    5  C   UNK N   1      22.159  13.458   8.816  0.00  0.00     0.017 A 
HETATM    6  C   UNK N   1      23.039  14.253   6.708  0.00  0.00     0.047 A 
HETATM    7  C   UNK N   1      23.480  13.157   9.216  0.00  0.00     0.046 A 
HETATM    8  C   UNK N   1      21.090  13.168   9.674  0.00  0.00     0.018 A 
HETATM    9  C   UNK N   1      24.328  13.954   7.147  0.00  0.00     0.090 A 
HETATM   10  C   UNK N   1      23.712  12.580  10.467  0.00  0.00     0.054 A 
HETATM   11  C   UNK N   1      21.332  12.594  10.924  0.00  0.00     0.025 A 
HETATM   12  C   UNK N   1      22.641  12.302  11.320  0.00  0.00     0.036 A 
ENDROOT
BRANCH   4  13
HETATM   13  N   UNK N   1      20.643  14.233   7.071  0.00  0.00    -0.385 N 
HETATM   14  H   UNK N   1      20.001  13.493   6.971  0.00  0.00     0.160 HD
BRANCH  13  15
HETATM   15  C   UNK N   1      20.287  15.582   6.738  0.00  0.00     0.077 C 
HETATM   16  C   UNK N   1      20.339  16.547   7.910  0.00  0.00     0.032 C 
BRANCH  15  17
HETATM   17  C   UNK N   1      19.169  15.668   5.701  0.00  0.00     0.026 C 
BRANCH  17  18
HETATM   18  C   UNK N   1      19.571  16.295   4.382  0.00  0.00     0.032 C 
BRANCH  18  19
HETATM   19  C   UNK N   1      21.091  16.380   4.185  0.00  0.00     0.272 C 
BRANCH  19  20
HETATM   20  N   UNK N   1      21.474  17.538   3.364  0.00  0.00     0.087 N 
BRANCH  20  21
HETATM   21  C   UNK N   1      22.716  18.120   3.891  0.00  0.00     0.268 C 
HETATM   22  C   UNK N   1      22.751  18.031   5.405  0.00  0.00     0.037 C 
ENDBRANCH  20  21
BRANCH  20  23
HETATM   23  C   UNK N   1      20.330  18.462   3.373  0.00  0.00     0.268 C 
HETATM   24  C   UNK N   1      20.556  19.799   2.677  0.00  0.00     0.037 C 
ENDBRANCH  20  23
ENDBRANCH  19  20
ENDBRANCH  18  19
ENDBRANCH  17  18
ENDBRANCH  15  17
ENDBRANCH  13  15
ENDBRANCH   4  13
TORSDOF 8
ENDMDL
MODEL 3
REMARK VINA RESULT:      -5.1     17.702     21.102
REMARK  8 active torsions:
REMARK  status: ('A' for Active; 'I' for Inactive)
REMARK    1  A    between atoms: N_2  and  C_9 
REMARK    2  A    between atoms: N_2  and  C_11 
REMARK    3  A    between atoms: N_2  and  C_12 
REMARK    4  A    between atoms: N_3  and  C_8 
REMARK    5  A    between atoms: N_3  and  C_13 
REMARK    6  A    between atoms: C_6  and  C_7 
REMARK    7  A    between atoms: C_6  and  C_8 
REMARK    8  A    between atoms: C_7  and  C_9 
ROOT
HETATM    1 Cl   UNK N   1      25.591  20.936  -9.624  0.00  0.00    -0.084 Cl
HETATM    2  N   UNK N   1      25.361  24.065  -5.586  0.00  0.00    -0.365 N 
ATOM      3  HN  UNK N   1      24.356  24.122  -5.755  1.00  0.00     0.165 HD
HETATM    4  C   UNK N   1      28.088  23.917  -5.122  0.00  0.00     0.042 A 
HETATM    5  C   UNK N   1      27.524  23.217  -6.197  0.00  0.00     0.017 A 
HETATM    6  C   UNK N   1      27.268  24.678  -4.286  0.00  0.00     0.047 A 
HETATM    7  C   UNK N   1      26.130  23.307  -6.410  0.00  0.00     0.046 A 
HETATM    8  C   UNK N   1      28.306  22.413  -7.036  0.00  0.00     0.018 A 
HETATM    9  C   UNK N   1      25.899  24.750  -4.540  0.00  0.00     0.090 A 
HETATM   10  C   UNK N   1      25.543  22.599  -7.462  0.00  0.00     0.054 A 
HETATM   11  C   UNK N   1      27.709  21.711  -8.087  0.00  0.00     0.025 A 
HETATM   12  C   UNK N   1      26.331  21.806  -8.300  0.00  0.00     0.036 A 
ENDROOT
BRANCH   4  13
HETATM   13  N   UNK N   1      29.454  23.773  -4.813  0.00  0.00    -0.385 N 
HETATM   14  H   UNK N   1      30.088  23.383  -5.458  0.00  0.00     0.160 HD
BRANCH  13  15
HETATM   15  C   UNK N   1      29.881  24.220  -3.520  0.00  0.00     0.077 C 
HETATM   16  C   UNK N   1      30.837  25.400  -3.553  0.00  0.00     0.032 C 
BRANCH  15  17
HETATM   17  C   UNK N   1      30.083  23.077  -2.528  0.00  0.00     0.026 C 
BRANCH  17  18
HETATM   18  C   UNK N   1      30.287  21.714  -3.160  0.00  0.00     0.032 C 
BRANCH  18  19
HETATM   19  C   UNK N   1      31.760  21.377  -3.423  0.00  0.00     0.272 C 
BRANCH  19  20
HETATM   20  N   UNK N   1      31.909  20.212  -4.306  0.00  0.00     0.087 N 
BRANCH  20  21
HETATM   21  C   UNK N   1      33.336  19.924  -4.498  0.00  0.00     0.268 C 
HETATM   22  C   UNK N   1      34.178  20.678  -3.487  0.00  0.00     0.037 C 
ENDBRANCH  20  21
BRANCH  20  23
HETATM   23  C   UNK N   1      31.189  20.528  -5.549  0.00  0.00     0.268 C 
HETATM   24  C   UNK N   1      31.916  21.460  -6.512  0.00  0.00     0.037 C 
ENDBRANCH  20  23
ENDBRANCH  19  20
ENDBRANCH  18  19
ENDBRANCH  17  18
ENDBRANCH  15  17
ENDBRANCH  13  15
ENDBRANCH   4  13
TORSDOF 8
ENDMDL
MODEL 4
REMARK VINA RESULT:      -5.0     20.652     22.444
REMARK  8 active torsions:
REMARK  status: ('A' for Active; 'I' for Inactive)
REMARK    1  A    between atoms: N_2  and  C_9 
REMARK    2  A    between atoms: N_2  and  C_11 
REMARK    3  A    between atoms: N_2  and  C_12 
REMARK    4  A    between atoms: N_3  and  C_8 
REMARK    5  A    between atoms: N_3  and  C_13 
REMARK    6  A    between atoms: C_6  and  C_7 
REMARK    7  A    between atoms: C_6  and  C_8 
REMARK    8  A    between atoms: C_7  and  C_9 
ROOT
HETATM    1 Cl   UNK N   1      32.488  29.588  -1.839  0.00  0.00    -0.084 Cl
HETATM    2  N   UNK N   1      27.515  29.959  -2.969  0.00  0.00    -0.365 N 
ATOM      3  HN  UNK N   1      27.542  30.885  -2.543  1.00  0.00     0.165 HD
HETATM    4  C   UNK N   1      27.433  27.443  -4.125  0.00  0.00     0.042 A 
HETATM    5  C   UNK N   1      28.631  27.921  -3.580  0.00  0.00     0.017 A 
HETATM    6  C   UNK N   1      26.288  28.243  -4.089  0.00  0.00     0.047 A 
HETATM    7  C   UNK N   1      28.648  29.209  -3.000  0.00  0.00     0.046 A 
HETATM    8  C   UNK N   1      29.810  27.165  -3.630  0.00  0.00     0.018 A 
HETATM    9  C   UNK N   1      26.345  29.502  -3.494  0.00  0.00     0.090 A 
HETATM   10  C   UNK N   1      29.837  29.716  -2.471  0.00  0.00     0.054 A 
HETATM   11  C   UNK N   1      30.994  27.680  -3.096  0.00  0.00     0.025 A 
HETATM   12  C   UNK N   1      31.007  28.953  -2.517  0.00  0.00     0.036 A 
ENDROOT
BRANCH   4  13
HETATM   13  N   UNK N   1      27.398  26.210  -4.803  0.00  0.00    -0.385 N 
HETATM   14  H   UNK N   1      27.959  26.043  -5.595  0.00  0.00     0.160 HD
BRANCH  13  15
HETATM   15  C   UNK N   1      26.511  25.207  -4.290  0.00  0.00     0.077 C 
HETATM   16  C   UNK N   1      27.159  24.245  -3.308  0.00  0.00     0.032 C 
BRANCH  15  17
HETATM   17  C   UNK N   1      25.506  24.708  -5.326  0.00  0.00     0.026 C 
BRANCH  17  18
HETATM   18  C   UNK N   1      25.741  25.215  -6.735  0.00  0.00     0.032 C 
BRANCH  18  19
HETATM   19  C   UNK N   1      25.842  24.094  -7.778  0.00  0.00     0.272 C 
BRANCH  19  20
HETATM   20  N   UNK N   1      26.428  22.870  -7.213  0.00  0.00     0.087 N 
BRANCH  20  21
HETATM   21  C   UNK N   1      27.860  22.820  -7.538  0.00  0.00     0.268 C 
HETATM   22  C   UNK N   1      28.681  22.516  -6.300  0.00  0.00     0.037 C 
ENDBRANCH  20  21
BRANCH  20  23
HETATM   23  C   UNK N   1      25.653  21.742  -7.753  0.00  0.00     0.268 C 
HETATM   24  C   UNK N   1      24.463  21.297  -6.911  0.00  0.00     0.037 C 
ENDBRANCH  20  23
ENDBRANCH  19  20
ENDBRANCH  18  19
ENDBRANCH  17  18
ENDBRANCH  15  17
ENDBRANCH  13  15
ENDBRANCH   4  13
TORSDOF 8
ENDMDL
MODEL 5
REMARK VINA RESULT:      -5.0     14.333     16.809
REMARK  8 active torsions:
REMARK  status: ('A' for Active; 'I' for Inactive)
REMARK    1  A    between atoms: N_2  and  C_9 
REMARK    2  A    between atoms: N_2  and  C_11 
REMARK    3  A    between atoms: N_2  and  C_12 
REMARK    4  A    between atoms: N_3  and  C_8 
REMARK    5  A    between atoms: N_3  and  C_13 
REMARK    6  A    between atoms: C_6  and  C_7 
REMARK    7  A    between atoms: C_6  and  C_8 
REMARK    8  A    between atoms: C_7  and  C_9 
ROOT
HETATM    1 Cl   UNK N   1      26.734  20.371   3.437  0.00  0.00    -0.084 Cl
HETATM    2  N   UNK N   1      21.749  20.745   2.364  0.00  0.00    -0.365 N 
ATOM      3  HN  UNK N   1      21.988  21.554   1.791  1.00  0.00     0.165 HD
HETATM    4  C   UNK N   1      21.092  18.550   3.920  0.00  0.00     0.042 A 
HETATM    5  C   UNK N   1      22.426  18.969   3.833  0.00  0.00     0.017 A 
HETATM    6  C   UNK N   1      20.103  19.237   3.214  0.00  0.00     0.047 A 
HETATM    7  C   UNK N   1      22.735  20.089   3.030  0.00  0.00     0.046 A 
HETATM    8  C   UNK N   1      23.452  18.284   4.496  0.00  0.00     0.018 A 
HETATM    9  C   UNK N   1      20.449  20.346   2.444  0.00  0.00     0.090 A 
HETATM   10  C   UNK N   1      24.061  20.511   2.909  0.00  0.00     0.054 A 
HETATM   11  C   UNK N   1      24.775  18.715   4.371  0.00  0.00     0.025 A 
HETATM   12  C   UNK N   1      25.078  19.827   3.580  0.00  0.00     0.036 A 
ENDROOT
BRANCH   4  13
HETATM   13  N   UNK N   1      20.756  17.379   4.626  0.00  0.00    -0.385 N 
HETATM   14  H   UNK N   1      21.097  17.210   5.534  0.00  0.00     0.160 HD
BRANCH  13  15
HETATM   15  C   UNK N   1      19.893  16.443   3.965  0.00  0.00     0.077 C 
HETATM   16  C   UNK N   1      18.919  15.733   4.890  0.00  0.00     0.032 C 
BRANCH  15  17
HETATM   17  C   UNK N   1      20.583  15.691   2.829  0.00  0.00     0.026 C 
BRANCH  17  18
HETATM   18  C   UNK N   1      22.025  15.310   3.102  0.00  0.00     0.032 C 
BRANCH  18  19
HETATM   19  C   UNK N   1      22.311  13.817   2.895  0.00  0.00     0.272 C 
BRANCH  19  20
HETATM   20  N   UNK N   1      23.601  13.592   2.228  0.00  0.00     0.087 N 
BRANCH  20  21
HETATM   21  C   UNK N   1      24.654  14.330   2.940  0.00  0.00     0.268 C 
HETATM   22  C   UNK N   1      25.515  15.111   1.967  0.00  0.00     0.037 C 
ENDBRANCH  20  21
BRANCH  20  23
HETATM   23  C   UNK N   1      23.430  14.000   0.825  0.00  0.00     0.268 C 
HETATM   24  C   UNK N   1      23.520  12.878  -0.203  0.00  0.00     0.037 C 
ENDBRANCH  20  23
ENDBRANCH  19  20
ENDBRANCH  18  19
ENDBRANCH  17  18
ENDBRANCH  15  17
ENDBRANCH  13  15
ENDBRANCH   4  13
TORSDOF 8
ENDMDL
MODEL 6
REMARK VINA RESULT:      -4.9     12.658     13.985
REMARK  8 active torsions:
REMARK  status: ('A' for Active; 'I' for Inactive)
REMARK    1  A    between atoms: N_2  and  C_9 
REMARK    2  A    between atoms: N_2  and  C_11 
REMARK    3  A    between atoms: N_2  and  C_12 
REMARK    4  A    between atoms: N_3  and  C_8 
REMARK    5  A    between atoms: N_3  and  C_13 
REMARK    6  A    between atoms: C_6  and  C_7 
REMARK    7  A    between atoms: C_6  and  C_8 
REMARK    8  A    between atoms: C_7  and  C_9 
ROOT
HETATM    1 Cl   UNK N   1      20.774  12.294  11.189  0.00  0.00    -0.084 Cl
HETATM    2  N   UNK N   1      20.264  16.482   8.298  0.00  0.00    -0.365 N 
ATOM      3  HN  UNK N   1      19.493  16.746   8.912  1.00  0.00     0.165 HD
HETATM    4  C   UNK N   1      22.355  15.769   6.627  0.00  0.00     0.042 A 
HETATM    5  C   UNK N   1      21.992  14.928   7.686  0.00  0.00     0.017 A 
HETATM    6  C   UNK N   1      21.666  16.967   6.426  0.00  0.00     0.047 A 
HETATM    7  C   UNK N   1      20.924  15.316   8.526  0.00  0.00     0.046 A 
HETATM    8  C   UNK N   1      22.682  13.736   7.944  0.00  0.00     0.018 A 
HETATM    9  C   UNK N   1      20.609  17.305   7.270  0.00  0.00     0.090 A 
HETATM   10  C   UNK N   1      20.559  14.504   9.603  0.00  0.00     0.054 A 
HETATM   11  C   UNK N   1      22.308  12.930   9.022  0.00  0.00     0.025 A 
HETATM   12  C   UNK N   1      21.247  13.313   9.848  0.00  0.00     0.036 A 
ENDROOT
BRANCH   4  13
HETATM   13  N   UNK N   1      23.477  15.471   5.830  0.00  0.00    -0.385 N 
HETATM   14  H   UNK N   1      24.253  14.988   6.196  0.00  0.00     0.160 HD
BRANCH  13  15
HETATM   15  C   UNK N   1      23.439  15.901   4.463  0.00  0.00     0.077 C 
HETATM   16  C   UNK N   1      22.575  15.036   3.561  0.00  0.00     0.032 C 
BRANCH  15  17
HETATM   17  C   UNK N   1      24.776  16.452   3.971  0.00  0.00     0.026 C 
BRANCH  17  18
HETATM   18  C   UNK N   1      25.530  17.290   4.984  0.00  0.00     0.032 C 
BRANCH  18  19
HETATM   19  C   UNK N   1      26.514  18.279   4.346  0.00  0.00     0.272 C 
BRANCH  19  20
HETATM   20  N   UNK N   1      26.069  19.672   4.498  0.00  0.00     0.087 N 
BRANCH  20  21
HETATM   21  C   UNK N   1      25.764  20.233   3.175  0.00  0.00     0.268 C 
HETATM   22  C   UNK N   1      24.281  20.521   3.043  0.00  0.00     0.037 C 
ENDBRANCH  20  21
BRANCH  20  23
HETATM   23  C   UNK N   1      27.139  20.382   5.216  0.00  0.00     0.268 C 
HETATM   24  C   UNK N   1      26.677  21.460   6.189  0.00  0.00     0.037 C 
ENDBRANCH  20  23
ENDBRANCH  19  20
ENDBRANCH  18  19
ENDBRANCH  17  18
ENDBRANCH  15  17
ENDBRANCH  13  15
ENDBRANCH   4  13
TORSDOF 8
ENDMDL
MODEL 7
REMARK VINA RESULT:      -4.9     19.905     22.290
REMARK  8 active torsions:
REMARK  status: ('A' for Active; 'I' for Inactive)
REMARK    1  A    between atoms: N_2  and  C_9 
REMARK    2  A    between atoms: N_2  and  C_11 
REMARK    3  A    between atoms: N_2  and  C_12 
REMARK    4  A    between atoms: N_3  and  C_8 
REMARK    5  A    between atoms: N_3  and  C_13 
REMARK    6  A    between atoms: C_6  and  C_7 
REMARK    7  A    between atoms: C_6  and  C_8 
REMARK    8  A    between atoms: C_7  and  C_9 
ROOT
HETATM    1 Cl   UNK N   1      24.282  27.280  -5.748  0.00  0.00    -0.084 Cl
HETATM    2  N   UNK N   1      27.371  29.224  -2.166  0.00  0.00    -0.365 N 
ATOM      3  HN  UNK N   1      26.556  29.251  -1.554  1.00  0.00     0.165 HD
HETATM    4  C   UNK N   1      29.589  29.154  -3.824  0.00  0.00     0.042 A 
HETATM    5  C   UNK N   1      28.347  28.721  -4.304  0.00  0.00     0.017 A 
HETATM    6  C   UNK N   1      29.703  29.611  -2.509  0.00  0.00     0.047 A 
HETATM    7  C   UNK N   1      27.232  28.763  -3.437  0.00  0.00     0.046 A 
HETATM    8  C   UNK N   1      28.199  28.222  -5.604  0.00  0.00     0.018 A 
HETATM    9  C   UNK N   1      28.575  29.649  -1.691  0.00  0.00     0.090 A 
HETATM   10  C   UNK N   1      25.987  28.314  -3.886  0.00  0.00     0.054 A 
HETATM   11  C   UNK N   1      26.949  27.777  -6.044  0.00  0.00     0.025 A 
HETATM   12  C   UNK N   1      25.846  27.825  -5.187  0.00  0.00     0.036 A 
ENDROOT
BRANCH   4  13
HETATM   13  N   UNK N   1      30.745  29.033  -4.620  0.00  0.00    -0.385 N 
HETATM   14  H   UNK N   1      30.845  29.537  -5.460  0.00  0.00     0.160 HD
BRANCH  13  15
HETATM   15  C   UNK N   1      31.769  28.145  -4.154  0.00  0.00     0.077 C 
HETATM   16  C   UNK N   1      33.172  28.722  -4.220  0.00  0.00     0.032 C 
BRANCH  15  17
HETATM   17  C   UNK N   1      31.505  26.685  -4.515  0.00  0.00     0.026 C 
BRANCH  17  18
HETATM   18  C   UNK N   1      30.725  25.903  -3.478  0.00  0.00     0.032 C 
BRANCH  18  19
HETATM   19  C   UNK N   1      30.736  24.388  -3.720  0.00  0.00     0.272 C 
BRANCH  19  20
HETATM   20  N   UNK N   1      29.409  23.881  -4.096  0.00  0.00     0.087 N 
BRANCH  20  21
HETATM   21  C   UNK N   1      29.431  23.450  -5.501  0.00  0.00     0.268 C 
HETATM   22  C   UNK N   1      29.731  21.968  -5.603  0.00  0.00     0.037 C 
ENDBRANCH  20  21
BRANCH  20  23
HETATM   23  C   UNK N   1      28.449  24.961  -3.817  0.00  0.00     0.268 C 
HETATM   24  C   UNK N   1      26.979  24.556  -3.831  0.00  0.00     0.037 C 
ENDBRANCH  20  23
ENDBRANCH  19  20
ENDBRANCH  18  19
ENDBRANCH  17  18
ENDBRANCH  15  17
ENDBRANCH  13  15
ENDBRANCH   4  13
TORSDOF 8
ENDMDL
MODEL 8
REMARK VINA RESULT:      -4.9      3.353      7.355
REMARK  8 active torsions:
REMARK  status: ('A' for Active; 'I' for Inactive)
REMARK    1  A    between atoms: N_2  and  C_9 
REMARK    2  A    between atoms: N_2  and  C_11 
REMARK    3  A    between atoms: N_2  and  C_12 
REMARK    4  A    between atoms: N_3  and  C_8 
REMARK    5  A    between atoms: N_3  and  C_13 
REMARK    6  A    between atoms: C_6  and  C_7 
REMARK    7  A    between atoms: C_6  and  C_8 
REMARK    8  A    between atoms: C_7  and  C_9 
ROOT
HETATM    1 Cl   UNK N   1      31.259  16.970   6.046  0.00  0.00    -0.084 Cl
HETATM    2  N   UNK N   1      34.635  17.239   9.878  0.00  0.00    -0.365 N 
ATOM      3  HN  UNK N   1      34.712  18.234   9.668  1.00  0.00     0.165 HD
HETATM    4  C   UNK N   1      34.431  14.536  10.450  0.00  0.00     0.042 A 
HETATM    5  C   UNK N   1      33.685  15.084   9.399  0.00  0.00     0.017 A 
HETATM    6  C   UNK N   1      35.267  15.359  11.209  0.00  0.00     0.047 A 
HETATM    7  C   UNK N   1      33.804  16.466   9.130  0.00  0.00     0.046 A 
HETATM    8  C   UNK N   1      32.808  14.300   8.639  0.00  0.00     0.018 A 
HETATM    9  C   UNK N   1      35.365  16.715  10.900  0.00  0.00     0.090 A 
HETATM   10  C   UNK N   1      33.052  17.039   8.101  0.00  0.00     0.054 A 
HETATM   11  C   UNK N   1      32.062  14.882   7.611  0.00  0.00     0.025 A 
HETATM   12  C   UNK N   1      32.185  16.249   7.342  0.00  0.00     0.036 A 
ENDROOT
BRANCH   4  13
HETATM   13  N   UNK N   1      34.265  13.187  10.817  0.00  0.00    -0.385 N 
HETATM   14  H   UNK N   1      33.402  12.847  11.147  0.00  0.00     0.160 HD
BRANCH  13  15
HETATM   15  C   UNK N   1      35.408  12.330  10.690  0.00  0.00     0.077 C 
HETATM   16  C   UNK N   1      35.976  12.255   9.282  0.00  0.00     0.032 C 
BRANCH  15  17
HETATM   17  C   UNK N   1      35.323  11.084  11.567  0.00  0.00     0.026 C 
BRANCH  17  18
HETATM   18  C   UNK N   1      36.310  11.046  12.717  0.00  0.00     0.032 C 
BRANCH  18  19
HETATM   19  C   UNK N   1      36.548  12.417  13.361  0.00  0.00     0.272 C 
BRANCH  19  20
HETATM   20  N   UNK N   1      36.735  12.316  14.816  0.00  0.00     0.087 N 
BRANCH  20  21
HETATM   21  C   UNK N   1      36.118  11.075  15.302  0.00  0.00     0.268 C 
HETATM   22  C   UNK N   1      36.105  11.039  16.818  0.00  0.00     0.037 C 
ENDBRANCH  20  21
BRANCH  20  23
HETATM   23  C   UNK N   1      36.163  13.538  15.402  0.00  0.00     0.268 C 
HETATM   24  C   UNK N   1      37.133  14.701  15.578  0.00  0.00     0.037 C 
ENDBRANCH  20  23
ENDBRANCH  19  20
ENDBRANCH  18  19
ENDBRANCH  17  18
ENDBRANCH  15  17
ENDBRANCH  13  15
ENDBRANCH   4  13
TORSDOF 8
ENDMDL
MODEL 9
REMARK VINA RESULT:      -4.9      1.733      2.685
REMARK  8 active torsions:
REMARK  status: ('A' for Active; 'I' for Inactive)
REMARK    1  A    between atoms: N_2  and  C_9 
REMARK    2  A    between atoms: N_2  and  C_11 
REMARK    3  A    between atoms: N_2  and  C_12 
REMARK    4  A    between atoms: N_3  and  C_8 
REMARK    5  A    between atoms: N_3  and  C_13 
REMARK    6  A    between atoms: C_6  and  C_7 
REMARK    7  A    between atoms: C_6  and  C_8 
REMARK    8  A    between atoms: C_7  and  C_9 
ROOT
HETATM    1 Cl   UNK N   1      35.395  12.286  19.834  0.00  0.00    -0.084 Cl
HETATM    2  N   UNK N   1      35.512   9.443  15.585  0.00  0.00    -0.365 N 
ATOM      3  HN  UNK N   1      35.750   8.653  16.184  1.00  0.00     0.165 HD
HETATM    4  C   UNK N   1      34.866  11.585  13.951  0.00  0.00     0.042 A 
HETATM    5  C   UNK N   1      35.000  11.777  15.332  0.00  0.00     0.017 A 
HETATM    6  C   UNK N   1      35.051  10.311  13.408  0.00  0.00     0.047 A 
HETATM    7  C   UNK N   1      35.326  10.668  16.144  0.00  0.00     0.046 A 
HETATM    8  C   UNK N   1      34.786  13.030  15.919  0.00  0.00     0.018 A 
HETATM    9  C   UNK N   1      35.386   9.246  14.243  0.00  0.00     0.090 A 
HETATM   10  C   UNK N   1      35.441  10.830  17.526  0.00  0.00     0.054 A 
HETATM   11  C   UNK N   1      34.905  13.183  17.303  0.00  0.00     0.025 A 
HETATM   12  C   UNK N   1      35.234  12.086  18.104  0.00  0.00     0.036 A 
ENDROOT
BRANCH   4  13
HETATM   13  N   UNK N   1      34.443  12.639  13.120  0.00  0.00    -0.385 N 
HETATM   14  H   UNK N   1      33.511  12.958  13.129  0.00  0.00     0.160 HD
BRANCH  13  15
HETATM   15  C   UNK N   1      35.427  13.230  12.261  0.00  0.00     0.077 C 
HETATM   16  C   UNK N   1      36.190  14.384  12.889  0.00  0.00     0.032 C 
BRANCH  15  17
HETATM   17  C   UNK N   1      34.992  13.284  10.798  0.00  0.00     0.026 C 
BRANCH  17  18
HETATM   18  C   UNK N   1      34.494  14.638  10.332  0.00  0.00     0.032 C 
BRANCH  18  19
HETATM   19  C   UNK N   1      35.021  15.038   8.948  0.00  0.00     0.272 C 
BRANCH  19  20
HETATM   20  N   UNK N   1      33.975  15.649   8.117  0.00  0.00     0.087 N 
BRANCH  20  21
HETATM   21  C   UNK N   1      33.522  16.898   8.744  0.00  0.00     0.268 C 
HETATM   22  C   UNK N   1      34.401  18.060   8.324  0.00  0.00     0.037 C 
ENDBRANCH  20  21
BRANCH  20  23
HETATM   23  C   UNK N   1      32.916  14.641   7.959  0.00  0.00     0.268 C 
HETATM   24  C   UNK N   1      31.847  14.964   6.921  0.00  0.00     0.037 C 
ENDBRANCH  20  23
ENDBRANCH  19  20
ENDBRANCH  18  19
ENDBRANCH  17  18
ENDBRANCH  15  17
ENDBRANCH  13  15
ENDBRANCH   4  13
TORSDOF 8
ENDMDL
