REMARK  8 active torsions:
REMARK  status: ('A' for Active; 'I' for Inactive)
REMARK    1  A    between atoms: C_1  and  O_28 
REMARK    2  A    between atoms: C_12  and  C_13 
REMARK    3  A    between atoms: C_13  and  C_14 
REMARK    4  A    between atoms: C_14  and  C_15 
REMARK    5  A    between atoms: C_15  and  C_16 
REMARK    6  A    between atoms: C_16  and  C_17 
REMARK    7  A    between atoms: O_28  and  S_29 
REMARK    8  A    between atoms: S_29  and  O_32 
ROOT
HETATM    1  C   UNK N   1      -3.142  -3.669  -0.949  0.00  0.00     0.148 C 
HETATM    2  C   UNK N   1      -3.230  -2.183  -0.566  0.00  0.00     0.035 C 
HETATM    3  C   UNK N   1      -1.917  -1.569  -0.081  0.00  0.00     0.016 C 
HETATM    4  C   UNK N   1      -2.041  -4.506  -0.273  0.00  0.00     0.068 C 
HETATM    5  C   UNK N   1      -0.745  -3.757  -0.120  0.00  0.00    -0.072 C 
HETATM    6  C   UNK N   1       0.304  -4.411   0.421  0.00  0.00    -0.023 C 
HETATM    7  C   UNK N   1       1.664  -3.786   0.635  0.00  0.00     0.033 C 
HETATM    8  C   UNK N   1       1.848  -2.436  -0.071  0.00  0.00    -0.001 C 
HETATM    9  C   UNK N   1       3.020  -1.653   0.557  0.00  0.00    -0.001 C 
HETATM   10  C   UNK N   1       4.418  -2.247   0.481  0.00  0.00     0.006 C 
HETATM   11  C   UNK N   1       5.341  -1.039   0.735  0.00  0.00     0.006 C 
HETATM   12  C   UNK N   1       4.436   0.203   0.650  0.00  0.00    -0.002 C 
HETATM   13  C   UNK N   1       3.191  -0.282  -0.090  0.00  0.00    -0.036 C 
HETATM   14  C   UNK N   1       3.450  -0.380  -1.604  0.00  0.00     0.016 C 
HETATM   15  C   UNK N   1       1.934   0.543   0.171  0.00  0.00     0.010 C 
HETATM   16  C   UNK N   1       0.714  -0.158  -0.426  0.00  0.00     0.007 C 
HETATM   17  C   UNK N   1       0.558  -1.597   0.112  0.00  0.00     0.003 C 
HETATM   18  C   UNK N   1      -0.652  -2.302  -0.546  0.00  0.00    -0.017 C 
HETATM   19  C   UNK N   1      -0.559  -2.249  -2.074  0.00  0.00     0.020 C 
ENDROOT
BRANCH  12  20
HETATM   20  C   UNK N   1       5.148   1.494   0.177  0.00  0.00    -0.014 C 
HETATM   21  C   UNK N   1       5.946   1.285  -1.100  0.00  0.00     0.010 C 
BRANCH  20  22
HETATM   22  C   UNK N   1       4.190   2.665  -0.034  0.00  0.00     0.005 C 
BRANCH  22  23
HETATM   23  C   UNK N   1       3.531   3.120   1.259  0.00  0.00     0.001 C 
BRANCH  23  24
HETATM   24  C   UNK N   1       2.109   3.600   0.980  0.00  0.00     0.004 C 
BRANCH  24  25
HETATM   25  C   UNK N   1       2.029   5.080   0.627  0.00  0.00    -0.023 C 
HETATM   26  C   UNK N   1       0.571   5.484   0.552  0.00  0.00     0.009 C 
HETATM   27  C   UNK N   1       2.680   5.367  -0.713  0.00  0.00     0.009 C 
ENDBRANCH  24  25
ENDBRANCH  23  24
ENDBRANCH  22  23
ENDBRANCH  20  22
ENDBRANCH  12  20
BRANCH   1  28
HETATM   28  O   UNK N   1      -4.406  -4.292  -0.916  0.00  0.00    -0.258 OA
BRANCH  28  29
HETATM   29  S   UNK N   1      -4.919  -4.426   0.737  0.00  0.00     0.240 S 
HETATM   30  O   UNK N   1      -6.118  -5.367   0.922  0.00  0.00    -0.579 OA
HETATM   31  O   UNK N   1      -5.257  -3.095   1.428  0.00  0.00    -0.579 OA
BRANCH  29  32
HETATM   32  O   UNK N   1      -6.163  -3.712  -0.208  0.00  0.00    -0.274 OA
HETATM   33  H   UNK N   1      -6.165  -2.902  -0.742  0.00  0.00     0.234 HD
ENDBRANCH  29  32
ENDBRANCH  28  29
ENDBRANCH   1  28
TORSDOF 8
