MODEL 1
REMARK VINA RESULT:      -8.4      0.000      0.000
REMARK  8 active torsions:
REMARK  status: ('A' for Active; 'I' for Inactive)
REMARK    1  A    between atoms: C_1  and  O_28 
REMARK    2  A    between atoms: C_12  and  C_13 
REMARK    3  A    between atoms: C_13  and  C_14 
REMARK    4  A    between atoms: C_14  and  C_15 
REMARK    5  A    between atoms: C_15  and  C_16 
REMARK    6  A    between atoms: C_16  and  C_17 
REMARK    7  A    between atoms: O_28  and  S_29 
REMARK    8  A    between atoms: S_29  and  O_32 
ROOT
HETATM    1  C   UNK N   1      35.219  15.348   8.844  0.00  0.00     0.148 C 
HETATM    2  C   UNK N   1      34.907  16.130  10.131  0.00  0.00     0.035 C 
HETATM    3  C   UNK N   1      34.697  15.262  11.371  0.00  0.00     0.016 C 
HETATM    4  C   UNK N   1      34.705  13.900   8.759  0.00  0.00     0.068 C 
HETATM    5  C   UNK N   1      34.825  13.156  10.062  0.00  0.00    -0.072 C 
HETATM    6  C   UNK N   1      34.444  11.862  10.089  0.00  0.00    -0.023 C 
HETATM    7  C   UNK N   1      34.509  10.994  11.325  0.00  0.00     0.033 C 
HETATM    8  C   UNK N   1      35.309  11.612  12.480  0.00  0.00    -0.001 C 
HETATM    9  C   UNK N   1      34.942  10.932  13.816  0.00  0.00    -0.001 C 
HETATM   10  C   UNK N   1      35.233   9.448  13.983  0.00  0.00     0.006 C 
HETATM   11  C   UNK N   1      35.212   9.243  15.511  0.00  0.00     0.006 C 
HETATM   12  C   UNK N   1      35.202  10.656  16.122  0.00  0.00    -0.002 C 
HETATM   13  C   UNK N   1      35.682  11.564  14.991  0.00  0.00    -0.036 C 
HETATM   14  C   UNK N   1      37.211  11.484  14.828  0.00  0.00     0.016 C 
HETATM   15  C   UNK N   1      35.247  13.021  15.117  0.00  0.00     0.010 C 
HETATM   16  C   UNK N   1      35.579  13.780  13.832  0.00  0.00     0.007 C 
HETATM   17  C   UNK N   1      34.945  13.114  12.592  0.00  0.00     0.003 C 
HETATM   18  C   UNK N   1      35.339  13.870  11.300  0.00  0.00    -0.017 C 
HETATM   19  C   UNK N   1      36.860  14.010  11.183  0.00  0.00     0.020 C 
ENDROOT
BRANCH  12  20
HETATM   20  C   UNK N   1      35.863  10.765  17.517  0.00  0.00    -0.014 C 
HETATM   21  C   UNK N   1      35.345  11.949  18.317  0.00  0.00     0.010 C 
BRANCH  20  22
HETATM   22  C   UNK N   1      35.700   9.500  18.359  0.00  0.00     0.005 C 
BRANCH  22  23
HETATM   23  C   UNK N   1      34.692   9.674  19.484  0.00  0.00     0.001 C 
BRANCH  23  24
HETATM   24  C   UNK N   1      33.429   8.871  19.183  0.00  0.00     0.004 C 
BRANCH  24  25
HETATM   25  C   UNK N   1      32.616   8.534  20.426  0.00  0.00    -0.023 C 
HETATM   26  C   UNK N   1      31.172   8.319  20.020  0.00  0.00     0.009 C 
HETATM   27  C   UNK N   1      32.670   9.656  21.446  0.00  0.00     0.009 C 
ENDBRANCH  24  25
ENDBRANCH  23  24
ENDBRANCH  22  23
ENDBRANCH  20  22
ENDBRANCH  12  20
BRANCH   1  28
HETATM   28  O   UNK N   1      34.928  16.105   7.691  0.00  0.00    -0.258 OA
BRANCH  28  29
HETATM   29  S   UNK N   1      34.221  17.613   8.177  0.00  0.00     0.240 S 
HETATM   30  O   UNK N   1      32.861  17.882   7.517  0.00  0.00    -0.579 OA
HETATM   31  O   UNK N   1      35.102  18.853   7.954  0.00  0.00    -0.579 OA
BRANCH  29  32
HETATM   32  O   UNK N   1      34.568  17.642   6.495  0.00  0.00    -0.274 OA
HETATM   33  H   UNK N   1      34.882  18.364   5.927  0.00  0.00     0.234 HD
ENDBRANCH  29  32
ENDBRANCH  28  29
ENDBRANCH   1  28
TORSDOF 8
ENDMDL
MODEL 2
REMARK VINA RESULT:      -8.0     19.331     23.011
REMARK  8 active torsions:
REMARK  status: ('A' for Active; 'I' for Inactive)
REMARK    1  A    between atoms: C_1  and  O_28 
REMARK    2  A    between atoms: C_12  and  C_13 
REMARK    3  A    between atoms: C_13  and  C_14 
REMARK    4  A    between atoms: C_14  and  C_15 
REMARK    5  A    between atoms: C_15  and  C_16 
REMARK    6  A    between atoms: C_16  and  C_17 
REMARK    7  A    between atoms: O_28  and  S_29 
REMARK    8  A    between atoms: S_29  and  O_32 
ROOT
HETATM    1  C   UNK N   1      34.830  19.898  -5.022  0.00  0.00     0.148 C 
HETATM    2  C   UNK N   1      33.876  19.446  -6.139  0.00  0.00     0.035 C 
HETATM    3  C   UNK N   1      32.458  20.008  -6.035  0.00  0.00     0.016 C 
HETATM    4  C   UNK N   1      34.199  20.297  -3.676  0.00  0.00     0.068 C 
HETATM    5  C   UNK N   1      32.915  21.064  -3.835  0.00  0.00    -0.072 C 
HETATM    6  C   UNK N   1      32.298  21.503  -2.718  0.00  0.00    -0.023 C 
HETATM    7  C   UNK N   1      31.003  22.285  -2.725  0.00  0.00     0.033 C 
HETATM    8  C   UNK N   1      30.587  22.790  -4.113  0.00  0.00    -0.001 C 
HETATM    9  C   UNK N   1      29.084  23.138  -4.134  0.00  0.00    -0.001 C 
HETATM   10  C   UNK N   1      28.580  24.248  -3.225  0.00  0.00     0.006 C 
HETATM   11  C   UNK N   1      27.224  24.638  -3.845  0.00  0.00     0.006 C 
HETATM   12  C   UNK N   1      27.175  23.939  -5.216  0.00  0.00    -0.002 C 
HETATM   13  C   UNK N   1      28.631  23.591  -5.518  0.00  0.00    -0.036 C 
HETATM   14  C   UNK N   1      29.405  24.827  -6.010  0.00  0.00     0.016 C 
HETATM   15  C   UNK N   1      28.818  22.436  -6.498  0.00  0.00     0.010 C 
HETATM   16  C   UNK N   1      30.290  22.025  -6.548  0.00  0.00     0.007 C 
HETATM   17  C   UNK N   1      30.833  21.663  -5.149  0.00  0.00     0.003 C 
HETATM   18  C   UNK N   1      32.336  21.302  -5.219  0.00  0.00    -0.017 C 
HETATM   19  C   UNK N   1      33.141  22.415  -5.896  0.00  0.00     0.020 C 
ENDROOT
BRANCH  12  20
HETATM   20  C   UNK N   1      26.329  24.670  -6.287  0.00  0.00    -0.014 C 
HETATM   21  C   UNK N   1      25.728  23.715  -7.306  0.00  0.00     0.010 C 
BRANCH  20  22
HETATM   22  C   UNK N   1      25.204  25.514  -5.691  0.00  0.00     0.005 C 
BRANCH  22  23
HETATM   23  C   UNK N   1      25.229  26.952  -6.186  0.00  0.00     0.001 C 
BRANCH  23  24
HETATM   24  C   UNK N   1      26.665  27.469  -6.220  0.00  0.00     0.004 C 
BRANCH  24  25
HETATM   25  C   UNK N   1      26.970  28.478  -5.119  0.00  0.00    -0.023 C 
HETATM   26  C   UNK N   1      28.275  28.092  -4.454  0.00  0.00     0.009 C 
HETATM   27  C   UNK N   1      25.878  28.498  -4.066  0.00  0.00     0.009 C 
ENDBRANCH  24  25
ENDBRANCH  23  24
ENDBRANCH  22  23
ENDBRANCH  20  22
ENDBRANCH  12  20
BRANCH   1  28
HETATM   28  O   UNK N   1      35.920  19.016  -4.880  0.00  0.00    -0.258 OA
BRANCH  28  29
HETATM   29  S   UNK N   1      35.334  17.384  -4.976  0.00  0.00     0.240 S 
HETATM   30  O   UNK N   1      35.248  16.693  -3.607  0.00  0.00    -0.579 OA
HETATM   31  O   UNK N   1      36.122  16.460  -5.919  0.00  0.00    -0.579 OA
BRANCH  29  32
HETATM   32  O   UNK N   1      36.952  17.394  -4.397  0.00  0.00    -0.274 OA
HETATM   33  H   UNK N   1      37.628  16.699  -4.400  0.00  0.00     0.234 HD
ENDBRANCH  29  32
ENDBRANCH  28  29
ENDBRANCH   1  28
TORSDOF 8
ENDMDL
MODEL 3
REMARK VINA RESULT:      -8.0      2.724      5.022
REMARK  8 active torsions:
REMARK  status: ('A' for Active; 'I' for Inactive)
REMARK    1  A    between atoms: C_1  and  O_28 
REMARK    2  A    between atoms: C_12  and  C_13 
REMARK    3  A    between atoms: C_13  and  C_14 
REMARK    4  A    between atoms: C_14  and  C_15 
REMARK    5  A    between atoms: C_15  and  C_16 
REMARK    6  A    between atoms: C_16  and  C_17 
REMARK    7  A    between atoms: O_28  and  S_29 
REMARK    8  A    between atoms: S_29  and  O_32 
ROOT
HETATM    1  C   UNK N   1      36.446  12.996  12.852  0.00  0.00     0.148 C 
HETATM    2  C   UNK N   1      37.385  11.793  13.037  0.00  0.00     0.035 C 
HETATM    3  C   UNK N   1      37.398  11.203  14.447  0.00  0.00     0.016 C 
HETATM    4  C   UNK N   1      36.127  13.838  14.101  0.00  0.00     0.068 C 
HETATM    5  C   UNK N   1      35.941  13.004  15.339  0.00  0.00    -0.072 C 
HETATM    6  C   UNK N   1      35.614  13.636  16.486  0.00  0.00    -0.023 C 
HETATM    7  C   UNK N   1      35.396  12.928  17.803  0.00  0.00     0.033 C 
HETATM    8  C   UNK N   1      35.296  11.401  17.682  0.00  0.00    -0.001 C 
HETATM    9  C   UNK N   1      35.555  10.732  19.048  0.00  0.00    -0.001 C 
HETATM   10  C   UNK N   1      34.603  11.025  20.197  0.00  0.00     0.006 C 
HETATM   11  C   UNK N   1      34.855   9.868  21.183  0.00  0.00     0.006 C 
HETATM   12  C   UNK N   1      35.710   8.844  20.415  0.00  0.00    -0.002 C 
HETATM   13  C   UNK N   1      35.516   9.211  18.945  0.00  0.00    -0.036 C 
HETATM   14  C   UNK N   1      34.163   8.697  18.421  0.00  0.00     0.016 C 
HETATM   15  C   UNK N   1      36.641   8.753  18.021  0.00  0.00     0.010 C 
HETATM   16  C   UNK N   1      36.461   9.366  16.633  0.00  0.00     0.007 C 
HETATM   17  C   UNK N   1      36.380  10.907  16.692  0.00  0.00     0.003 C 
HETATM   18  C   UNK N   1      36.146  11.500  15.282  0.00  0.00    -0.017 C 
HETATM   19  C   UNK N   1      34.920  10.869  14.613  0.00  0.00     0.020 C 
ENDROOT
BRANCH  12  20
HETATM   20  C   UNK N   1      35.522   7.374  20.864  0.00  0.00    -0.014 C 
HETATM   21  C   UNK N   1      36.837   6.704  21.229  0.00  0.00     0.010 C 
BRANCH  20  22
HETATM   22  C   UNK N   1      34.557   7.224  22.039  0.00  0.00     0.005 C 
BRANCH  22  23
HETATM   23  C   UNK N   1      33.338   6.385  21.689  0.00  0.00     0.001 C 
BRANCH  23  24
HETATM   24  C   UNK N   1      32.062   7.159  22.010  0.00  0.00     0.004 C 
BRANCH  24  25
HETATM   25  C   UNK N   1      31.145   7.337  20.806  0.00  0.00    -0.023 C 
HETATM   26  C   UNK N   1      31.586   6.385  19.713  0.00  0.00     0.009 C 
HETATM   27  C   UNK N   1      31.205   8.754  20.267  0.00  0.00     0.009 C 
ENDBRANCH  24  25
ENDBRANCH  23  24
ENDBRANCH  22  23
ENDBRANCH  20  22
ENDBRANCH  12  20
BRANCH   1  28
HETATM   28  O   UNK N   1      36.814  13.779  11.739  0.00  0.00    -0.258 OA
BRANCH  28  29
HETATM   29  S   UNK N   1      35.848  15.221  11.728  0.00  0.00     0.240 S 
HETATM   30  O   UNK N   1      34.402  14.975  11.272  0.00  0.00    -0.579 OA
HETATM   31  O   UNK N   1      36.412  16.381  10.891  0.00  0.00    -0.579 OA
BRANCH  29  32
HETATM   32  O   UNK N   1      36.009  14.610  10.131  0.00  0.00    -0.274 OA
HETATM   33  H   UNK N   1      35.977  15.063   9.274  0.00  0.00     0.234 HD
ENDBRANCH  29  32
ENDBRANCH  28  29
ENDBRANCH   1  28
TORSDOF 8
ENDMDL
MODEL 4
REMARK VINA RESULT:      -7.9      6.570     10.365
REMARK  8 active torsions:
REMARK  status: ('A' for Active; 'I' for Inactive)
REMARK    1  A    between atoms: C_1  and  O_28 
REMARK    2  A    between atoms: C_12  and  C_13 
REMARK    3  A    between atoms: C_13  and  C_14 
REMARK    4  A    between atoms: C_14  and  C_15 
REMARK    5  A    between atoms: C_15  and  C_16 
REMARK    6  A    between atoms: C_16  and  C_17 
REMARK    7  A    between atoms: O_28  and  S_29 
REMARK    8  A    between atoms: S_29  and  O_32 
ROOT
HETATM    1  C   UNK N   1      35.179   9.919  20.570  0.00  0.00     0.148 C 
HETATM    2  C   UNK N   1      34.380   9.040  19.595  0.00  0.00     0.035 C 
HETATM    3  C   UNK N   1      34.210   9.629  18.195  0.00  0.00     0.016 C 
HETATM    4  C   UNK N   1      35.181  11.436  20.309  0.00  0.00     0.068 C 
HETATM    5  C   UNK N   1      35.265  11.780  18.846  0.00  0.00    -0.072 C 
HETATM    6  C   UNK N   1      35.319  13.084  18.504  0.00  0.00    -0.023 C 
HETATM    7  C   UNK N   1      35.405  13.575  17.077  0.00  0.00     0.033 C 
HETATM    8  C   UNK N   1      35.714  12.473  16.055  0.00  0.00    -0.001 C 
HETATM    9  C   UNK N   1      35.319  12.927  14.634  0.00  0.00    -0.001 C 
HETATM   10  C   UNK N   1      36.027  14.130  14.031  0.00  0.00     0.006 C 
HETATM   11  C   UNK N   1      35.763  13.987  12.519  0.00  0.00     0.006 C 
HETATM   12  C   UNK N   1      35.180  12.575  12.329  0.00  0.00    -0.002 C 
HETATM   13  C   UNK N   1      35.565  11.828  13.605  0.00  0.00    -0.036 C 
HETATM   14  C   UNK N   1      37.039  11.386  13.564  0.00  0.00     0.016 C 
HETATM   15  C   UNK N   1      34.673  10.636  13.938  0.00  0.00     0.010 C 
HETATM   16  C   UNK N   1      34.999  10.112  15.336  0.00  0.00     0.007 C 
HETATM   17  C   UNK N   1      34.876  11.217  16.407  0.00  0.00     0.003 C 
HETATM   18  C   UNK N   1      35.262  10.675  17.804  0.00  0.00    -0.017 C 
HETATM   19  C   UNK N   1      36.649  10.026  17.781  0.00  0.00     0.020 C 
ENDROOT
BRANCH  12  20
HETATM   20  C   UNK N   1      35.474  11.931  10.952  0.00  0.00    -0.014 C 
HETATM   21  C   UNK N   1      34.224  11.375  10.290  0.00  0.00     0.010 C 
BRANCH  20  22
HETATM   22  C   UNK N   1      36.158  12.887   9.976  0.00  0.00     0.005 C 
BRANCH  22  23
HETATM   23  C   UNK N   1      35.247  13.302   8.832  0.00  0.00     0.001 C 
BRANCH  23  24
HETATM   24  C   UNK N   1      35.500  14.763   8.466  0.00  0.00     0.004 C 
BRANCH  24  25
HETATM   25  C   UNK N   1      34.399  15.704   8.936  0.00  0.00    -0.023 C 
HETATM   26  C   UNK N   1      34.938  16.559  10.064  0.00  0.00     0.009 C 
HETATM   27  C   UNK N   1      33.193  14.937   9.445  0.00  0.00     0.009 C 
ENDBRANCH  24  25
ENDBRANCH  23  24
ENDBRANCH  22  23
ENDBRANCH  20  22
ENDBRANCH  12  20
BRANCH   1  28
HETATM   28  O   UNK N   1      34.903   9.592  21.914  0.00  0.00    -0.258 OA
BRANCH  28  29
HETATM   29  S   UNK N   1      33.184   9.454  22.112  0.00  0.00     0.240 S 
HETATM   30  O   UNK N   1      32.465  10.810  22.111  0.00  0.00    -0.579 OA
HETATM   31  O   UNK N   1      32.729   8.684  23.363  0.00  0.00    -0.579 OA
BRANCH  29  32
HETATM   32  O   UNK N   1      33.864  10.291  23.449  0.00  0.00    -0.274 OA
HETATM   33  H   UNK N   1      34.750  10.667  23.575  0.00  0.00     0.234 HD
ENDBRANCH  29  32
ENDBRANCH  28  29
ENDBRANCH   1  28
TORSDOF 8
ENDMDL
MODEL 5
REMARK VINA RESULT:      -7.7      1.966      3.751
REMARK  8 active torsions:
REMARK  status: ('A' for Active; 'I' for Inactive)
REMARK    1  A    between atoms: C_1  and  O_28 
REMARK    2  A    between atoms: C_12  and  C_13 
REMARK    3  A    between atoms: C_13  and  C_14 
REMARK    4  A    between atoms: C_14  and  C_15 
REMARK    5  A    between atoms: C_15  and  C_16 
REMARK    6  A    between atoms: C_16  and  C_17 
REMARK    7  A    between atoms: O_28  and  S_29 
REMARK    8  A    between atoms: S_29  and  O_32 
ROOT
HETATM    1  C   UNK N   1      34.404  16.038   6.853  0.00  0.00     0.148 C 
HETATM    2  C   UNK N   1      35.356  14.856   6.607  0.00  0.00     0.035 C 
HETATM    3  C   UNK N   1      36.013  14.291   7.865  0.00  0.00     0.016 C 
HETATM    4  C   UNK N   1      34.657  16.895   8.107  0.00  0.00     0.068 C 
HETATM    5  C   UNK N   1      35.066  16.079   9.303  0.00  0.00    -0.072 C 
HETATM    6  C   UNK N   1      35.270  16.725  10.470  0.00  0.00    -0.023 C 
HETATM    7  C   UNK N   1      35.684  16.036  11.751  0.00  0.00     0.033 C 
HETATM    8  C   UNK N   1      35.577  14.506  11.698  0.00  0.00    -0.001 C 
HETATM    9  C   UNK N   1      36.438  13.866  12.808  0.00  0.00    -0.001 C 
HETATM   10  C   UNK N   1      36.093  14.161  14.259  0.00  0.00     0.006 C 
HETATM   11  C   UNK N   1      36.789  13.027  15.036  0.00  0.00     0.006 C 
HETATM   12  C   UNK N   1      37.235  12.006  13.974  0.00  0.00    -0.002 C 
HETATM   13  C   UNK N   1      36.394  12.343  12.745  0.00  0.00    -0.036 C 
HETATM   14  C   UNK N   1      34.963  11.794  12.885  0.00  0.00     0.016 C 
HETATM   15  C   UNK N   1      36.997  11.890  11.418  0.00  0.00     0.010 C 
HETATM   16  C   UNK N   1      36.200  12.475  10.253  0.00  0.00     0.007 C 
HETATM   17  C   UNK N   1      36.116  14.015  10.330  0.00  0.00     0.003 C 
HETATM   18  C   UNK N   1      35.260  14.579   9.171  0.00  0.00    -0.017 C 
HETATM   19  C   UNK N   1      33.882  13.913   9.127  0.00  0.00     0.020 C 
ENDROOT
BRANCH  12  20
HETATM   20  C   UNK N   1      37.304  10.541  14.471  0.00  0.00    -0.014 C 
HETATM   21  C   UNK N   1      38.679   9.922  14.271  0.00  0.00     0.010 C 
BRANCH  20  22
HETATM   22  C   UNK N   1      36.910  10.385  15.938  0.00  0.00     0.005 C 
BRANCH  22  23
HETATM   23  C   UNK N   1      35.513   9.808  16.108  0.00  0.00     0.001 C 
BRANCH  23  24
HETATM   24  C   UNK N   1      34.662  10.741  16.966  0.00  0.00     0.004 C 
BRANCH  24  25
HETATM   25  C   UNK N   1      35.453  11.438  18.067  0.00  0.00    -0.023 C 
HETATM   26  C   UNK N   1      35.200  10.719  19.376  0.00  0.00     0.009 C 
HETATM   27  C   UNK N   1      35.031  12.887  18.221  0.00  0.00     0.009 C 
ENDBRANCH  24  25
ENDBRANCH  23  24
ENDBRANCH  22  23
ENDBRANCH  20  22
ENDBRANCH  12  20
BRANCH   1  28
HETATM   28  O   UNK N   1      34.215  16.808   5.688  0.00  0.00    -0.258 OA
BRANCH  28  29
HETATM   29  S   UNK N   1      32.526  17.174   5.529  0.00  0.00     0.240 S 
HETATM   30  O   UNK N   1      31.627  15.934   5.635  0.00  0.00    -0.579 OA
HETATM   31  O   UNK N   1      32.136  17.926   4.246  0.00  0.00    -0.579 OA
BRANCH  29  32
HETATM   32  O   UNK N   1      33.035  16.174   4.229  0.00  0.00    -0.274 OA
HETATM   33  H   UNK N   1      33.721  16.312   3.556  0.00  0.00     0.234 HD
ENDBRANCH  29  32
ENDBRANCH  28  29
ENDBRANCH   1  28
TORSDOF 8
ENDMDL
MODEL 6
REMARK VINA RESULT:      -7.6     19.795     23.323
REMARK  8 active torsions:
REMARK  status: ('A' for Active; 'I' for Inactive)
REMARK    1  A    between atoms: C_1  and  O_28 
REMARK    2  A    between atoms: C_12  and  C_13 
REMARK    3  A    between atoms: C_13  and  C_14 
REMARK    4  A    between atoms: C_14  and  C_15 
REMARK    5  A    between atoms: C_15  and  C_16 
REMARK    6  A    between atoms: C_16  and  C_17 
REMARK    7  A    between atoms: O_28  and  S_29 
REMARK    8  A    between atoms: S_29  and  O_32 
ROOT
HETATM    1  C   UNK N   1      34.069  20.153  -4.156  0.00  0.00     0.148 C 
HETATM    2  C   UNK N   1      34.502  21.606  -4.411  0.00  0.00     0.035 C 
HETATM    3  C   UNK N   1      33.418  22.500  -5.013  0.00  0.00     0.016 C 
HETATM    4  C   UNK N   1      32.931  19.595  -5.030  0.00  0.00     0.068 C 
HETATM    5  C   UNK N   1      31.844  20.601  -5.291  0.00  0.00    -0.072 C 
HETATM    6  C   UNK N   1      30.773  20.204  -6.011  0.00  0.00    -0.023 C 
HETATM    7  C   UNK N   1      29.608  21.105  -6.351  0.00  0.00     0.033 C 
HETATM    8  C   UNK N   1      29.596  22.429  -5.574  0.00  0.00    -0.001 C 
HETATM    9  C   UNK N   1      28.703  23.466  -6.287  0.00  0.00    -0.001 C 
HETATM   10  C   UNK N   1      27.219  23.170  -6.437  0.00  0.00     0.006 C 
HETATM   11  C   UNK N   1      26.598  24.553  -6.715  0.00  0.00     0.006 C 
HETATM   12  C   UNK N   1      27.709  25.576  -6.421  0.00  0.00    -0.002 C 
HETATM   13  C   UNK N   1      28.716  24.810  -5.565  0.00  0.00    -0.036 C 
HETATM   14  C   UNK N   1      28.231  24.695  -4.109  0.00  0.00     0.016 C 
HETATM   15  C   UNK N   1      30.136  25.370  -5.599  0.00  0.00     0.010 C 
HETATM   16  C   UNK N   1      31.096  24.405  -4.904  0.00  0.00     0.007 C 
HETATM   17  C   UNK N   1      31.039  22.992  -5.525  0.00  0.00     0.003 C 
HETATM   18  C   UNK N   1      31.980  22.022  -4.772  0.00  0.00    -0.017 C 
HETATM   19  C   UNK N   1      31.684  22.019  -3.269  0.00  0.00     0.020 C 
ENDROOT
BRANCH  12  20
HETATM   20  C   UNK N   1      27.207  26.962  -5.947  0.00  0.00    -0.014 C 
HETATM   21  C   UNK N   1      27.595  28.080  -6.901  0.00  0.00     0.010 C 
BRANCH  20  22
HETATM   22  C   UNK N   1      25.695  27.010  -5.730  0.00  0.00     0.005 C 
BRANCH  22  23
HETATM   23  C   UNK N   1      25.301  27.915  -4.573  0.00  0.00     0.001 C 
BRANCH  23  24
HETATM   24  C   UNK N   1      26.276  27.735  -3.413  0.00  0.00     0.004 C 
BRANCH  24  25
HETATM   25  C   UNK N   1      26.941  29.035  -2.975  0.00  0.00    -0.023 C 
HETATM   26  C   UNK N   1      26.522  30.139  -3.923  0.00  0.00     0.009 C 
HETATM   27  C   UNK N   1      28.453  28.921  -3.002  0.00  0.00     0.009 C 
ENDBRANCH  24  25
ENDBRANCH  23  24
ENDBRANCH  22  23
ENDBRANCH  20  22
ENDBRANCH  12  20
BRANCH   1  28
HETATM   28  O   UNK N   1      35.176  19.286  -4.073  0.00  0.00    -0.258 OA
BRANCH  28  29
HETATM   29  S   UNK N   1      34.737  17.752  -4.758  0.00  0.00     0.240 S 
HETATM   30  O   UNK N   1      34.962  16.576  -3.797  0.00  0.00    -0.579 OA
HETATM   31  O   UNK N   1      35.423  17.408  -6.089  0.00  0.00    -0.579 OA
BRANCH  29  32
HETATM   32  O   UNK N   1      36.423  17.790  -4.436  0.00  0.00    -0.274 OA
HETATM   33  H   UNK N   1      37.057  17.068  -4.302  0.00  0.00     0.234 HD
ENDBRANCH  29  32
ENDBRANCH  28  29
ENDBRANCH   1  28
TORSDOF 8
ENDMDL
MODEL 7
REMARK VINA RESULT:      -7.4      2.536      3.690
REMARK  8 active torsions:
REMARK  status: ('A' for Active; 'I' for Inactive)
REMARK    1  A    between atoms: C_1  and  O_28 
REMARK    2  A    between atoms: C_12  and  C_13 
REMARK    3  A    between atoms: C_13  and  C_14 
REMARK    4  A    between atoms: C_14  and  C_15 
REMARK    5  A    between atoms: C_15  and  C_16 
REMARK    6  A    between atoms: C_16  and  C_17 
REMARK    7  A    between atoms: O_28  and  S_29 
REMARK    8  A    between atoms: S_29  and  O_32 
ROOT
HETATM    1  C   UNK N   1      37.317  13.357   8.704  0.00  0.00     0.148 C 
HETATM    2  C   UNK N   1      38.240  12.240   9.217  0.00  0.00     0.035 C 
HETATM    3  C   UNK N   1      38.155  11.981  10.721  0.00  0.00     0.016 C 
HETATM    4  C   UNK N   1      36.913  14.453   9.708  0.00  0.00     0.068 C 
HETATM    5  C   UNK N   1      36.641  13.914  11.086  0.00  0.00    -0.072 C 
HETATM    6  C   UNK N   1      36.236  14.783  12.036  0.00  0.00    -0.023 C 
HETATM    7  C   UNK N   1      35.927  14.385  13.462  0.00  0.00     0.033 C 
HETATM    8  C   UNK N   1      35.833  12.868  13.679  0.00  0.00    -0.001 C 
HETATM    9  C   UNK N   1      35.997  12.526  15.175  0.00  0.00    -0.001 C 
HETATM   10  C   UNK N   1      34.967  13.055  16.161  0.00  0.00     0.006 C 
HETATM   11  C   UNK N   1      35.149  12.152  17.397  0.00  0.00     0.006 C 
HETATM   12  C   UNK N   1      36.054  10.994  16.938  0.00  0.00    -0.002 C 
HETATM   13  C   UNK N   1      35.963  11.019  15.414  0.00  0.00    -0.036 C 
HETATM   14  C   UNK N   1      34.649  10.382  14.927  0.00  0.00     0.016 C 
HETATM   15  C   UNK N   1      37.148  10.383  14.695  0.00  0.00     0.010 C 
HETATM   16  C   UNK N   1      37.066  10.667  13.195  0.00  0.00     0.007 C 
HETATM   17  C   UNK N   1      36.983  12.180  12.901  0.00  0.00     0.003 C 
HETATM   18  C   UNK N   1      36.848  12.439  11.381  0.00  0.00    -0.017 C 
HETATM   19  C   UNK N   1      35.671  11.657  10.790  0.00  0.00     0.020 C 
ENDROOT
BRANCH  12  20
HETATM   20  C   UNK N   1      35.834   9.660  17.692  0.00  0.00    -0.014 C 
HETATM   21  C   UNK N   1      36.763   9.504  18.885  0.00  0.00     0.010 C 
BRANCH  20  22
HETATM   22  C   UNK N   1      34.395   9.470  18.168  0.00  0.00     0.005 C 
BRANCH  22  23
HETATM   23  C   UNK N   1      34.314   8.760  19.511  0.00  0.00     0.001 C 
BRANCH  23  24
HETATM   24  C   UNK N   1      33.060   7.891  19.567  0.00  0.00     0.004 C 
BRANCH  24  25
HETATM   25  C   UNK N   1      31.810   8.660  19.978  0.00  0.00    -0.023 C 
HETATM   26  C   UNK N   1      32.052   9.293  21.332  0.00  0.00     0.009 C 
HETATM   27  C   UNK N   1      30.604   7.745  20.080  0.00  0.00     0.009 C 
ENDBRANCH  24  25
ENDBRANCH  23  24
ENDBRANCH  22  23
ENDBRANCH  20  22
ENDBRANCH  12  20
BRANCH   1  28
HETATM   28  O   UNK N   1      37.762  13.876   7.472  0.00  0.00    -0.258 OA
BRANCH  28  29
HETATM   29  S   UNK N   1      39.468  13.589   7.328  0.00  0.00     0.240 S 
HETATM   30  O   UNK N   1      40.283  14.876   7.135  0.00  0.00    -0.579 OA
HETATM   31  O   UNK N   1      39.876  12.605   6.220  0.00  0.00    -0.579 OA
BRANCH  29  32
HETATM   32  O   UNK N   1      38.860  14.254   5.866  0.00  0.00    -0.274 OA
HETATM   33  H   UNK N   1      38.941  15.148   5.497  0.00  0.00     0.234 HD
ENDBRANCH  29  32
ENDBRANCH  28  29
ENDBRANCH   1  28
TORSDOF 8
ENDMDL
MODEL 8
REMARK VINA RESULT:      -7.3      6.625     10.399
REMARK  8 active torsions:
REMARK  status: ('A' for Active; 'I' for Inactive)
REMARK    1  A    between atoms: C_1  and  O_28 
REMARK    2  A    between atoms: C_12  and  C_13 
REMARK    3  A    between atoms: C_13  and  C_14 
REMARK    4  A    between atoms: C_14  and  C_15 
REMARK    5  A    between atoms: C_15  and  C_16 
REMARK    6  A    between atoms: C_16  and  C_17 
REMARK    7  A    between atoms: O_28  and  S_29 
REMARK    8  A    between atoms: S_29  and  O_32 
ROOT
HETATM    1  C   UNK N   1      34.941   9.622  20.129  0.00  0.00     0.148 C 
HETATM    2  C   UNK N   1      34.221   8.900  18.979  0.00  0.00     0.035 C 
HETATM    3  C   UNK N   1      34.187   9.674  17.661  0.00  0.00     0.016 C 
HETATM    4  C   UNK N   1      34.989  11.160  20.075  0.00  0.00     0.068 C 
HETATM    5  C   UNK N   1      35.209  11.691  18.685  0.00  0.00    -0.072 C 
HETATM    6  C   UNK N   1      35.313  13.027  18.527  0.00  0.00    -0.023 C 
HETATM    7  C   UNK N   1      35.534  13.701  17.191  0.00  0.00     0.033 C 
HETATM    8  C   UNK N   1      35.918  12.735  16.062  0.00  0.00    -0.001 C 
HETATM    9  C   UNK N   1      35.661  13.384  14.686  0.00  0.00    -0.001 C 
HETATM   10  C   UNK N   1      36.437  14.637  14.313  0.00  0.00     0.006 C 
HETATM   11  C   UNK N   1      36.309  14.702  12.779  0.00  0.00     0.006 C 
HETATM   12  C   UNK N   1      35.726  13.344  12.351  0.00  0.00    -0.002 C 
HETATM   13  C   UNK N   1      35.983  12.425  13.544  0.00  0.00    -0.036 C 
HETATM   14  C   UNK N   1      37.448  11.954  13.573  0.00  0.00     0.016 C 
HETATM   15  C   UNK N   1      35.047  11.223  13.634  0.00  0.00     0.010 C 
HETATM   16  C   UNK N   1      35.239  10.510  14.973  0.00  0.00     0.007 C 
HETATM   17  C   UNK N   1      35.035  11.467  16.167  0.00  0.00     0.003 C 
HETATM   18  C   UNK N   1      35.285  10.734  17.507  0.00  0.00    -0.017 C 
HETATM   19  C   UNK N   1      36.659  10.058  17.519  0.00  0.00     0.020 C 
ENDROOT
BRANCH  12  20
HETATM   20  C   UNK N   1      36.134  12.880  10.931  0.00  0.00    -0.014 C 
HETATM   21  C   UNK N   1      35.035  12.092  10.237  0.00  0.00     0.010 C 
BRANCH  20  22
HETATM   22  C   UNK N   1      36.555  14.032  10.021  0.00  0.00     0.005 C 
BRANCH  22  23
HETATM   23  C   UNK N   1      38.059  14.084   9.802  0.00  0.00     0.001 C 
BRANCH  23  24
HETATM   24  C   UNK N   1      38.689  12.748  10.188  0.00  0.00     0.004 C 
BRANCH  24  25
HETATM   25  C   UNK N   1      39.650  12.207   9.136  0.00  0.00    -0.023 C 
HETATM   26  C   UNK N   1      39.263  12.775   7.786  0.00  0.00     0.009 C 
HETATM   27  C   UNK N   1      39.592  10.693   9.058  0.00  0.00     0.009 C 
ENDBRANCH  24  25
ENDBRANCH  23  24
ENDBRANCH  22  23
ENDBRANCH  20  22
ENDBRANCH  12  20
BRANCH   1  28
HETATM   28  O   UNK N   1      34.540   9.127  21.387  0.00  0.00    -0.258 OA
BRANCH  28  29
HETATM   29  S   UNK N   1      32.810   9.213  21.495  0.00  0.00     0.240 S 
HETATM   30  O   UNK N   1      32.314  10.437  22.277  0.00  0.00    -0.579 OA
HETATM   31  O   UNK N   1      32.128   7.970  22.088  0.00  0.00    -0.579 OA
BRANCH  29  32
HETATM   32  O   UNK N   1      33.486   9.013  23.061  0.00  0.00    -0.274 OA
HETATM   33  H   UNK N   1      33.765   9.670  23.718  0.00  0.00     0.234 HD
ENDBRANCH  29  32
ENDBRANCH  28  29
ENDBRANCH   1  28
TORSDOF 8
ENDMDL
MODEL 9
REMARK VINA RESULT:      -7.0     10.773     13.879
REMARK  8 active torsions:
REMARK  status: ('A' for Active; 'I' for Inactive)
REMARK    1  A    between atoms: C_1  and  O_28 
REMARK    2  A    between atoms: C_12  and  C_13 
REMARK    3  A    between atoms: C_13  and  C_14 
REMARK    4  A    between atoms: C_14  and  C_15 
REMARK    5  A    between atoms: C_15  and  C_16 
REMARK    6  A    between atoms: C_16  and  C_17 
REMARK    7  A    between atoms: O_28  and  S_29 
REMARK    8  A    between atoms: S_29  and  O_32 
ROOT
HETATM    1  C   UNK N   1      22.503  17.200   3.388  0.00  0.00     0.148 C 
HETATM    2  C   UNK N   1      22.810  18.142   4.563  0.00  0.00     0.035 C 
HETATM    3  C   UNK N   1      24.119  17.844   5.295  0.00  0.00     0.016 C 
HETATM    4  C   UNK N   1      23.117  15.789   3.437  0.00  0.00     0.068 C 
HETATM    5  C   UNK N   1      24.521  15.779   3.977  0.00  0.00    -0.072 C 
HETATM    6  C   UNK N   1      25.173  14.599   4.023  0.00  0.00    -0.023 C 
HETATM    7  C   UNK N   1      26.585  14.439   4.540  0.00  0.00     0.033 C 
HETATM    8  C   UNK N   1      27.329  15.765   4.745  0.00  0.00    -0.001 C 
HETATM    9  C   UNK N   1      28.530  15.571   5.694  0.00  0.00    -0.001 C 
HETATM   10  C   UNK N   1      29.653  14.637   5.267  0.00  0.00     0.006 C 
HETATM   11  C   UNK N   1      30.835  15.058   6.161  0.00  0.00     0.006 C 
HETATM   12  C   UNK N   1      30.407  16.379   6.826  0.00  0.00    -0.002 C 
HETATM   13  C   UNK N   1      29.256  16.886   5.960  0.00  0.00    -0.036 C 
HETATM   14  C   UNK N   1      29.780  17.534   4.666  0.00  0.00     0.016 C 
HETATM   15  C   UNK N   1      28.298  17.839   6.669  0.00  0.00     0.010 C 
HETATM   16  C   UNK N   1      27.072  18.097   5.794  0.00  0.00     0.007 C 
HETATM   17  C   UNK N   1      26.361  16.784   5.400  0.00  0.00     0.003 C 
HETATM   18  C   UNK N   1      25.155  17.068   4.473  0.00  0.00    -0.017 C 
HETATM   19  C   UNK N   1      25.576  17.900   3.257  0.00  0.00     0.020 C 
ENDROOT
BRANCH  12  20
HETATM   20  C   UNK N   1      31.572  17.336   7.179  0.00  0.00    -0.014 C 
HETATM   21  C   UNK N   1      31.459  17.898   8.587  0.00  0.00     0.010 C 
BRANCH  20  22
HETATM   22  C   UNK N   1      32.948  16.690   7.022  0.00  0.00     0.005 C 
BRANCH  22  23
HETATM   23  C   UNK N   1      33.676  17.163   5.773  0.00  0.00     0.001 C 
BRANCH  23  24
HETATM   24  C   UNK N   1      34.166  15.963   4.968  0.00  0.00     0.004 C 
BRANCH  24  25
HETATM   25  C   UNK N   1      33.258  15.609   3.797  0.00  0.00    -0.023 C 
HETATM   26  C   UNK N   1      34.014  14.696   2.853  0.00  0.00     0.009 C 
HETATM   27  C   UNK N   1      32.831  16.848   3.032  0.00  0.00     0.009 C 
ENDBRANCH  24  25
ENDBRANCH  23  24
ENDBRANCH  22  23
ENDBRANCH  20  22
ENDBRANCH  12  20
BRANCH   1  28
HETATM   28  O   UNK N   1      21.129  17.192   3.072  0.00  0.00    -0.258 OA
BRANCH  28  29
HETATM   29  S   UNK N   1      20.796  15.817   2.066  0.00  0.00     0.240 S 
HETATM   30  O   UNK N   1      20.672  16.174   0.578  0.00  0.00    -0.579 OA
HETATM   31  O   UNK N   1      19.552  15.004   2.458  0.00  0.00    -0.579 OA
BRANCH  29  32
HETATM   32  O   UNK N   1      19.481  16.919   2.007  0.00  0.00    -0.274 OA
HETATM   33  H   UNK N   1      19.216  17.551   1.320  0.00  0.00     0.234 HD
ENDBRANCH  29  32
ENDBRANCH  28  29
ENDBRANCH   1  28
TORSDOF 8
ENDMDL
