MODEL 1
REMARK VINA RESULT:      -5.4      0.000      0.000
REMARK  5 active torsions:
REMARK  status: ('A' for Active; 'I' for Inactive)
REMARK    1  A    between atoms: C_1  and  C_7 
REMARK    2  A    between atoms: C_4  and  C_10 
REMARK    3  A    between atoms: C_8  and  C_9 
REMARK    4  A    between atoms: C_9  and  O_12 
REMARK    5  A    between atoms: C_10  and  O_14 
ROOT
HETATM    1  C   UNK N   1      35.312  12.669  17.024  0.00  0.00    -0.036 A 
HETATM    2  C   UNK N   1      35.676  11.315  17.007  0.00  0.00     0.012 A 
HETATM    3  C   UNK N   1      35.857  10.615  18.196  0.00  0.00     0.019 A 
HETATM    4  C   UNK N   1      35.677  11.255  19.426  0.00  0.00     0.037 A 
HETATM    5  C   UNK N   1      35.312  12.612  19.451  0.00  0.00     0.019 A 
HETATM    6  C   UNK N   1      35.131  13.316  18.252  0.00  0.00     0.012 A 
ENDROOT
BRANCH   1   7
HETATM    7  C   UNK N   1      35.122  13.401  15.757  0.00  0.00     0.018 C 
HETATM    8  C   UNK N   1      35.902  13.133  14.703  0.00  0.00     0.082 C 
BRANCH   8   9
HETATM    9  C   UNK N   1      35.775  13.814  13.409  0.00  0.00     0.165 C 
HETATM   10  O   UNK N   1      34.711  13.767  12.813  0.00  0.00    -0.647 OA
BRANCH   9  11
HETATM   11  O   UNK N   1      36.812  14.486  12.876  0.00  0.00    -0.773 OA
HETATM   12  H   UNK N   1      37.357  15.017  13.424  0.00  0.00     0.167 HD
ENDBRANCH   9  11
ENDBRANCH   8   9
ENDBRANCH   1   7
BRANCH   4  13
HETATM   13  C   UNK N   1      35.871  10.501  20.680  0.00  0.00     0.176 C 
HETATM   14  O   UNK N   1      35.112   9.585  20.969  0.00  0.00    -0.646 OA
BRANCH  13  15
HETATM   15  O   UNK N   1      36.880  10.813  21.514  0.00  0.00    -0.773 OA
HETATM   16  H   UNK N   1      37.360  11.607  21.391  0.00  0.00     0.167 HD
ENDBRANCH  13  15
ENDBRANCH   4  13
TORSDOF 5
ENDMDL
MODEL 2
REMARK VINA RESULT:      -5.3     22.942     26.223
REMARK  5 active torsions:
REMARK  status: ('A' for Active; 'I' for Inactive)
REMARK    1  A    between atoms: C_1  and  C_7 
REMARK    2  A    between atoms: C_4  and  C_10 
REMARK    3  A    between atoms: C_8  and  C_9 
REMARK    4  A    between atoms: C_9  and  O_12 
REMARK    5  A    between atoms: C_10  and  O_14 
ROOT
HETATM    1  C   UNK N   1      28.212  22.994  -5.928  0.00  0.00    -0.036 A 
HETATM    2  C   UNK N   1      29.272  22.076  -5.891  0.00  0.00     0.012 A 
HETATM    3  C   UNK N   1      30.076  21.969  -4.761  0.00  0.00     0.019 A 
HETATM    4  C   UNK N   1      29.838  22.776  -3.645  0.00  0.00     0.037 A 
HETATM    5  C   UNK N   1      28.778  23.699  -3.674  0.00  0.00     0.019 A 
HETATM    6  C   UNK N   1      27.968  23.807  -4.814  0.00  0.00     0.012 A 
ENDROOT
BRANCH   1   7
HETATM    7  C   UNK N   1      27.364  23.099  -7.131  0.00  0.00     0.018 C 
HETATM    8  C   UNK N   1      26.075  22.743  -7.077  0.00  0.00     0.082 C 
BRANCH   8   9
HETATM    9  C   UNK N   1      25.167  22.821  -8.227  0.00  0.00     0.165 C 
HETATM   10  O   UNK N   1      25.433  23.577  -9.147  0.00  0.00    -0.647 OA
BRANCH   9  11
HETATM   11  O   UNK N   1      24.049  22.072  -8.278  0.00  0.00    -0.773 OA
HETATM   12  H   UNK N   1      24.109  21.155  -8.463  0.00  0.00     0.167 HD
ENDBRANCH   9  11
ENDBRANCH   8   9
ENDBRANCH   1   7
BRANCH   4  13
HETATM   13  C   UNK N   1      30.699  22.652  -2.453  0.00  0.00     0.176 C 
HETATM   14  O   UNK N   1      30.362  23.170  -1.396  0.00  0.00    -0.646 OA
BRANCH  13  15
HETATM   15  O   UNK N   1      31.857  21.971  -2.515  0.00  0.00    -0.773 OA
HETATM   16  H   UNK N   1      31.982  21.210  -1.985  0.00  0.00     0.167 HD
ENDBRANCH  13  15
ENDBRANCH   4  13
TORSDOF 5
ENDMDL
MODEL 3
REMARK VINA RESULT:      -5.3     10.700     13.183
REMARK  5 active torsions:
REMARK  status: ('A' for Active; 'I' for Inactive)
REMARK    1  A    between atoms: C_1  and  C_7 
REMARK    2  A    between atoms: C_4  and  C_10 
REMARK    3  A    between atoms: C_8  and  C_9 
REMARK    4  A    between atoms: C_9  and  O_12 
REMARK    5  A    between atoms: C_10  and  O_14 
ROOT
HETATM    1  C   UNK N   1      31.393  17.100   6.196  0.00  0.00    -0.036 A 
HETATM    2  C   UNK N   1      32.684  17.221   5.661  0.00  0.00     0.012 A 
HETATM    3  C   UNK N   1      33.755  17.585   6.470  0.00  0.00     0.019 A 
HETATM    4  C   UNK N   1      33.559  17.836   7.831  0.00  0.00     0.037 A 
HETATM    5  C   UNK N   1      32.269  17.718   8.376  0.00  0.00     0.019 A 
HETATM    6  C   UNK N   1      31.189  17.351   7.559  0.00  0.00     0.012 A 
ENDROOT
BRANCH   1   7
HETATM    7  C   UNK N   1      30.264  16.712   5.330  0.00  0.00     0.018 C 
HETATM    8  C   UNK N   1      29.564  17.649   4.679  0.00  0.00     0.082 C 
BRANCH   8   9
HETATM    9  C   UNK N   1      28.431  17.345   3.797  0.00  0.00     0.165 C 
HETATM   10  O   UNK N   1      28.493  16.375   3.060  0.00  0.00    -0.647 OA
BRANCH   9  11
HETATM   11  O   UNK N   1      27.330  18.120   3.794  0.00  0.00    -0.773 OA
HETATM   12  H   UNK N   1      26.612  17.916   4.360  0.00  0.00     0.167 HD
ENDBRANCH   9  11
ENDBRANCH   8   9
ENDBRANCH   1   7
BRANCH   4  13
HETATM   13  C   UNK N   1      34.705  18.221   8.678  0.00  0.00     0.176 C 
HETATM   14  O   UNK N   1      35.323  19.251   8.441  0.00  0.00    -0.646 OA
BRANCH  13  15
HETATM   15  O   UNK N   1      35.079  17.448   9.713  0.00  0.00    -0.773 OA
HETATM   16  H   UNK N   1      35.884  16.973   9.674  0.00  0.00     0.167 HD
ENDBRANCH  13  15
ENDBRANCH   4  13
TORSDOF 5
ENDMDL
MODEL 4
REMARK VINA RESULT:      -5.3      0.713      1.693
REMARK  5 active torsions:
REMARK  status: ('A' for Active; 'I' for Inactive)
REMARK    1  A    between atoms: C_1  and  C_7 
REMARK    2  A    between atoms: C_4  and  C_10 
REMARK    3  A    between atoms: C_8  and  C_9 
REMARK    4  A    between atoms: C_9  and  O_12 
REMARK    5  A    between atoms: C_10  and  O_14 
ROOT
HETATM    1  C   UNK N   1      35.594  12.840  16.558  0.00  0.00    -0.036 A 
HETATM    2  C   UNK N   1      35.282  13.547  17.728  0.00  0.00     0.012 A 
HETATM    3  C   UNK N   1      35.172  12.886  18.947  0.00  0.00     0.019 A 
HETATM    4  C   UNK N   1      35.372  11.504  19.021  0.00  0.00     0.037 A 
HETATM    5  C   UNK N   1      35.683  10.788  17.853  0.00  0.00     0.019 A 
HETATM    6  C   UNK N   1      35.794  11.455  16.625  0.00  0.00     0.012 A 
ENDROOT
BRANCH   1   7
HETATM    7  C   UNK N   1      35.709  13.551  15.270  0.00  0.00     0.018 C 
HETATM    8  C   UNK N   1      35.323  12.954  14.137  0.00  0.00     0.082 C 
BRANCH   8   9
HETATM    9  C   UNK N   1      35.402  13.594  12.818  0.00  0.00     0.165 C 
HETATM   10  O   UNK N   1      36.476  14.019  12.425  0.00  0.00    -0.647 OA
BRANCH   9  11
HETATM   11  O   UNK N   1      34.309  13.716  12.042  0.00  0.00    -0.773 OA
HETATM   12  H   UNK N   1      33.710  14.423  12.184  0.00  0.00     0.167 HD
ENDBRANCH   9  11
ENDBRANCH   8   9
ENDBRANCH   1   7
BRANCH   4  13
HETATM   13  C   UNK N   1      35.252  10.816  20.321  0.00  0.00     0.176 C 
HETATM   14  O   UNK N   1      34.239  10.182  20.589  0.00  0.00    -0.646 OA
BRANCH  13  15
HETATM   15  O   UNK N   1      36.250  10.877  21.221  0.00  0.00    -0.773 OA
HETATM   16  H   UNK N   1      36.944  11.495  21.107  0.00  0.00     0.167 HD
ENDBRANCH  13  15
ENDBRANCH   4  13
TORSDOF 5
ENDMDL
MODEL 5
REMARK VINA RESULT:      -5.2     15.301     18.746
REMARK  5 active torsions:
REMARK  status: ('A' for Active; 'I' for Inactive)
REMARK    1  A    between atoms: C_1  and  C_7 
REMARK    2  A    between atoms: C_4  and  C_10 
REMARK    3  A    between atoms: C_8  and  C_9 
REMARK    4  A    between atoms: C_9  and  O_12 
REMARK    5  A    between atoms: C_10  and  O_14 
ROOT
HETATM    1  C   UNK N   1      25.286  19.869   3.518  0.00  0.00    -0.036 A 
HETATM    2  C   UNK N   1      26.440  20.599   3.835  0.00  0.00     0.012 A 
HETATM    3  C   UNK N   1      27.588  19.952   4.282  0.00  0.00     0.019 A 
HETATM    4  C   UNK N   1      27.606  18.562   4.421  0.00  0.00     0.037 A 
HETATM    5  C   UNK N   1      26.453  17.821   4.106  0.00  0.00     0.019 A 
HETATM    6  C   UNK N   1      25.297  18.475   3.655  0.00  0.00     0.012 A 
ENDROOT
BRANCH   1   7
HETATM    7  C   UNK N   1      24.075  20.564   3.044  0.00  0.00     0.018 C 
HETATM    8  C   UNK N   1      22.898  19.928   3.028  0.00  0.00     0.082 C 
BRANCH   8   9
HETATM    9  C   UNK N   1      21.648  20.551   2.575  0.00  0.00     0.165 C 
HETATM   10  O   UNK N   1      20.810  20.874   3.400  0.00  0.00    -0.647 OA
BRANCH   9  11
HETATM   11  O   UNK N   1      21.419  20.768   1.266  0.00  0.00    -0.773 OA
HETATM   12  H   UNK N   1      22.056  21.222   0.748  0.00  0.00     0.167 HD
ENDBRANCH   9  11
ENDBRANCH   8   9
ENDBRANCH   1   7
BRANCH   4  13
HETATM   13  C   UNK N   1      28.830  17.888   4.896  0.00  0.00     0.176 C 
HETATM   14  O   UNK N   1      28.832  17.308   5.974  0.00  0.00    -0.646 OA
BRANCH  13  15
HETATM   15  O   UNK N   1      29.951  17.905   4.152  0.00  0.00    -0.773 OA
HETATM   16  H   UNK N   1      30.256  17.117   3.748  0.00  0.00     0.167 HD
ENDBRANCH  13  15
ENDBRANCH   4  13
TORSDOF 5
ENDMDL
MODEL 6
REMARK VINA RESULT:      -5.0      1.630      6.621
REMARK  5 active torsions:
REMARK  status: ('A' for Active; 'I' for Inactive)
REMARK    1  A    between atoms: C_1  and  C_7 
REMARK    2  A    between atoms: C_4  and  C_10 
REMARK    3  A    between atoms: C_8  and  C_9 
REMARK    4  A    between atoms: C_9  and  O_12 
REMARK    5  A    between atoms: C_10  and  O_14 
ROOT
HETATM    1  C   UNK N   1      35.408  12.772  15.982  0.00  0.00    -0.036 A 
HETATM    2  C   UNK N   1      34.668  12.153  14.964  0.00  0.00     0.012 A 
HETATM    3  C   UNK N   1      34.850  12.518  13.634  0.00  0.00     0.019 A 
HETATM    4  C   UNK N   1      35.776  13.509  13.294  0.00  0.00     0.037 A 
HETATM    5  C   UNK N   1      36.521  14.135  14.309  0.00  0.00     0.019 A 
HETATM    6  C   UNK N   1      36.337  13.766  15.649  0.00  0.00     0.012 A 
ENDROOT
BRANCH   1   7
HETATM    7  C   UNK N   1      35.208  12.376  17.389  0.00  0.00     0.018 C 
HETATM    8  C   UNK N   1      35.258  13.297  18.359  0.00  0.00     0.082 C 
BRANCH   8   9
HETATM    9  C   UNK N   1      35.066  12.985  19.780  0.00  0.00     0.165 C 
HETATM   10  O   UNK N   1      34.416  13.748  20.476  0.00  0.00    -0.647 OA
BRANCH   9  11
HETATM   11  O   UNK N   1      35.596  11.872  20.322  0.00  0.00    -0.773 OA
HETATM   12  H   UNK N   1      36.527  11.786  20.397  0.00  0.00     0.167 HD
ENDBRANCH   9  11
ENDBRANCH   8   9
ENDBRANCH   1   7
BRANCH   4  13
HETATM   13  C   UNK N   1      35.959  13.887  11.879  0.00  0.00     0.176 C 
HETATM   14  O   UNK N   1      35.303  13.333  11.007  0.00  0.00    -0.646 OA
BRANCH  13  15
HETATM   15  O   UNK N   1      36.845  14.839  11.537  0.00  0.00    -0.773 OA
HETATM   16  H   UNK N   1      37.299  15.317  12.202  0.00  0.00     0.167 HD
ENDBRANCH  13  15
ENDBRANCH   4  13
TORSDOF 5
ENDMDL
MODEL 7
REMARK VINA RESULT:      -5.0      1.348      6.457
REMARK  5 active torsions:
REMARK  status: ('A' for Active; 'I' for Inactive)
REMARK    1  A    between atoms: C_1  and  C_7 
REMARK    2  A    between atoms: C_4  and  C_10 
REMARK    3  A    between atoms: C_8  and  C_9 
REMARK    4  A    between atoms: C_9  and  O_12 
REMARK    5  A    between atoms: C_10  and  O_14 
ROOT
HETATM    1  C   UNK N   1      35.412  11.745  18.774  0.00  0.00    -0.036 A 
HETATM    2  C   UNK N   1      35.749  10.866  17.735  0.00  0.00     0.012 A 
HETATM    3  C   UNK N   1      35.873  11.329  16.428  0.00  0.00     0.019 A 
HETATM    4  C   UNK N   1      35.663  12.679  16.134  0.00  0.00     0.037 A 
HETATM    5  C   UNK N   1      35.324  13.566  17.170  0.00  0.00     0.019 A 
HETATM    6  C   UNK N   1      35.199  13.099  18.487  0.00  0.00     0.012 A 
ENDROOT
BRANCH   1   7
HETATM    7  C   UNK N   1      35.284  11.244  20.156  0.00  0.00     0.018 C 
HETATM    8  C   UNK N   1      34.593  10.126  20.403  0.00  0.00     0.082 C 
BRANCH   8   9
HETATM    9  C   UNK N   1      34.422   9.562  21.748  0.00  0.00     0.165 C 
HETATM   10  O   UNK N   1      34.709   8.392  21.945  0.00  0.00    -0.647 OA
BRANCH   9  11
HETATM   11  O   UNK N   1      33.956  10.317  22.761  0.00  0.00    -0.773 OA
HETATM   12  H   UNK N   1      34.032  11.250  22.721  0.00  0.00     0.167 HD
ENDBRANCH   9  11
ENDBRANCH   8   9
ENDBRANCH   1   7
BRANCH   4  13
HETATM   13  C   UNK N   1      35.798  13.156  14.744  0.00  0.00     0.176 C 
HETATM   14  O   UNK N   1      34.803  13.300  14.046  0.00  0.00    -0.646 OA
BRANCH  13  15
HETATM   15  O   UNK N   1      37.011  13.436  14.233  0.00  0.00    -0.773 OA
HETATM   16  H   UNK N   1      37.780  13.288  14.747  0.00  0.00     0.167 HD
ENDBRANCH  13  15
ENDBRANCH   4  13
TORSDOF 5
ENDMDL
MODEL 8
REMARK VINA RESULT:      -5.0     15.283     18.037
REMARK  5 active torsions:
REMARK  status: ('A' for Active; 'I' for Inactive)
REMARK    1  A    between atoms: C_1  and  C_7 
REMARK    2  A    between atoms: C_4  and  C_10 
REMARK    3  A    between atoms: C_8  and  C_9 
REMARK    4  A    between atoms: C_9  and  O_12 
REMARK    5  A    between atoms: C_10  and  O_14 
ROOT
HETATM    1  C   UNK N   1      21.299  14.007   8.996  0.00  0.00    -0.036 A 
HETATM    2  C   UNK N   1      20.770  15.299   9.129  0.00  0.00     0.012 A 
HETATM    3  C   UNK N   1      20.140  15.921   8.056  0.00  0.00     0.019 A 
HETATM    4  C   UNK N   1      20.026  15.264   6.827  0.00  0.00     0.037 A 
HETATM    5  C   UNK N   1      20.554  13.969   6.685  0.00  0.00     0.019 A 
HETATM    6  C   UNK N   1      21.189  13.344   7.767  0.00  0.00     0.012 A 
ENDROOT
BRANCH   1   7
HETATM    7  C   UNK N   1      21.964  13.357  10.141  0.00  0.00     0.018 C 
HETATM    8  C   UNK N   1      23.226  12.925  10.027  0.00  0.00     0.082 C 
BRANCH   8   9
HETATM    9  C   UNK N   1      23.958  12.272  11.120  0.00  0.00     0.165 C 
HETATM   10  O   UNK N   1      23.375  11.474  11.834  0.00  0.00    -0.647 OA
BRANCH   9  11
HETATM   11  O   UNK N   1      25.258  12.543  11.339  0.00  0.00    -0.773 OA
HETATM   12  H   UNK N   1      25.542  13.431  11.432  0.00  0.00     0.167 HD
ENDBRANCH   9  11
ENDBRANCH   8   9
ENDBRANCH   1   7
BRANCH   4  13
HETATM   13  C   UNK N   1      19.355  15.935   5.697  0.00  0.00     0.176 C 
HETATM   14  O   UNK N   1      20.014  16.560   4.876  0.00  0.00    -0.646 OA
BRANCH  13  15
HETATM   15  O   UNK N   1      18.018  15.868   5.559  0.00  0.00    -0.773 OA
HETATM   16  H   UNK N   1      17.590  15.035   5.554  0.00  0.00     0.167 HD
ENDBRANCH  13  15
ENDBRANCH   4  13
TORSDOF 5
ENDMDL
MODEL 9
REMARK VINA RESULT:      -4.9      2.281      3.557
REMARK  5 active torsions:
REMARK  status: ('A' for Active; 'I' for Inactive)
REMARK    1  A    between atoms: C_1  and  C_7 
REMARK    2  A    between atoms: C_4  and  C_10 
REMARK    3  A    between atoms: C_8  and  C_9 
REMARK    4  A    between atoms: C_9  and  O_12 
REMARK    5  A    between atoms: C_10  and  O_14 
ROOT
HETATM    1  C   UNK N   1      36.050  13.805  14.079  0.00  0.00    -0.036 A 
HETATM    2  C   UNK N   1      36.748  14.386  15.148  0.00  0.00     0.012 A 
HETATM    3  C   UNK N   1      36.482  14.003  16.459  0.00  0.00     0.019 A 
HETATM    4  C   UNK N   1      35.513  13.032  16.729  0.00  0.00     0.037 A 
HETATM    5  C   UNK N   1      34.809  12.446  15.663  0.00  0.00     0.019 A 
HETATM    6  C   UNK N   1      35.077  12.832  14.342  0.00  0.00     0.012 A 
ENDROOT
BRANCH   1   7
HETATM    7  C   UNK N   1      36.341  14.218  12.693  0.00  0.00     0.018 C 
HETATM    8  C   UNK N   1      35.782  15.325  12.191  0.00  0.00     0.082 C 
BRANCH   8   9
HETATM    9  C   UNK N   1      36.023  15.804  10.824  0.00  0.00     0.165 C 
HETATM   10  O   UNK N   1      36.314  15.000   9.954  0.00  0.00    -0.647 OA
BRANCH   9  11
HETATM   11  O   UNK N   1      35.925  17.112  10.523  0.00  0.00    -0.773 OA
HETATM   12  H   UNK N   1      36.665  17.568  10.171  0.00  0.00     0.167 HD
ENDBRANCH   9  11
ENDBRANCH   8   9
ENDBRANCH   1   7
BRANCH   4  13
HETATM   13  C   UNK N   1      35.241  12.635  18.124  0.00  0.00     0.176 C 
HETATM   14  O   UNK N   1      35.151  11.451  18.418  0.00  0.00    -0.646 OA
BRANCH  13  15
HETATM   15  O   UNK N   1      35.090  13.568  19.081  0.00  0.00    -0.773 OA
HETATM   16  H   UNK N   1      34.594  13.372  19.851  0.00  0.00     0.167 HD
ENDBRANCH  13  15
ENDBRANCH   4  13
TORSDOF 5
ENDMDL
