MODEL 1
REMARK VINA RESULT:      -6.0      0.000      0.000
REMARK  2 active torsions:
REMARK  status: ('A' for Active; 'I' for Inactive)
REMARK    1  A    between atoms: C_3  and  N_7 
REMARK       I    between atoms: N_7  and  C_8 
REMARK       I    between atoms: C_8  and  N_10 
REMARK    2  A    between atoms: N_10  and  C_11 
ROOT
HETATM    1  N   UNK N   1      36.819  13.916  12.639  0.00  0.00    -0.338 N 
HETATM    2  C   UNK N   1      36.047  13.638  13.718  0.00  0.00     0.321 C 
HETATM    3  O   UNK N   1      34.882  13.289  13.572  0.00  0.00    -0.247 OA
HETATM    4  N   UNK N   1      36.604  13.639  14.956  0.00  0.00    -0.309 N 
HETATM    5  H   UNK N   1      37.683  14.355  12.808  0.00  0.00     0.164 HD
HETATM    6  H   UNK N   1      37.420  14.169  15.105  0.00  0.00     0.170 HD
ENDROOT
BRANCH   1   7
HETATM    7  C   UNK N   1      36.479  13.624  11.250  0.00  0.00     0.086 C 
HETATM    8  C   UNK N   1      36.645  12.157  10.878  0.00  0.00     0.025 C 
HETATM    9  C   UNK N   1      38.074  11.870  10.435  0.00  0.00     0.002 C 
HETATM   10  C   UNK N   1      38.440  12.757   9.250  0.00  0.00     0.000 C 
HETATM   11  C   UNK N   1      38.395  14.223   9.663  0.00  0.00     0.002 C 
HETATM   12  C   UNK N   1      37.000  14.601  10.174  0.00  0.00     0.025 C 
ENDBRANCH   1   7
BRANCH   4  13
HETATM   13  C   UNK N   1      36.060  12.904  16.050  0.00  0.00     0.036 A 
HETATM   14  C   UNK N   1      35.485  13.580  17.133  0.00  0.00     0.031 A 
HETATM   15  C   UNK N   1      35.117  12.871  18.286  0.00  0.00     0.020 A 
HETATM   16  C   UNK N   1      35.343  11.491  18.366  0.00  0.00     0.006 A 
HETATM   17  I   UNK N   1      34.890  10.420  20.115  0.00  0.00    -0.045 I 
HETATM   18  C   UNK N   1      35.914  10.815  17.292  0.00  0.00     0.020 A 
HETATM   19  C   UNK N   1      36.274  11.517  16.149  0.00  0.00     0.031 A 
ENDBRANCH   4  13
TORSDOF 2
ENDMDL
MODEL 2
REMARK VINA RESULT:      -5.9      3.530      4.913
REMARK  2 active torsions:
REMARK  status: ('A' for Active; 'I' for Inactive)
REMARK    1  A    between atoms: C_3  and  N_7 
REMARK       I    between atoms: N_7  and  C_8 
REMARK       I    between atoms: C_8  and  N_10 
REMARK    2  A    between atoms: N_10  and  C_11 
ROOT
HETATM    1  N   UNK N   1      34.684  16.349  10.174  0.00  0.00    -0.338 N 
HETATM    2  C   UNK N   1      34.869  15.484  11.201  0.00  0.00     0.321 C 
HETATM    3  O   UNK N   1      34.001  14.669  11.487  0.00  0.00    -0.247 OA
HETATM    4  N   UNK N   1      36.066  15.452  11.841  0.00  0.00    -0.309 N 
HETATM    5  H   UNK N   1      35.325  17.092  10.093  0.00  0.00     0.164 HD
HETATM    6  H   UNK N   1      36.637  16.253  11.813  0.00  0.00     0.170 HD
ENDROOT
BRANCH   1   7
HETATM    7  C   UNK N   1      33.619  16.276   9.179  0.00  0.00     0.086 C 
HETATM    8  C   UNK N   1      33.872  15.242   8.091  0.00  0.00     0.025 C 
HETATM    9  C   UNK N   1      34.691  15.840   6.955  0.00  0.00     0.002 C 
HETATM   10  C   UNK N   1      33.968  17.050   6.372  0.00  0.00     0.000 C 
HETATM   11  C   UNK N   1      33.829  18.135   7.433  0.00  0.00     0.002 C 
HETATM   12  C   UNK N   1      33.055  17.612   8.648  0.00  0.00     0.025 C 
ENDBRANCH   1   7
BRANCH   4  13
HETATM   13  C   UNK N   1      36.533  14.306  12.551  0.00  0.00     0.036 A 
HETATM   14  C   UNK N   1      36.987  13.183  11.850  0.00  0.00     0.031 A 
HETATM   15  C   UNK N   1      37.272  11.995  12.539  0.00  0.00     0.020 A 
HETATM   16  C   UNK N   1      37.084  11.924  13.925  0.00  0.00     0.006 A 
HETATM   17  I   UNK N   1      37.411  10.130  14.971  0.00  0.00    -0.045 I 
HETATM   18  C   UNK N   1      36.632  13.038  14.626  0.00  0.00     0.020 A 
HETATM   19  C   UNK N   1      36.354  14.214  13.944  0.00  0.00     0.031 A 
ENDBRANCH   4  13
TORSDOF 2
ENDMDL
MODEL 3
REMARK VINA RESULT:      -5.9      3.779      7.414
REMARK  2 active torsions:
REMARK  status: ('A' for Active; 'I' for Inactive)
REMARK    1  A    between atoms: C_3  and  N_7 
REMARK       I    between atoms: N_7  and  C_8 
REMARK       I    between atoms: C_8  and  N_10 
REMARK    2  A    between atoms: N_10  and  C_11 
ROOT
HETATM    1  N   UNK N   1      35.773  13.024  14.535  0.00  0.00    -0.338 N 
HETATM    2  C   UNK N   1      35.576  13.275  13.218  0.00  0.00     0.321 C 
HETATM    3  O   UNK N   1      34.577  12.853  12.650  0.00  0.00    -0.247 OA
HETATM    4  N   UNK N   1      36.437  14.091  12.558  0.00  0.00    -0.309 N 
HETATM    5  H   UNK N   1      36.662  13.230  14.903  0.00  0.00     0.164 HD
HETATM    6  H   UNK N   1      37.350  14.196  12.909  0.00  0.00     0.170 HD
ENDROOT
BRANCH   1   7
HETATM    7  C   UNK N   1      34.782  12.473  15.455  0.00  0.00     0.086 C 
HETATM    8  C   UNK N   1      34.383  13.433  16.567  0.00  0.00     0.025 C 
HETATM    9  C   UNK N   1      35.333  13.314  17.751  0.00  0.00     0.002 C 
HETATM   10  C   UNK N   1      35.339  11.880  18.272  0.00  0.00     0.000 C 
HETATM   11  C   UNK N   1      35.860  10.937  17.195  0.00  0.00     0.002 C 
HETATM   12  C   UNK N   1      34.993  11.020  15.934  0.00  0.00     0.025 C 
ENDBRANCH   1   7
BRANCH   4  13
HETATM   13  C   UNK N   1      36.076  14.805  11.377  0.00  0.00     0.036 A 
HETATM   14  C   UNK N   1      35.459  16.058  11.476  0.00  0.00     0.031 A 
HETATM   15  C   UNK N   1      34.939  16.675  10.328  0.00  0.00     0.020 A 
HETATM   16  C   UNK N   1      35.017  16.031   9.086  0.00  0.00     0.006 A 
HETATM   17  I   UNK N   1      34.164  16.887   7.368  0.00  0.00    -0.045 I 
HETATM   18  C   UNK N   1      35.629  14.785   8.984  0.00  0.00     0.020 A 
HETATM   19  C   UNK N   1      36.147  14.177  10.120  0.00  0.00     0.031 A 
ENDBRANCH   4  13
TORSDOF 2
ENDMDL
MODEL 4
REMARK VINA RESULT:      -5.8      5.011      7.976
REMARK  2 active torsions:
REMARK  status: ('A' for Active; 'I' for Inactive)
REMARK    1  A    between atoms: C_3  and  N_7 
REMARK       I    between atoms: N_7  and  C_8 
REMARK       I    between atoms: C_8  and  N_10 
REMARK    2  A    between atoms: N_10  and  C_11 
ROOT
HETATM    1  N   UNK N   1      34.569  13.196  12.761  0.00  0.00    -0.338 N 
HETATM    2  C   UNK N   1      34.865  13.902  11.642  0.00  0.00     0.321 C 
HETATM    3  O   UNK N   1      35.838  13.602  10.961  0.00  0.00    -0.247 OA
HETATM    4  N   UNK N   1      34.015  14.873  11.220  0.00  0.00    -0.309 N 
HETATM    5  H   UNK N   1      33.890  13.576  13.364  0.00  0.00     0.164 HD
HETATM    6  H   UNK N   1      33.417  15.293  11.878  0.00  0.00     0.170 HD
ENDROOT
BRANCH   1   7
HETATM    7  C   UNK N   1      35.169  11.923  13.149  0.00  0.00     0.086 C 
HETATM    8  C   UNK N   1      34.166  10.782  13.250  0.00  0.00     0.025 C 
HETATM    9  C   UNK N   1      33.533  10.739  14.635  0.00  0.00     0.002 C 
HETATM   10  C   UNK N   1      34.616  10.582  15.697  0.00  0.00     0.000 C 
HETATM   11  C   UNK N   1      35.545  11.789  15.677  0.00  0.00     0.002 C 
HETATM   12  C   UNK N   1      36.198  11.949  14.300  0.00  0.00     0.025 C 
ENDBRANCH   1   7
BRANCH   4  13
HETATM   13  C   UNK N   1      33.951  15.309   9.864  0.00  0.00     0.036 A 
HETATM   14  C   UNK N   1      34.546  16.518   9.486  0.00  0.00     0.031 A 
HETATM   15  C   UNK N   1      34.328  17.035   8.200  0.00  0.00     0.020 A 
HETATM   16  C   UNK N   1      33.499  16.355   7.300  0.00  0.00     0.006 A 
HETATM   17  I   UNK N   1      33.078  17.152   5.402  0.00  0.00    -0.045 I 
HETATM   18  C   UNK N   1      32.905  15.152   7.671  0.00  0.00     0.020 A 
HETATM   19  C   UNK N   1      33.125  14.639   8.942  0.00  0.00     0.031 A 
ENDBRANCH   4  13
TORSDOF 2
ENDMDL
MODEL 5
REMARK VINA RESULT:      -5.8      2.037      2.958
REMARK  2 active torsions:
REMARK  status: ('A' for Active; 'I' for Inactive)
REMARK    1  A    between atoms: C_3  and  N_7 
REMARK       I    between atoms: N_7  and  C_8 
REMARK       I    between atoms: C_8  and  N_10 
REMARK    2  A    between atoms: N_10  and  C_11 
ROOT
HETATM    1  N   UNK N   1      34.667  13.207  11.672  0.00  0.00    -0.338 N 
HETATM    2  C   UNK N   1      35.095  12.429  12.697  0.00  0.00     0.321 C 
HETATM    3  O   UNK N   1      36.266  12.080  12.761  0.00  0.00    -0.247 OA
HETATM    4  N   UNK N   1      34.242  12.131  13.710  0.00  0.00    -0.309 N 
HETATM    5  H   UNK N   1      33.695  13.316  11.568  0.00  0.00     0.164 HD
HETATM    6  H   UNK N   1      33.274  12.162  13.536  0.00  0.00     0.170 HD
ENDROOT
BRANCH   1   7
HETATM    7  C   UNK N   1      35.523  13.895  10.711  0.00  0.00     0.086 C 
HETATM    8  C   UNK N   1      36.167  15.158  11.263  0.00  0.00     0.025 C 
HETATM    9  C   UNK N   1      35.248  16.358  11.082  0.00  0.00     0.002 C 
HETATM   10  C   UNK N   1      34.915  16.542   9.605  0.00  0.00     0.000 C 
HETATM   11  C   UNK N   1      34.157  15.326   9.087  0.00  0.00     0.002 C 
HETATM   12  C   UNK N   1      34.986  14.050   9.271  0.00  0.00     0.025 C 
ENDBRANCH   1   7
BRANCH   4  13
HETATM   13  C   UNK N   1      34.687  11.776  15.017  0.00  0.00     0.036 A 
HETATM   14  C   UNK N   1      34.622  10.445  15.444  0.00  0.00     0.031 A 
HETATM   15  C   UNK N   1      34.886  10.125  16.784  0.00  0.00     0.020 A 
HETATM   16  C   UNK N   1      35.194  11.137  17.702  0.00  0.00     0.006 A 
HETATM   17  I   UNK N   1      35.501  10.699  19.734  0.00  0.00    -0.045 I 
HETATM   18  C   UNK N   1      35.260  12.462  17.282  0.00  0.00     0.020 A 
HETATM   19  C   UNK N   1      35.003  12.778  15.955  0.00  0.00     0.031 A 
ENDBRANCH   4  13
TORSDOF 2
ENDMDL
MODEL 6
REMARK VINA RESULT:      -5.7      8.133     10.377
REMARK  2 active torsions:
REMARK  status: ('A' for Active; 'I' for Inactive)
REMARK    1  A    between atoms: C_3  and  N_7 
REMARK       I    between atoms: N_7  and  C_8 
REMARK       I    between atoms: C_8  and  N_10 
REMARK    2  A    between atoms: N_10  and  C_11 
ROOT
HETATM    1  N   UNK N   1      33.063  16.474   9.434  0.00  0.00    -0.338 N 
HETATM    2  C   UNK N   1      32.148  17.287   8.852  0.00  0.00     0.321 C 
HETATM    3  O   UNK N   1      32.508  18.274   8.224  0.00  0.00    -0.247 OA
HETATM    4  N   UNK N   1      30.835  16.940   8.876  0.00  0.00    -0.309 N 
HETATM    5  H   UNK N   1      32.726  15.800  10.067  0.00  0.00     0.164 HD
HETATM    6  H   UNK N   1      30.520  16.335   9.586  0.00  0.00     0.170 HD
ENDROOT
BRANCH   1   7
HETATM    7  C   UNK N   1      34.504  16.511   9.203  0.00  0.00     0.086 C 
HETATM    8  C   UNK N   1      35.022  15.331   8.392  0.00  0.00     0.025 C 
HETATM    9  C   UNK N   1      35.345  14.151   9.299  0.00  0.00     0.002 C 
HETATM   10  C   UNK N   1      36.377  14.564  10.343  0.00  0.00     0.000 C 
HETATM   11  C   UNK N   1      35.807  15.659  11.235  0.00  0.00     0.002 C 
HETATM   12  C   UNK N   1      35.402  16.881  10.404  0.00  0.00     0.025 C 
ENDBRANCH   1   7
BRANCH   4  13
HETATM   13  C   UNK N   1      29.892  17.414   7.917  0.00  0.00     0.036 A 
HETATM   14  C   UNK N   1      29.960  16.973   6.590  0.00  0.00     0.031 A 
HETATM   15  C   UNK N   1      29.154  17.573   5.610  0.00  0.00     0.020 A 
HETATM   16  C   UNK N   1      28.298  18.627   5.953  0.00  0.00     0.006 A 
HETATM   17  I   UNK N   1      27.150  19.608   4.491  0.00  0.00    -0.045 I 
HETATM   18  C   UNK N   1      28.228  19.069   7.271  0.00  0.00     0.020 A 
HETATM   19  C   UNK N   1      29.022  18.471   8.240  0.00  0.00     0.031 A 
ENDBRANCH   4  13
TORSDOF 2
ENDMDL
MODEL 7
REMARK VINA RESULT:      -5.6      5.767      8.583
REMARK  2 active torsions:
REMARK  status: ('A' for Active; 'I' for Inactive)
REMARK    1  A    between atoms: C_3  and  N_7 
REMARK       I    between atoms: N_7  and  C_8 
REMARK       I    between atoms: C_8  and  N_10 
REMARK    2  A    between atoms: N_10  and  C_11 
ROOT
HETATM    1  N   UNK N   1      34.164  14.060  11.695  0.00  0.00    -0.338 N 
HETATM    2  C   UNK N   1      34.073  14.891  10.628  0.00  0.00     0.321 C 
HETATM    3  O   UNK N   1      35.074  15.188   9.988  0.00  0.00    -0.247 OA
HETATM    4  N   UNK N   1      32.851  15.305  10.206  0.00  0.00    -0.309 N 
HETATM    5  H   UNK N   1      33.374  13.991  12.277  0.00  0.00     0.164 HD
HETATM    6  H   UNK N   1      32.106  15.308  10.849  0.00  0.00     0.170 HD
ENDROOT
BRANCH   1   7
HETATM    7  C   UNK N   1      35.331  13.262  12.056  0.00  0.00     0.086 C 
HETATM    8  C   UNK N   1      35.003  11.808  12.367  0.00  0.00     0.025 C 
HETATM    9  C   UNK N   1      34.619  11.642  13.831  0.00  0.00     0.002 C 
HETATM   10  C   UNK N   1      35.755  12.127  14.726  0.00  0.00     0.000 C 
HETATM   11  C   UNK N   1      35.996  13.614  14.502  0.00  0.00     0.002 C 
HETATM   12  C   UNK N   1      36.344  13.894  13.036  0.00  0.00     0.025 C 
ENDBRANCH   1   7
BRANCH   4  13
HETATM   13  C   UNK N   1      32.599  15.735   8.869  0.00  0.00     0.036 A 
HETATM   14  C   UNK N   1      32.385  14.792   7.857  0.00  0.00     0.031 A 
HETATM   15  C   UNK N   1      32.319  15.205   6.518  0.00  0.00     0.020 A 
HETATM   16  C   UNK N   1      32.490  16.555   6.189  0.00  0.00     0.006 A 
HETATM   17  I   UNK N   1      32.492  17.189   4.185  0.00  0.00    -0.045 I 
HETATM   18  C   UNK N   1      32.704  17.496   7.192  0.00  0.00     0.020 A 
HETATM   19  C   UNK N   1      32.763  17.088   8.517  0.00  0.00     0.031 A 
ENDBRANCH   4  13
TORSDOF 2
ENDMDL
MODEL 8
REMARK VINA RESULT:      -5.5     25.772     26.533
REMARK  2 active torsions:
REMARK  status: ('A' for Active; 'I' for Inactive)
REMARK    1  A    between atoms: C_3  and  N_7 
REMARK       I    between atoms: N_7  and  C_8 
REMARK       I    between atoms: C_8  and  N_10 
REMARK    2  A    between atoms: N_10  and  C_11 
ROOT
HETATM    1  N   UNK N   1      25.458  23.679  -6.938  0.00  0.00    -0.338 N 
HETATM    2  C   UNK N   1      25.754  24.706  -6.104  0.00  0.00     0.321 C 
HETATM    3  O   UNK N   1      26.619  24.577  -5.247  0.00  0.00    -0.247 OA
HETATM    4  N   UNK N   1      25.166  25.914  -6.296  0.00  0.00    -0.309 N 
HETATM    5  H   UNK N   1      24.646  23.769  -7.488  0.00  0.00     0.164 HD
HETATM    6  H   UNK N   1      24.305  25.949  -6.772  0.00  0.00     0.170 HD
ENDROOT
BRANCH   1   7
HETATM    7  C   UNK N   1      26.236  22.454  -7.091  0.00  0.00     0.086 C 
HETATM    8  C   UNK N   1      27.639  22.686  -7.631  0.00  0.00     0.025 C 
HETATM    9  C   UNK N   1      27.637  22.701  -9.154  0.00  0.00     0.002 C 
HETATM   10  C   UNK N   1      27.081  21.384  -9.686  0.00  0.00     0.000 C 
HETATM   11  C   UNK N   1      25.632  21.215  -9.247  0.00  0.00     0.002 C 
HETATM   12  C   UNK N   1      25.521  21.237  -7.719  0.00  0.00     0.025 C 
ENDBRANCH   1   7
BRANCH   4  13
HETATM   13  C   UNK N   1      25.742  27.137  -5.840  0.00  0.00     0.036 A 
HETATM   14  C   UNK N   1      26.835  27.692  -6.516  0.00  0.00     0.031 A 
HETATM   15  C   UNK N   1      27.514  28.790  -5.965  0.00  0.00     0.020 A 
HETATM   16  C   UNK N   1      27.114  29.317  -4.731  0.00  0.00     0.006 A 
HETATM   17  I   UNK N   1      28.171  30.898  -3.837  0.00  0.00    -0.045 I 
HETATM   18  C   UNK N   1      26.029  28.768  -4.056  0.00  0.00     0.020 A 
HETATM   19  C   UNK N   1      25.354  27.685  -4.603  0.00  0.00     0.031 A 
ENDBRANCH   4  13
TORSDOF 2
ENDMDL
MODEL 9
REMARK VINA RESULT:      -5.5      6.533      8.420
REMARK  2 active torsions:
REMARK  status: ('A' for Active; 'I' for Inactive)
REMARK    1  A    between atoms: C_3  and  N_7 
REMARK       I    between atoms: N_7  and  C_8 
REMARK       I    between atoms: C_8  and  N_10 
REMARK    2  A    between atoms: N_10  and  C_11 
ROOT
HETATM    1  N   UNK N   1      31.256  16.487   9.307  0.00  0.00    -0.338 N 
HETATM    2  C   UNK N   1      32.325  15.669   9.145  0.00  0.00     0.321 C 
HETATM    3  O   UNK N   1      32.966  15.687   8.102  0.00  0.00    -0.247 OA
HETATM    4  N   UNK N   1      32.748  14.909  10.187  0.00  0.00    -0.309 N 
HETATM    5  H   UNK N   1      30.673  16.315  10.082  0.00  0.00     0.164 HD
HETATM    6  H   UNK N   1      32.105  14.682  10.897  0.00  0.00     0.170 HD
ENDROOT
BRANCH   1   7
HETATM    7  C   UNK N   1      30.893  17.597   8.432  0.00  0.00     0.086 C 
HETATM    8  C   UNK N   1      30.181  18.734   9.153  0.00  0.00     0.025 C 
HETATM    9  C   UNK N   1      28.681  18.481   9.212  0.00  0.00     0.002 C 
HETATM   10  C   UNK N   1      28.123  18.324   7.801  0.00  0.00     0.000 C 
HETATM   11  C   UNK N   1      28.746  17.108   7.127  0.00  0.00     0.002 C 
HETATM   12  C   UNK N   1      30.271  17.244   7.063  0.00  0.00     0.025 C 
ENDBRANCH   1   7
BRANCH   4  13
HETATM   13  C   UNK N   1      34.086  14.427  10.300  0.00  0.00     0.036 A 
HETATM   14  C   UNK N   1      35.116  15.295  10.678  0.00  0.00     0.031 A 
HETATM   15  C   UNK N   1      36.451  14.870  10.611  0.00  0.00     0.020 A 
HETATM   16  C   UNK N   1      36.757  13.584  10.147  0.00  0.00     0.006 A 
HETATM   17  I   UNK N   1      38.751  12.953   9.946  0.00  0.00    -0.045 I 
HETATM   18  C   UNK N   1      35.736  12.717   9.770  0.00  0.00     0.020 A 
HETATM   19  C   UNK N   1      34.415  13.138   9.840  0.00  0.00     0.031 A 
ENDBRANCH   4  13
TORSDOF 2
ENDMDL
