REMARK  1 active torsions:
REMARK  status: ('A' for Active; 'I' for Inactive)
REMARK    1  A    between atoms: C_8  and  C_9 
REMARK       I    between atoms: C_16  and  N_17 
ROOT
HETATM    1  C   UNK N   1       0.507  -0.568  -0.000  0.00  0.00     0.069 A 
HETATM    2  N   UNK N   1       1.854  -0.391  -0.000  0.00  0.00    -0.191 N 
ATOM      3  HN  UNK N   1       2.232   0.556  -0.000  1.00  0.00     0.184 HD
HETATM    4  C   UNK N   1      -0.012  -1.866   0.000  0.00  0.00     0.049 A 
HETATM    5  C   UNK N   1       0.880  -2.941   0.000  0.00  0.00     0.108 A 
HETATM    6  N   UNK N   1       2.219  -2.713   0.000  0.00  0.00    -0.202 N 
ATOM      7  HN  UNK N   1       2.865  -3.503   0.000  1.00  0.00     0.183 HD
HETATM    8  C   UNK N   1       2.708  -1.445   0.000  0.00  0.00     0.676 A 
HETATM    9  N   UNK N   1       4.097  -1.221   0.000  0.00  0.00    -0.234 N 
HETATM   10  H   UNK N   1       4.719  -1.985   0.000  0.00  0.00     0.174 HD
HETATM   11  H   UNK N   1       4.447  -0.301   0.000  0.00  0.00     0.174 HD
ENDROOT
BRANCH   1  12
HETATM   12  C   UNK N   1      -0.363   0.624  -0.000  0.00  0.00     0.056 A 
HETATM   13  S   UNK N   1       0.211   2.176  -0.000  0.00  0.00    -0.073 SA
HETATM   14  C   UNK N   1      -1.242   2.948  -0.000  0.00  0.00     0.048 A 
HETATM   15  C   UNK N   1      -1.437   4.420   0.000  0.00  0.00     0.076 C 
HETATM   16  N   UNK N   1      -2.246   2.034   0.000  0.00  0.00    -0.357 N 
HETATM   17  C   UNK N   1      -1.772   0.737  -0.000  0.00  0.00     0.025 A 
ATOM     18  HN  UNK N   1      -3.236   2.278   0.000  1.00  0.00     0.166 HD
HETATM   19  C   UNK N   1      -2.708  -0.422   0.000  0.00  0.00     0.070 C 
ENDBRANCH   1  12
TORSDOF 1
