MODEL 1
REMARK VINA RESULT:      -5.4      0.000      0.000
REMARK  1 active torsions:
REMARK  status: ('A' for Active; 'I' for Inactive)
REMARK    1  A    between atoms: C_8  and  C_9 
REMARK       I    between atoms: C_16  and  N_17 
ROOT
HETATM    1  C   UNK N   1      35.523  11.918  16.953  0.00  0.00     0.069 A 
HETATM    2  N   UNK N   1      35.140  12.757  17.951  0.00  0.00    -0.191 N 
ATOM      3  HN  UNK N   1      34.753  13.670  17.713  1.00  0.00     0.184 HD
HETATM    4  C   UNK N   1      36.054  10.666  17.279  0.00  0.00     0.049 A 
HETATM    5  C   UNK N   1      36.172  10.322  18.627  0.00  0.00     0.108 A 
HETATM    6  N   UNK N   1      35.774  11.195  19.589  0.00  0.00    -0.202 N 
ATOM      7  HN  UNK N   1      35.863  10.937  20.572  1.00  0.00     0.183 HD
HETATM    8  C   UNK N   1      35.260  12.408  19.256  0.00  0.00     0.676 A 
HETATM    9  N   UNK N   1      34.852  13.304  20.261  0.00  0.00    -0.234 N 
HETATM   10  H   UNK N   1      34.938  13.053  21.210  0.00  0.00     0.174 HD
HETATM   11  H   UNK N   1      34.480  14.182  20.016  0.00  0.00     0.174 HD
ENDROOT
BRANCH   1  12
HETATM   12  C   UNK N   1      35.364  12.362  15.555  0.00  0.00     0.056 A 
HETATM   13  S   UNK N   1      36.226  13.607  14.887  0.00  0.00    -0.073 SA
HETATM   14  C   UNK N   1      35.566  13.548  13.381  0.00  0.00     0.048 A 
HETATM   15  C   UNK N   1      35.920  14.440  12.248  0.00  0.00     0.076 C 
HETATM   16  N   UNK N   1      34.641  12.555  13.325  0.00  0.00    -0.357 N 
HETATM   17  C   UNK N   1      34.518  11.887  14.527  0.00  0.00     0.025 A 
ATOM     18  HN  UNK N   1      34.100  12.329  12.491  1.00  0.00     0.166 HD
HETATM   19  C   UNK N   1      33.557  10.760  14.684  0.00  0.00     0.070 C 
ENDBRANCH   1  12
TORSDOF 1
ENDMDL
MODEL 2
REMARK VINA RESULT:      -5.4      1.604      2.194
REMARK  1 active torsions:
REMARK  status: ('A' for Active; 'I' for Inactive)
REMARK    1  A    between atoms: C_8  and  C_9 
REMARK       I    between atoms: C_16  and  N_17 
ROOT
HETATM    1  C   UNK N   1      35.755  12.638  16.769  0.00  0.00     0.069 A 
HETATM    2  N   UNK N   1      35.382  13.359  17.858  0.00  0.00    -0.191 N 
ATOM      3  HN  UNK N   1      35.256  14.367  17.769  1.00  0.00     0.184 HD
HETATM    4  C   UNK N   1      35.927  11.257  16.890  0.00  0.00     0.049 A 
HETATM    5  C   UNK N   1      35.708  10.664  18.135  0.00  0.00     0.108 A 
HETATM    6  N   UNK N   1      35.336  11.427  19.196  0.00  0.00    -0.202 N 
ATOM      7  HN  UNK N   1      35.178  10.987  20.103  1.00  0.00     0.183 HD
HETATM    8  C   UNK N   1      35.173  12.769  19.062  0.00  0.00     0.676 A 
HETATM    9  N   UNK N   1      34.788  13.550  20.167  0.00  0.00    -0.234 N 
HETATM   10  H   UNK N   1      34.635  13.124  21.042  0.00  0.00     0.174 HD
HETATM   11  H   UNK N   1      34.670  14.522  20.066  0.00  0.00     0.174 HD
ENDROOT
BRANCH   1  12
HETATM   12  C   UNK N   1      35.965  13.346  15.491  0.00  0.00     0.056 A 
HETATM   13  S   UNK N   1      35.319  12.847  14.052  0.00  0.00    -0.073 SA
HETATM   14  C   UNK N   1      35.934  14.045  13.107  0.00  0.00     0.048 A 
HETATM   15  C   UNK N   1      35.720  14.187  11.644  0.00  0.00     0.076 C 
HETATM   16  N   UNK N   1      36.674  14.892  13.866  0.00  0.00    -0.357 N 
HETATM   17  C   UNK N   1      36.700  14.516  15.195  0.00  0.00     0.025 A 
ATOM     18  HN  UNK N   1      37.155  15.713  13.498  1.00  0.00     0.166 HD
HETATM   19  C   UNK N   1      37.457  15.311  16.203  0.00  0.00     0.070 C 
ENDBRANCH   1  12
TORSDOF 1
ENDMDL
MODEL 3
REMARK VINA RESULT:      -5.4      8.302     10.663
REMARK  1 active torsions:
REMARK  status: ('A' for Active; 'I' for Inactive)
REMARK    1  A    between atoms: C_8  and  C_9 
REMARK       I    between atoms: C_16  and  N_17 
ROOT
HETATM    1  C   UNK N   1      32.356  17.344   8.368  0.00  0.00     0.069 A 
HETATM    2  N   UNK N   1      32.769  16.515   9.362  0.00  0.00    -0.191 N 
ATOM      3  HN  UNK N   1      32.111  15.844   9.757  1.00  0.00     0.184 HD
HETATM    4  C   UNK N   1      33.259  18.263   7.825  0.00  0.00     0.049 A 
HETATM    5  C   UNK N   1      34.562  18.295   8.328  0.00  0.00     0.108 A 
HETATM    6  N   UNK N   1      34.928  17.445   9.322  0.00  0.00    -0.202 N 
ATOM      7  HN  UNK N   1      35.881  17.474   9.685  1.00  0.00     0.183 HD
HETATM    8  C   UNK N   1      34.038  16.557   9.840  0.00  0.00     0.676 A 
HETATM    9  N   UNK N   1      34.428  15.682  10.870  0.00  0.00    -0.234 N 
HETATM   10  H   UNK N   1      35.349  15.711  11.219  0.00  0.00     0.174 HD
HETATM   11  H   UNK N   1      33.781  15.040  11.242  0.00  0.00     0.174 HD
ENDROOT
BRANCH   1  12
HETATM   12  C   UNK N   1      30.962  17.243   7.896  0.00  0.00     0.056 A 
HETATM   13  S   UNK N   1      30.514  16.417   6.534  0.00  0.00    -0.073 SA
HETATM   14  C   UNK N   1      28.898  16.713   6.618  0.00  0.00     0.048 A 
HETATM   15  C   UNK N   1      27.881  16.231   5.650  0.00  0.00     0.076 C 
HETATM   16  N   UNK N   1      28.628  17.470   7.712  0.00  0.00    -0.357 N 
HETATM   17  C   UNK N   1      29.766  17.772   8.433  0.00  0.00     0.025 A 
ATOM     18  HN  UNK N   1      27.691  17.780   7.972  1.00  0.00     0.166 HD
HETATM   19  C   UNK N   1      29.694  18.595   9.673  0.00  0.00     0.070 C 
ENDBRANCH   1  12
TORSDOF 1
ENDMDL
MODEL 4
REMARK VINA RESULT:      -5.4     16.529     18.154
REMARK  1 active torsions:
REMARK  status: ('A' for Active; 'I' for Inactive)
REMARK    1  A    between atoms: C_8  and  C_9 
REMARK       I    between atoms: C_16  and  N_17 
ROOT
HETATM    1  C   UNK N   1      19.377  17.170   8.463  0.00  0.00     0.069 A 
HETATM    2  N   UNK N   1      19.547  18.177   9.360  0.00  0.00    -0.191 N 
ATOM      3  HN  UNK N   1      20.479  18.563   9.505  1.00  0.00     0.184 HD
HETATM    4  C   UNK N   1      18.099  16.640   8.263  0.00  0.00     0.049 A 
HETATM    5  C   UNK N   1      17.036  17.169   8.998  0.00  0.00     0.108 A 
HETATM    6  N   UNK N   1      17.255  18.176   9.883  0.00  0.00    -0.202 N 
ATOM      7  HN  UNK N   1      16.473  18.558  10.416  1.00  0.00     0.183 HD
HETATM    8  C   UNK N   1      18.504  18.681  10.066  0.00  0.00     0.676 A 
HETATM    9  N   UNK N   1      18.719  19.723  10.985  0.00  0.00    -0.234 N 
HETATM   10  H   UNK N   1      17.963  20.091  11.499  0.00  0.00     0.174 HD
HETATM   11  H   UNK N   1      19.625  20.086  11.115  0.00  0.00     0.174 HD
ENDROOT
BRANCH   1  12
HETATM   12  C   UNK N   1      20.556  16.670   7.730  0.00  0.00     0.056 A 
HETATM   13  S   UNK N   1      21.224  17.449   6.431  0.00  0.00    -0.073 SA
HETATM   14  C   UNK N   1      22.440  16.381   6.135  0.00  0.00     0.048 A 
HETATM   15  C   UNK N   1      23.449  16.500   5.053  0.00  0.00     0.076 C 
HETATM   16  N   UNK N   1      22.385  15.364   7.034  0.00  0.00    -0.357 N 
HETATM   17  C   UNK N   1      21.342  15.512   7.927  0.00  0.00     0.025 A 
ATOM     18  HN  UNK N   1      23.039  14.582   7.047  1.00  0.00     0.166 HD
HETATM   19  C   UNK N   1      21.102  14.506   8.999  0.00  0.00     0.070 C 
ENDBRANCH   1  12
TORSDOF 1
ENDMDL
MODEL 5
REMARK VINA RESULT:      -5.3     20.582     21.648
REMARK  1 active torsions:
REMARK  status: ('A' for Active; 'I' for Inactive)
REMARK    1  A    between atoms: C_8  and  C_9 
REMARK       I    between atoms: C_16  and  N_17 
ROOT
HETATM    1  C   UNK N   1      20.726  18.021   2.353  0.00  0.00     0.069 A 
HETATM    2  N   UNK N   1      20.330  18.937   1.431  0.00  0.00    -0.191 N 
ATOM      3  HN  UNK N   1      19.685  18.655   0.693  1.00  0.00     0.184 HD
HETATM    4  C   UNK N   1      21.611  18.408   3.364  0.00  0.00     0.049 A 
HETATM    5  C   UNK N   1      22.059  19.731   3.389  0.00  0.00     0.108 A 
HETATM    6  N   UNK N   1      21.634  20.610   2.444  0.00  0.00    -0.202 N 
ATOM      7  HN  UNK N   1      21.966  21.575   2.469  1.00  0.00     0.183 HD
HETATM    8  C   UNK N   1      20.774  20.219   1.468  0.00  0.00     0.676 A 
HETATM    9  N   UNK N   1      20.341  21.138   0.495  0.00  0.00    -0.234 N 
HETATM   10  H   UNK N   1      20.662  22.069   0.520  0.00  0.00     0.174 HD
HETATM   11  H   UNK N   1      19.718  20.851  -0.211  0.00  0.00     0.174 HD
ENDROOT
BRANCH   1  12
HETATM   12  C   UNK N   1      20.204  16.645   2.252  0.00  0.00     0.056 A 
HETATM   13  S   UNK N   1      20.216  15.762   0.853  0.00  0.00    -0.073 SA
HETATM   14  C   UNK N   1      19.517  14.396   1.448  0.00  0.00     0.048 A 
HETATM   15  C   UNK N   1      19.229  13.165   0.671  0.00  0.00     0.076 C 
HETATM   16  N   UNK N   1      19.240  14.562   2.767  0.00  0.00    -0.357 N 
HETATM   17  C   UNK N   1      19.616  15.808   3.228  0.00  0.00     0.025 A 
ATOM     18  HN  UNK N   1      18.803  13.848   3.350  1.00  0.00     0.166 HD
HETATM   19  C   UNK N   1      19.401  16.197   4.650  0.00  0.00     0.070 C 
ENDBRANCH   1  12
TORSDOF 1
ENDMDL
MODEL 6
REMARK VINA RESULT:      -5.2      2.537      6.343
REMARK  1 active torsions:
REMARK  status: ('A' for Active; 'I' for Inactive)
REMARK    1  A    between atoms: C_8  and  C_9 
REMARK       I    between atoms: C_16  and  N_17 
ROOT
HETATM    1  C   UNK N   1      36.234  13.823  12.536  0.00  0.00     0.069 A 
HETATM    2  N   UNK N   1      35.599  15.003  12.308  0.00  0.00    -0.191 N 
ATOM      3  HN  UNK N   1      34.967  15.373  13.016  1.00  0.00     0.184 HD
HETATM    4  C   UNK N   1      37.101  13.314  11.565  0.00  0.00     0.049 A 
HETATM    5  C   UNK N   1      37.284  14.042  10.387  0.00  0.00     0.108 A 
HETATM    6  N   UNK N   1      36.627  15.217  10.205  0.00  0.00    -0.202 N 
ATOM      7  HN  UNK N   1      36.766  15.743   9.342  1.00  0.00     0.183 HD
HETATM    8  C   UNK N   1      35.787  15.698  11.159  0.00  0.00     0.676 A 
HETATM    9  N   UNK N   1      35.112  16.916  10.959  0.00  0.00    -0.234 N 
HETATM   10  H   UNK N   1      35.248  17.423  10.125  0.00  0.00     0.174 HD
HETATM   11  H   UNK N   1      34.505  17.262  11.652  0.00  0.00     0.174 HD
ENDROOT
BRANCH   1  12
HETATM   12  C   UNK N   1      35.982  13.119  13.809  0.00  0.00     0.056 A 
HETATM   13  S   UNK N   1      35.155  11.690  13.916  0.00  0.00    -0.073 SA
HETATM   14  C   UNK N   1      35.252  11.502  15.548  0.00  0.00     0.048 A 
HETATM   15  C   UNK N   1      34.684  10.369  16.321  0.00  0.00     0.076 C 
HETATM   16  N   UNK N   1      35.934  12.544  16.089  0.00  0.00    -0.357 N 
HETATM   17  C   UNK N   1      36.346  13.452  15.134  0.00  0.00     0.025 A 
ATOM     18  HN  UNK N   1      36.119  12.644  17.087  1.00  0.00     0.166 HD
HETATM   19  C   UNK N   1      37.111  14.672  15.514  0.00  0.00     0.070 C 
ENDBRANCH   1  12
TORSDOF 1
ENDMDL
MODEL 7
REMARK VINA RESULT:      -5.2      3.833      7.063
REMARK  1 active torsions:
REMARK  status: ('A' for Active; 'I' for Inactive)
REMARK    1  A    between atoms: C_8  and  C_9 
REMARK       I    between atoms: C_16  and  N_17 
ROOT
HETATM    1  C   UNK N   1      35.377  14.560  11.521  0.00  0.00     0.069 A 
HETATM    2  N   UNK N   1      34.181  14.223  10.972  0.00  0.00    -0.191 N 
ATOM      3  HN  UNK N   1      33.792  13.298  11.156  1.00  0.00     0.184 HD
HETATM    4  C   UNK N   1      35.912  15.827  11.269  0.00  0.00     0.049 A 
HETATM    5  C   UNK N   1      35.191  16.706  10.457  0.00  0.00     0.108 A 
HETATM    6  N   UNK N   1      33.999  16.322   9.932  0.00  0.00    -0.202 N 
ATOM      7  HN  UNK N   1      33.477  16.969   9.339  1.00  0.00     0.183 HD
HETATM    8  C   UNK N   1      33.492  15.087  10.185  0.00  0.00     0.676 A 
HETATM    9  N   UNK N   1      32.256  14.701   9.635  0.00  0.00    -0.234 N 
HETATM   10  H   UNK N   1      31.755  15.327   9.064  0.00  0.00     0.174 HD
HETATM   11  H   UNK N   1      31.893  13.805   9.822  0.00  0.00     0.174 HD
ENDROOT
BRANCH   1  12
HETATM   12  C   UNK N   1      36.072  13.570  12.366  0.00  0.00     0.056 A 
HETATM   13  S   UNK N   1      35.548  13.124  13.871  0.00  0.00    -0.073 SA
HETATM   14  C   UNK N   1      36.742  12.043  14.209  0.00  0.00     0.048 A 
HETATM   15  C   UNK N   1      36.864  11.255  15.461  0.00  0.00     0.076 C 
HETATM   16  N   UNK N   1      37.608  11.977  13.165  0.00  0.00    -0.357 N 
HETATM   17  C   UNK N   1      37.248  12.821  12.133  0.00  0.00     0.025 A 
ATOM     18  HN  UNK N   1      38.430  11.374  13.146  1.00  0.00     0.166 HD
HETATM   19  C   UNK N   1      38.064  12.904  10.889  0.00  0.00     0.070 C 
ENDBRANCH   1  12
TORSDOF 1
ENDMDL
MODEL 8
REMARK VINA RESULT:      -5.1     10.678     13.066
REMARK  1 active torsions:
REMARK  status: ('A' for Active; 'I' for Inactive)
REMARK    1  A    between atoms: C_8  and  C_9 
REMARK       I    between atoms: C_16  and  N_17 
ROOT
HETATM    1  C   UNK N   1      29.020  17.907   7.459  0.00  0.00     0.069 A 
HETATM    2  N   UNK N   1      30.358  17.735   7.619  0.00  0.00    -0.191 N 
ATOM      3  HN  UNK N   1      30.979  17.896   6.826  1.00  0.00     0.184 HD
HETATM    4  C   UNK N   1      28.168  17.686   8.545  0.00  0.00     0.049 A 
HETATM    5  C   UNK N   1      28.727  17.292   9.763  0.00  0.00     0.108 A 
HETATM    6  N   UNK N   1      30.072  17.133   9.873  0.00  0.00    -0.202 N 
ATOM      7  HN  UNK N   1      30.474  16.845  10.765  1.00  0.00     0.183 HD
HETATM    8  C   UNK N   1      30.887  17.352   8.808  0.00  0.00     0.676 A 
HETATM    9  N   UNK N   1      32.278  17.183   8.933  0.00  0.00    -0.234 N 
HETATM   10  H   UNK N   1      32.664  16.905   9.796  0.00  0.00     0.174 HD
HETATM   11  H   UNK N   1      32.865  17.343   8.160  0.00  0.00     0.174 HD
ENDROOT
BRANCH   1  12
HETATM   12  C   UNK N   1      28.513  18.325   6.137  0.00  0.00     0.056 A 
HETATM   13  S   UNK N   1      27.512  19.623   5.909  0.00  0.00    -0.073 SA
HETATM   14  C   UNK N   1      27.362  19.500   4.275  0.00  0.00     0.048 A 
HETATM   15  C   UNK N   1      26.561  20.405   3.412  0.00  0.00     0.076 C 
HETATM   16  N   UNK N   1      28.085  18.442   3.827  0.00  0.00    -0.357 N 
HETATM   17  C   UNK N   1      28.731  17.779   4.852  0.00  0.00     0.025 A 
ATOM     18  HN  UNK N   1      28.144  18.169   2.847  1.00  0.00     0.166 HD
HETATM   19  C   UNK N   1      29.580  16.586   4.579  0.00  0.00     0.070 C 
ENDBRANCH   1  12
TORSDOF 1
ENDMDL
MODEL 9
REMARK VINA RESULT:      -5.0      3.149      4.754
REMARK  1 active torsions:
REMARK  status: ('A' for Active; 'I' for Inactive)
REMARK    1  A    between atoms: C_8  and  C_9 
REMARK       I    between atoms: C_16  and  N_17 
ROOT
HETATM    1  C   UNK N   1      36.046  14.081  13.164  0.00  0.00     0.069 A 
HETATM    2  N   UNK N   1      36.755  14.918  13.967  0.00  0.00    -0.191 N 
ATOM      3  HN  UNK N   1      37.236  15.716  13.553  1.00  0.00     0.184 HD
HETATM    4  C   UNK N   1      35.386  12.986  13.731  0.00  0.00     0.049 A 
HETATM    5  C   UNK N   1      35.480  12.792  15.111  0.00  0.00     0.108 A 
HETATM    6  N   UNK N   1      36.201  13.656  15.871  0.00  0.00    -0.202 N 
ATOM      7  HN  UNK N   1      36.265  13.509  16.879  1.00  0.00     0.183 HD
HETATM    8  C   UNK N   1      36.837  14.716  15.306  0.00  0.00     0.676 A 
HETATM    9  N   UNK N   1      37.580  15.605  16.103  0.00  0.00    -0.234 N 
HETATM   10  H   UNK N   1      37.641  15.460  17.076  0.00  0.00     0.174 HD
HETATM   11  H   UNK N   1      38.040  16.371  15.690  0.00  0.00     0.174 HD
ENDROOT
BRANCH   1  12
HETATM   12  C   UNK N   1      36.000  14.361  11.716  0.00  0.00     0.056 A 
HETATM   13  S   UNK N   1      34.839  15.299  11.002  0.00  0.00    -0.073 SA
HETATM   14  C   UNK N   1      35.382  15.181   9.453  0.00  0.00     0.048 A 
HETATM   15  C   UNK N   1      34.758  15.822   8.269  0.00  0.00     0.076 C 
HETATM   16  N   UNK N   1      36.495  14.404   9.417  0.00  0.00    -0.357 N 
HETATM   17  C   UNK N   1      36.850  13.941  10.668  0.00  0.00     0.025 A 
ATOM     18  HN  UNK N   1      37.009  14.188   8.563  1.00  0.00     0.166 HD
HETATM   19  C   UNK N   1      38.044  13.069  10.853  0.00  0.00     0.070 C 
ENDBRANCH   1  12
TORSDOF 1
ENDMDL
