MODEL 1
REMARK VINA RESULT:      -7.4      0.000      0.000
REMARK  3 active torsions:
REMARK  status: ('A' for Active; 'I' for Inactive)
REMARK    1  A    between atoms: C_2  and  C_5 
REMARK    2  A    between atoms: C_10  and  N_11 
REMARK       I    between atoms: N_11  and  C_12 
REMARK    3  A    between atoms: C_19  and  C_20 
ROOT
HETATM    1  N   UNK N   1      30.455  16.627   8.296  0.00  0.00    -0.192 N 
HETATM    2  C   UNK N   1      31.831  16.935   8.477  0.00  0.00     0.683 A 
HETATM    3  N   UNK N   1      32.363  18.070   7.939  0.00  0.00    -0.202 N 
ATOM      4  HN  UNK N   1      31.750  18.723   7.450  1.00  0.00     0.183 HD
HETATM    5  C   UNK N   1      33.683  18.347   8.037  0.00  0.00     0.108 A 
HETATM    6  C   UNK N   1      34.526  17.456   8.683  0.00  0.00     0.049 A 
HETATM    7  N   UNK N   1      32.648  16.049   9.110  0.00  0.00    -0.190 N 
ATOM      8  HN  UNK N   1      32.254  15.194   9.502  1.00  0.00     0.184 HD
HETATM    9  C   UNK N   1      33.984  16.287   9.225  0.00  0.00     0.069 A 
HETATM   10  H   UNK N   1      30.116  15.773   8.649  0.00  0.00     0.184 HD
ENDROOT
BRANCH   1  11
HETATM   11  C   UNK N   1      29.543  17.493   7.629  0.00  0.00     0.049 A 
HETATM   12  C   UNK N   1      28.851  18.496   8.325  0.00  0.00     0.031 A 
HETATM   13  C   UNK N   1      28.063  19.418   7.642  0.00  0.00     0.018 A 
HETATM   14  C   UNK N   1      27.963  19.360   6.248  0.00  0.00     0.048 A 
HETATM   15  C   UNK N   1      28.620  18.335   5.550  0.00  0.00     0.018 A 
HETATM   16  C   UNK N   1      29.401  17.400   6.240  0.00  0.00     0.031 A 
BRANCH  14  17
HETATM   17  C   UNK N   1      27.193  20.424   5.524  0.00  0.00     0.417 C 
HETATM   18  F   UNK N   1      27.516  21.667   6.033  0.00  0.00    -0.166 F 
HETATM   19  F   UNK N   1      25.829  20.224   5.648  0.00  0.00    -0.166 F 
HETATM   20  F   UNK N   1      27.525  20.384   4.181  0.00  0.00    -0.166 F 
ENDBRANCH  14  17
ENDBRANCH   1  11
BRANCH   9  21
HETATM   21  C   UNK N   1      34.874  15.322   9.899  0.00  0.00     0.056 A 
HETATM   22  S   UNK N   1      35.021  15.131  11.539  0.00  0.00    -0.073 SA
HETATM   23  C   UNK N   1      36.149  13.930  11.516  0.00  0.00     0.048 A 
HETATM   24  N   UNK N   1      36.466  13.624  10.232  0.00  0.00    -0.357 N 
HETATM   25  C   UNK N   1      36.743  13.272  12.709  0.00  0.00     0.076 C 
HETATM   26  C   UNK N   1      35.764  14.390   9.324  0.00  0.00     0.025 A 
ATOM     27  HN  UNK N   1      37.144  12.909   9.968  1.00  0.00     0.166 HD
HETATM   28  C   UNK N   1      35.960  14.220   7.858  0.00  0.00     0.070 C 
ENDBRANCH   9  21
TORSDOF 3
ENDMDL
MODEL 2
REMARK VINA RESULT:      -7.1      2.222      3.302
REMARK  3 active torsions:
REMARK  status: ('A' for Active; 'I' for Inactive)
REMARK    1  A    between atoms: C_2  and  C_5 
REMARK    2  A    between atoms: C_10  and  N_11 
REMARK       I    between atoms: N_11  and  C_12 
REMARK    3  A    between atoms: C_19  and  C_20 
ROOT
HETATM    1  N   UNK N   1      32.309  14.839   9.313  0.00  0.00    -0.192 N 
HETATM    2  C   UNK N   1      33.489  15.231  10.004  0.00  0.00     0.683 A 
HETATM    3  N   UNK N   1      34.048  16.455   9.778  0.00  0.00    -0.202 N 
ATOM      4  HN  UNK N   1      33.580  17.107   9.148  1.00  0.00     0.183 HD
HETATM    5  C   UNK N   1      35.208  16.821  10.368  0.00  0.00     0.108 A 
HETATM    6  C   UNK N   1      35.861  15.934  11.211  0.00  0.00     0.049 A 
HETATM    7  N   UNK N   1      34.121  14.349  10.825  0.00  0.00    -0.190 N 
ATOM      8  HN  UNK N   1      33.711  13.429  10.985  1.00  0.00     0.184 HD
HETATM    9  C   UNK N   1      35.295  14.676  11.434  0.00  0.00     0.069 A 
HETATM   10  H   UNK N   1      31.963  13.928   9.458  0.00  0.00     0.184 HD
ENDROOT
BRANCH   1  11
HETATM   11  C   UNK N   1      31.604  15.697   8.425  0.00  0.00     0.049 A 
HETATM   12  C   UNK N   1      31.680  15.525   7.034  0.00  0.00     0.031 A 
HETATM   13  C   UNK N   1      30.885  16.287   6.181  0.00  0.00     0.018 A 
HETATM   14  C   UNK N   1      29.992  17.226   6.705  0.00  0.00     0.048 A 
HETATM   15  C   UNK N   1      29.941  17.431   8.093  0.00  0.00     0.018 A 
HETATM   16  C   UNK N   1      30.750  16.674   8.949  0.00  0.00     0.031 A 
BRANCH  14  17
HETATM   17  C   UNK N   1      29.073  17.961   5.776  0.00  0.00     0.417 C 
HETATM   18  F   UNK N   1      29.767  18.367   4.652  0.00  0.00    -0.166 F 
HETATM   19  F   UNK N   1      28.521  19.070   6.394  0.00  0.00    -0.166 F 
HETATM   20  F   UNK N   1      28.048  17.113   5.393  0.00  0.00    -0.166 F 
ENDBRANCH  14  17
ENDBRANCH   1  11
BRANCH   9  21
HETATM   21  C   UNK N   1      35.989  13.716  12.314  0.00  0.00     0.056 A 
HETATM   22  S   UNK N   1      35.521  13.307  13.851  0.00  0.00    -0.073 SA
HETATM   23  C   UNK N   1      36.735  12.239  14.169  0.00  0.00     0.048 A 
HETATM   24  N   UNK N   1      37.562  12.153  13.096  0.00  0.00    -0.357 N 
HETATM   25  C   UNK N   1      36.915  11.478  15.433  0.00  0.00     0.076 C 
HETATM   26  C   UNK N   1      37.158  12.968  12.058  0.00  0.00     0.025 A 
ATOM     27  HN  UNK N   1      38.386  11.553  13.059  1.00  0.00     0.166 HD
HETATM   28  C   UNK N   1      37.925  13.031  10.783  0.00  0.00     0.070 C 
ENDBRANCH   9  21
TORSDOF 3
ENDMDL
MODEL 3
REMARK VINA RESULT:      -7.0      3.628      5.205
REMARK  3 active torsions:
REMARK  status: ('A' for Active; 'I' for Inactive)
REMARK    1  A    between atoms: C_2  and  C_5 
REMARK    2  A    between atoms: C_10  and  N_11 
REMARK       I    between atoms: N_11  and  C_12 
REMARK    3  A    between atoms: C_19  and  C_20 
ROOT
HETATM    1  N   UNK N   1      32.869  15.262  10.085  0.00  0.00    -0.192 N 
HETATM    2  C   UNK N   1      34.066  14.621  10.507  0.00  0.00     0.683 A 
HETATM    3  N   UNK N   1      35.107  14.462   9.640  0.00  0.00    -0.202 N 
ATOM      4  HN  UNK N   1      35.039  14.856   8.702  1.00  0.00     0.183 HD
HETATM    5  C   UNK N   1      36.227  13.793   9.997  0.00  0.00     0.108 A 
HETATM    6  C   UNK N   1      36.322  13.238  11.264  0.00  0.00     0.049 A 
HETATM    7  N   UNK N   1      34.144  14.077  11.752  0.00  0.00    -0.190 N 
ATOM      8  HN  UNK N   1      33.360  14.184  12.397  1.00  0.00     0.184 HD
HETATM    9  C   UNK N   1      35.251  13.390  12.149  0.00  0.00     0.069 A 
HETATM   10  H   UNK N   1      32.116  15.310  10.718  0.00  0.00     0.184 HD
ENDROOT
BRANCH   1  11
HETATM   11  C   UNK N   1      32.705  15.837   8.794  0.00  0.00     0.049 A 
HETATM   12  C   UNK N   1      33.256  17.089   8.480  0.00  0.00     0.031 A 
HETATM   13  C   UNK N   1      33.201  17.583   7.179  0.00  0.00     0.018 A 
HETATM   14  C   UNK N   1      32.605  16.826   6.166  0.00  0.00     0.048 A 
HETATM   15  C   UNK N   1      32.016  15.591   6.482  0.00  0.00     0.018 A 
HETATM   16  C   UNK N   1      32.060  15.103   7.793  0.00  0.00     0.031 A 
BRANCH  14  17
HETATM   17  C   UNK N   1      32.647  17.329   4.754  0.00  0.00     0.417 C 
HETATM   18  F   UNK N   1      31.414  17.841   4.400  0.00  0.00    -0.166 F 
HETATM   19  F   UNK N   1      32.988  16.317   3.874  0.00  0.00    -0.166 F 
HETATM   20  F   UNK N   1      33.597  18.332   4.663  0.00  0.00    -0.166 F 
ENDBRANCH  14  17
ENDBRANCH   1  11
BRANCH   9  21
HETATM   21  C   UNK N   1      35.331  12.788  13.494  0.00  0.00     0.056 A 
HETATM   22  S   UNK N   1      34.620  11.363  13.954  0.00  0.00    -0.073 SA
HETATM   23  C   UNK N   1      35.133  11.362  15.520  0.00  0.00     0.048 A 
HETATM   24  N   UNK N   1      35.880  12.470  15.758  0.00  0.00    -0.357 N 
HETATM   25  C   UNK N   1      34.834  10.316  16.532  0.00  0.00     0.076 C 
HETATM   26  C   UNK N   1      35.997  13.270  14.640  0.00  0.00     0.025 A 
ATOM     27  HN  UNK N   1      36.306  12.686  16.658  1.00  0.00     0.166 HD
HETATM   28  C   UNK N   1      36.774  14.541  14.679  0.00  0.00     0.070 C 
ENDBRANCH   9  21
TORSDOF 3
ENDMDL
MODEL 4
REMARK VINA RESULT:      -6.9      5.536     10.068
REMARK  3 active torsions:
REMARK  status: ('A' for Active; 'I' for Inactive)
REMARK    1  A    between atoms: C_2  and  C_5 
REMARK    2  A    between atoms: C_10  and  N_11 
REMARK       I    between atoms: N_11  and  C_12 
REMARK    3  A    between atoms: C_19  and  C_20 
ROOT
HETATM    1  N   UNK N   1      27.936  17.341   6.847  0.00  0.00    -0.192 N 
HETATM    2  C   UNK N   1      27.442  18.173   5.805  0.00  0.00     0.683 A 
HETATM    3  N   UNK N   1      28.263  19.073   5.191  0.00  0.00    -0.202 N 
ATOM      4  HN  UNK N   1      29.249  19.106   5.450  1.00  0.00     0.183 HD
HETATM    5  C   UNK N   1      27.797  19.924   4.248  0.00  0.00     0.108 A 
HETATM    6  C   UNK N   1      26.455  19.900   3.902  0.00  0.00     0.049 A 
HETATM    7  N   UNK N   1      26.121  18.142   5.479  0.00  0.00    -0.190 N 
ATOM      8  HN  UNK N   1      25.503  17.478   5.946  1.00  0.00     0.184 HD
HETATM    9  C   UNK N   1      25.611  18.986   4.539  0.00  0.00     0.069 A 
HETATM   10  H   UNK N   1      27.304  16.742   7.307  0.00  0.00     0.184 HD
ENDROOT
BRANCH   1  11
HETATM   11  C   UNK N   1      29.298  17.331   7.258  0.00  0.00     0.049 A 
HETATM   12  C   UNK N   1      30.273  16.636   6.525  0.00  0.00     0.031 A 
HETATM   13  C   UNK N   1      31.621  16.739   6.862  0.00  0.00     0.018 A 
HETATM   14  C   UNK N   1      32.017  17.551   7.929  0.00  0.00     0.048 A 
HETATM   15  C   UNK N   1      31.043  18.216   8.690  0.00  0.00     0.018 A 
HETATM   16  C   UNK N   1      29.688  18.100   8.359  0.00  0.00     0.031 A 
BRANCH  14  17
HETATM   17  C   UNK N   1      33.479  17.729   8.210  0.00  0.00     0.417 C 
HETATM   18  F   UNK N   1      34.226  17.141   7.207  0.00  0.00    -0.166 F 
HETATM   19  F   UNK N   1      33.827  17.165   9.425  0.00  0.00    -0.166 F 
HETATM   20  F   UNK N   1      33.767  19.083   8.253  0.00  0.00    -0.166 F 
ENDBRANCH  14  17
ENDBRANCH   1  11
BRANCH   9  21
HETATM   21  C   UNK N   1      24.177  18.963   4.194  0.00  0.00     0.056 A 
HETATM   22  S   UNK N   1      23.399  20.072   3.238  0.00  0.00    -0.073 SA
HETATM   23  C   UNK N   1      21.893  19.408   3.319  0.00  0.00     0.048 A 
HETATM   24  N   UNK N   1      21.924  18.295   4.095  0.00  0.00    -0.357 N 
HETATM   25  C   UNK N   1      20.674  19.935   2.652  0.00  0.00     0.076 C 
HETATM   26  C   UNK N   1      23.187  18.037   4.586  0.00  0.00     0.025 A 
ATOM     27  HN  UNK N   1      21.109  17.715   4.291  1.00  0.00     0.166 HD
HETATM   28  C   UNK N   1      23.447  16.862   5.465  0.00  0.00     0.070 C 
ENDBRANCH   9  21
TORSDOF 3
ENDMDL
MODEL 5
REMARK VINA RESULT:      -6.9      3.574      5.257
REMARK  3 active torsions:
REMARK  status: ('A' for Active; 'I' for Inactive)
REMARK    1  A    between atoms: C_2  and  C_5 
REMARK    2  A    between atoms: C_10  and  N_11 
REMARK       I    between atoms: N_11  and  C_12 
REMARK    3  A    between atoms: C_19  and  C_20 
ROOT
HETATM    1  N   UNK N   1      33.092  15.244   9.767  0.00  0.00    -0.192 N 
HETATM    2  C   UNK N   1      34.139  14.417  10.260  0.00  0.00     0.683 A 
HETATM    3  N   UNK N   1      35.123  13.976   9.426  0.00  0.00    -0.202 N 
ATOM      4  HN  UNK N   1      35.131  14.290   8.455  1.00  0.00     0.183 HD
HETATM    5  C   UNK N   1      36.088  13.132   9.856  0.00  0.00     0.108 A 
HETATM    6  C   UNK N   1      36.076  12.685  11.169  0.00  0.00     0.049 A 
HETATM    7  N   UNK N   1      34.111  13.983  11.550  0.00  0.00    -0.190 N 
ATOM      8  HN  UNK N   1      33.368  14.301  12.172  1.00  0.00     0.184 HD
HETATM    9  C   UNK N   1      35.060  13.127  12.022  0.00  0.00     0.069 A 
HETATM   10  H   UNK N   1      32.367  15.498  10.383  0.00  0.00     0.184 HD
ENDROOT
BRANCH   1  11
HETATM   11  C   UNK N   1      33.041  15.721   8.428  0.00  0.00     0.049 A 
HETATM   12  C   UNK N   1      32.405  14.984   7.417  0.00  0.00     0.031 A 
HETATM   13  C   UNK N   1      32.249  15.519   6.141  0.00  0.00     0.018 A 
HETATM   14  C   UNK N   1      32.714  16.807   5.858  0.00  0.00     0.048 A 
HETATM   15  C   UNK N   1      33.386  17.533   6.854  0.00  0.00     0.018 A 
HETATM   16  C   UNK N   1      33.555  16.988   8.132  0.00  0.00     0.031 A 
BRANCH  14  17
HETATM   17  C   UNK N   1      32.443  17.403   4.509  0.00  0.00     0.417 C 
HETATM   18  F   UNK N   1      31.211  18.028   4.510  0.00  0.00    -0.166 F 
HETATM   19  F   UNK N   1      32.460  16.434   3.522  0.00  0.00    -0.166 F 
HETATM   20  F   UNK N   1      33.424  18.338   4.226  0.00  0.00    -0.166 F 
ENDBRANCH  14  17
ENDBRANCH   1  11
BRANCH   9  21
HETATM   21  C   UNK N   1      35.025  12.644  13.415  0.00  0.00     0.056 A 
HETATM   22  S   UNK N   1      35.608  13.464  14.733  0.00  0.00    -0.073 SA
HETATM   23  C   UNK N   1      35.230  12.336  15.873  0.00  0.00     0.048 A 
HETATM   24  N   UNK N   1      34.635  11.269  15.282  0.00  0.00    -0.357 N 
HETATM   25  C   UNK N   1      35.493  12.452  17.332  0.00  0.00     0.076 C 
HETATM   26  C   UNK N   1      34.516  11.428  13.917  0.00  0.00     0.025 A 
ATOM     27  HN  UNK N   1      34.313  10.444  15.789  1.00  0.00     0.166 HD
HETATM   28  C   UNK N   1      33.894  10.372  13.069  0.00  0.00     0.070 C 
ENDBRANCH   9  21
TORSDOF 3
ENDMDL
MODEL 6
REMARK VINA RESULT:      -6.7      7.664     11.070
REMARK  3 active torsions:
REMARK  status: ('A' for Active; 'I' for Inactive)
REMARK    1  A    between atoms: C_2  and  C_5 
REMARK    2  A    between atoms: C_10  and  N_11 
REMARK       I    between atoms: N_11  and  C_12 
REMARK    3  A    between atoms: C_19  and  C_20 
ROOT
HETATM    1  N   UNK N   1      34.486  12.048  13.791  0.00  0.00    -0.192 N 
HETATM    2  C   UNK N   1      34.941  13.094  12.941  0.00  0.00     0.683 A 
HETATM    3  N   UNK N   1      35.737  14.087  13.432  0.00  0.00    -0.202 N 
ATOM      4  HN  UNK N   1      36.048  14.042  14.402  1.00  0.00     0.183 HD
HETATM    5  C   UNK N   1      36.122  15.129  12.660  0.00  0.00     0.108 A 
HETATM    6  C   UNK N   1      35.689  15.208  11.345  0.00  0.00     0.049 A 
HETATM    7  N   UNK N   1      34.504  13.161  11.654  0.00  0.00    -0.190 N 
ATOM      8  HN  UNK N   1      33.898  12.426  11.289  1.00  0.00     0.184 HD
HETATM    9  C   UNK N   1      34.863  14.197  10.845  0.00  0.00     0.069 A 
HETATM   10  H   UNK N   1      33.868  11.378  13.419  0.00  0.00     0.184 HD
ENDROOT
BRANCH   1  11
HETATM   11  C   UNK N   1      34.882  11.922  15.152  0.00  0.00     0.049 A 
HETATM   12  C   UNK N   1      34.697  12.973  16.063  0.00  0.00     0.031 A 
HETATM   13  C   UNK N   1      34.967  12.793  17.418  0.00  0.00     0.018 A 
HETATM   14  C   UNK N   1      35.416  11.554  17.885  0.00  0.00     0.048 A 
HETATM   15  C   UNK N   1      35.642  10.512  16.972  0.00  0.00     0.018 A 
HETATM   16  C   UNK N   1      35.383  10.698  15.610  0.00  0.00     0.031 A 
BRANCH  14  17
HETATM   17  C   UNK N   1      35.603  11.352  19.359  0.00  0.00     0.417 C 
HETATM   18  F   UNK N   1      36.782  10.671  19.594  0.00  0.00    -0.166 F 
HETATM   19  F   UNK N   1      34.550  10.636  19.902  0.00  0.00    -0.166 F 
HETATM   20  F   UNK N   1      35.663  12.588  19.979  0.00  0.00    -0.166 F 
ENDBRANCH  14  17
ENDBRANCH   1  11
BRANCH   9  21
HETATM   21  C   UNK N   1      34.381  14.279   9.453  0.00  0.00     0.056 A 
HETATM   22  S   UNK N   1      32.853  14.727   8.989  0.00  0.00    -0.073 SA
HETATM   23  C   UNK N   1      33.070  14.578   7.362  0.00  0.00     0.048 A 
HETATM   24  N   UNK N   1      34.340  14.171   7.105  0.00  0.00    -0.357 N 
HETATM   25  C   UNK N   1      32.044  14.843   6.320  0.00  0.00     0.076 C 
HETATM   26  C   UNK N   1      35.078  14.002   8.258  0.00  0.00     0.025 A 
ATOM     27  HN  UNK N   1      34.706  14.011   6.167  1.00  0.00     0.166 HD
HETATM   28  C   UNK N   1      36.498  13.556   8.206  0.00  0.00     0.070 C 
ENDBRANCH   9  21
TORSDOF 3
ENDMDL
MODEL 7
REMARK VINA RESULT:      -6.7      5.579      9.654
REMARK  3 active torsions:
REMARK  status: ('A' for Active; 'I' for Inactive)
REMARK    1  A    between atoms: C_2  and  C_5 
REMARK    2  A    between atoms: C_10  and  N_11 
REMARK       I    between atoms: N_11  and  C_12 
REMARK    3  A    between atoms: C_19  and  C_20 
ROOT
HETATM    1  N   UNK N   1      28.608  16.837   6.661  0.00  0.00    -0.192 N 
HETATM    2  C   UNK N   1      27.827  17.548   5.708  0.00  0.00     0.683 A 
HETATM    3  N   UNK N   1      28.306  18.690   5.136  0.00  0.00    -0.202 N 
ATOM      4  HN  UNK N   1      29.253  18.999   5.357  1.00  0.00     0.183 HD
HETATM    5  C   UNK N   1      27.554  19.421   4.282  0.00  0.00     0.108 A 
HETATM    6  C   UNK N   1      26.259  19.019   3.989  0.00  0.00     0.049 A 
HETATM    7  N   UNK N   1      26.557  17.145   5.434  0.00  0.00    -0.190 N 
ATOM      8  HN  UNK N   1      26.192  16.299   5.872  1.00  0.00     0.184 HD
HETATM    9  C   UNK N   1      25.763  17.856   4.585  0.00  0.00     0.069 A 
HETATM   10  H   UNK N   1      28.211  16.049   7.097  0.00  0.00     0.184 HD
ENDROOT
BRANCH   1  11
HETATM   11  C   UNK N   1      29.935  17.209   7.014  0.00  0.00     0.049 A 
HETATM   12  C   UNK N   1      30.221  17.785   8.261  0.00  0.00     0.031 A 
HETATM   13  C   UNK N   1      31.538  18.025   8.647  0.00  0.00     0.018 A 
HETATM   14  C   UNK N   1      32.592  17.680   7.796  0.00  0.00     0.048 A 
HETATM   15  C   UNK N   1      32.311  17.140   6.530  0.00  0.00     0.018 A 
HETATM   16  C   UNK N   1      30.986  16.913   6.139  0.00  0.00     0.031 A 
BRANCH  14  17
HETATM   17  C   UNK N   1      34.004  17.850   8.272  0.00  0.00     0.417 C 
HETATM   18  F   UNK N   1      34.131  17.353   9.555  0.00  0.00    -0.166 F 
HETATM   19  F   UNK N   1      34.376  19.183   8.263  0.00  0.00    -0.166 F 
HETATM   20  F   UNK N   1      34.850  17.150   7.429  0.00  0.00    -0.166 F 
ENDBRANCH  14  17
ENDBRANCH   1  11
BRANCH   9  21
HETATM   21  C   UNK N   1      24.381  17.428   4.297  0.00  0.00     0.056 A 
HETATM   22  S   UNK N   1      23.008  18.162   4.867  0.00  0.00    -0.073 SA
HETATM   23  C   UNK N   1      21.915  17.158   4.151  0.00  0.00     0.048 A 
HETATM   24  N   UNK N   1      22.566  16.204   3.439  0.00  0.00    -0.357 N 
HETATM   25  C   UNK N   1      20.436  17.263   4.260  0.00  0.00     0.076 C 
HETATM   26  C   UNK N   1      23.937  16.344   3.511  0.00  0.00     0.025 A 
ATOM     27  HN  UNK N   1      22.097  15.470   2.909  1.00  0.00     0.166 HD
HETATM   28  C   UNK N   1      24.847  15.400   2.803  0.00  0.00     0.070 C 
ENDBRANCH   9  21
TORSDOF 3
ENDMDL
MODEL 8
REMARK VINA RESULT:      -6.6      7.872     10.842
REMARK  3 active torsions:
REMARK  status: ('A' for Active; 'I' for Inactive)
REMARK    1  A    between atoms: C_2  and  C_5 
REMARK    2  A    between atoms: C_10  and  N_11 
REMARK       I    between atoms: N_11  and  C_12 
REMARK    3  A    between atoms: C_19  and  C_20 
ROOT
HETATM    1  N   UNK N   1      34.423  12.759  13.123  0.00  0.00    -0.192 N 
HETATM    2  C   UNK N   1      35.374  12.960  12.085  0.00  0.00     0.683 A 
HETATM    3  N   UNK N   1      36.699  12.722  12.307  0.00  0.00    -0.202 N 
ATOM      4  HN  UNK N   1      36.994  12.346  13.208  1.00  0.00     0.183 HD
HETATM    5  C   UNK N   1      37.630  12.973  11.358  0.00  0.00     0.108 A 
HETATM    6  C   UNK N   1      37.241  13.501  10.136  0.00  0.00     0.049 A 
HETATM    7  N   UNK N   1      34.979  13.483  10.892  0.00  0.00    -0.190 N 
ATOM      8  HN  UNK N   1      33.991  13.674  10.730  1.00  0.00     0.184 HD
HETATM    9  C   UNK N   1      35.885  13.757   9.913  0.00  0.00     0.069 A 
HETATM   10  H   UNK N   1      33.483  12.994  12.947  0.00  0.00     0.184 HD
ENDROOT
BRANCH   1  11
HETATM   11  C   UNK N   1      34.762  12.236  14.401  0.00  0.00     0.049 A 
HETATM   12  C   UNK N   1      35.249  13.068  15.422  0.00  0.00     0.031 A 
HETATM   13  C   UNK N   1      35.454  12.569  16.706  0.00  0.00     0.018 A 
HETATM   14  C   UNK N   1      35.164  11.232  16.994  0.00  0.00     0.048 A 
HETATM   15  C   UNK N   1      34.716  10.385  15.968  0.00  0.00     0.018 A 
HETATM   16  C   UNK N   1      34.523  10.885  14.675  0.00  0.00     0.031 A 
BRANCH  14  17
HETATM   17  C   UNK N   1      35.295  10.742  18.405  0.00  0.00     0.417 C 
HETATM   18  F   UNK N   1      34.367   9.747  18.645  0.00  0.00    -0.166 F 
HETATM   19  F   UNK N   1      35.101  11.771  19.311  0.00  0.00    -0.166 F 
HETATM   20  F   UNK N   1      36.567  10.228  18.588  0.00  0.00    -0.166 F 
ENDBRANCH  14  17
ENDBRANCH   1  11
BRANCH   9  21
HETATM   21  C   UNK N   1      35.461  14.336   8.624  0.00  0.00     0.056 A 
HETATM   22  S   UNK N   1      35.499  13.559   7.160  0.00  0.00    -0.073 SA
HETATM   23  C   UNK N   1      34.904  14.793   6.245  0.00  0.00     0.048 A 
HETATM   24  N   UNK N   1      34.651  15.868   7.034  0.00  0.00    -0.357 N 
HETATM   25  C   UNK N   1      34.675  14.755   4.777  0.00  0.00     0.076 C 
HETATM   26  C   UNK N   1      34.956  15.626   8.358  0.00  0.00     0.025 A 
ATOM     27  HN  UNK N   1      34.277  16.751   6.690  1.00  0.00     0.166 HD
HETATM   28  C   UNK N   1      34.756  16.674   9.399  0.00  0.00     0.070 C 
ENDBRANCH   9  21
TORSDOF 3
ENDMDL
MODEL 9
REMARK VINA RESULT:      -6.5      8.017     11.584
REMARK  3 active torsions:
REMARK  status: ('A' for Active; 'I' for Inactive)
REMARK    1  A    between atoms: C_2  and  C_5 
REMARK    2  A    between atoms: C_10  and  N_11 
REMARK       I    between atoms: N_11  and  C_12 
REMARK    3  A    between atoms: C_19  and  C_20 
ROOT
HETATM    1  N   UNK N   1      34.425  12.726  14.671  0.00  0.00    -0.192 N 
HETATM    2  C   UNK N   1      35.247  12.875  13.520  0.00  0.00     0.683 A 
HETATM    3  N   UNK N   1      36.470  12.275  13.462  0.00  0.00    -0.202 N 
ATOM      4  HN  UNK N   1      36.766  11.672  14.230  1.00  0.00     0.183 HD
HETATM    5  C   UNK N   1      37.299  12.461  12.409  0.00  0.00     0.108 A 
HETATM    6  C   UNK N   1      36.913  13.293  11.369  0.00  0.00     0.049 A 
HETATM    7  N   UNK N   1      34.857  13.698  12.509  0.00  0.00    -0.190 N 
ATOM      8  HN  UNK N   1      33.948  14.159  12.557  1.00  0.00     0.184 HD
HETATM    9  C   UNK N   1      35.664  13.918  11.434  0.00  0.00     0.069 A 
HETATM   10  H   UNK N   1      33.572  13.218  14.704  0.00  0.00     0.184 HD
ENDROOT
BRANCH   1  11
HETATM   11  C   UNK N   1      34.772  11.900  15.776  0.00  0.00     0.049 A 
HETATM   12  C   UNK N   1      35.246  12.453  16.976  0.00  0.00     0.031 A 
HETATM   13  C   UNK N   1      35.459  11.647  18.092  0.00  0.00     0.018 A 
HETATM   14  C   UNK N   1      35.191  10.276  18.030  0.00  0.00     0.048 A 
HETATM   15  C   UNK N   1      34.756   9.711  16.820  0.00  0.00     0.018 A 
HETATM   16  C   UNK N   1      34.555  10.520  15.696  0.00  0.00     0.031 A 
BRANCH  14  17
HETATM   17  C   UNK N   1      35.329   9.446  19.271  0.00  0.00     0.417 C 
HETATM   18  F   UNK N   1      36.649   9.426  19.678  0.00  0.00    -0.166 F 
HETATM   19  F   UNK N   1      34.903   8.147  19.052  0.00  0.00    -0.166 F 
HETATM   20  F   UNK N   1      34.554  10.003  20.273  0.00  0.00    -0.166 F 
ENDBRANCH  14  17
ENDBRANCH   1  11
BRANCH   9  21
HETATM   21  C   UNK N   1      35.250  14.821  10.342  0.00  0.00     0.056 A 
HETATM   22  S   UNK N   1      35.257  16.477  10.409  0.00  0.00    -0.073 SA
HETATM   23  C   UNK N   1      34.685  16.756   8.888  0.00  0.00     0.048 A 
HETATM   24  N   UNK N   1      34.461  15.574   8.260  0.00  0.00    -0.357 N 
HETATM   25  C   UNK N   1      34.445  18.091   8.281  0.00  0.00     0.076 C 
HETATM   26  C   UNK N   1      34.771  14.492   9.057  0.00  0.00     0.025 A 
ATOM     27  HN  UNK N   1      34.105  15.495   7.307  1.00  0.00     0.166 HD
HETATM   28  C   UNK N   1      34.597  13.096   8.565  0.00  0.00     0.070 C 
ENDBRANCH   9  21
TORSDOF 3
ENDMDL
