MODEL 1
REMARK VINA RESULT:      -7.3      0.000      0.000
REMARK  4 active torsions:
REMARK  status: ('A' for Active; 'I' for Inactive)
REMARK    1  A    between atoms: N_1  and  C_2 
REMARK    2  A    between atoms: C_8  and  C_9 
REMARK       I    between atoms: C_16  and  N_17 
REMARK    3  A    between atoms: N_17  and  C_18 
REMARK    4  A    between atoms: C_21  and  N_22 
ROOT
HETATM    1  C   UNK N   1      32.590  16.719   5.591  0.00  0.00     0.069 A 
HETATM    2  N   UNK N   1      31.353  17.264   5.485  0.00  0.00    -0.190 N 
ATOM      3  HN  UNK N   1      30.878  17.576   6.332  1.00  0.00     0.184 HD
HETATM    4  C   UNK N   1      33.241  16.285   4.434  0.00  0.00     0.049 A 
HETATM    5  C   UNK N   1      32.581  16.415   3.209  0.00  0.00     0.108 A 
HETATM    6  N   UNK N   1      31.341  16.973   3.155  0.00  0.00    -0.202 N 
ATOM      7  HN  UNK N   1      30.869  17.068   2.255  1.00  0.00     0.183 HD
HETATM    8  C   UNK N   1      30.726  17.406   4.287  0.00  0.00     0.683 A 
HETATM    9  N   UNK N   1      29.437  18.016   4.209  0.00  0.00    -0.192 N 
HETATM   10  H   UNK N   1      28.980  18.013   3.338  0.00  0.00     0.184 HD
ENDROOT
BRANCH   9  11
HETATM   11  C   UNK N   1      28.766  18.628   5.313  0.00  0.00     0.051 A 
HETATM   12  C   UNK N   1      27.972  19.768   5.141  0.00  0.00     0.030 A 
HETATM   13  C   UNK N   1      27.331  20.373   6.216  0.00  0.00     0.005 A 
HETATM   14  C   UNK N   1      27.468  19.838   7.490  0.00  0.00     0.036 A 
HETATM   15  C   UNK N   1      28.241  18.689   7.695  0.00  0.00     0.105 A 
HETATM   16  C   UNK N   1      28.891  18.082   6.599  0.00  0.00     0.066 A 
BRANCH  15  17
HETATM   17  N   UNK N   1      28.361  18.150   9.004  0.00  0.00    -0.116 N 
HETATM   18  O   UNK N   1      29.304  18.588   9.813  0.00  0.00    -0.532 OA
HETATM   19  O   UNK N   1      27.611  17.302   9.382  0.00  0.00    -0.532 OA
ENDBRANCH  15  17
ENDBRANCH   9  11
BRANCH   1  20
HETATM   20  C   UNK N   1      33.239  16.630   6.919  0.00  0.00     0.058 A 
HETATM   21  C   UNK N   1      33.242  15.537   7.821  0.00  0.00     0.027 A 
HETATM   22  N   UNK N   1      33.914  15.756   9.003  0.00  0.00    -0.340 N 
HETATM   23  C   UNK N   1      32.602  14.224   7.556  0.00  0.00     0.070 C 
HETATM   24  C   UNK N   1      34.445  17.000   9.057  0.00  0.00     0.143 A 
ATOM     25  HN  UNK N   1      34.001  15.065   9.748  1.00  0.00     0.168 HD
HETATM   26  S   UNK N   1      34.106  17.829   7.670  0.00  0.00    -0.050 SA
BRANCH  24  27
HETATM   27  N   UNK N   1      35.172  17.494  10.156  0.00  0.00    -0.380 N 
HETATM   28  H   UNK N   1      35.566  16.873  10.811  0.00  0.00     0.158 HD
HETATM   29  H   UNK N   1      35.288  18.465  10.272  0.00  0.00     0.158 HD
ENDBRANCH  24  27
ENDBRANCH   1  20
TORSDOF 4
ENDMDL
MODEL 2
REMARK VINA RESULT:      -7.2      3.025      6.183
REMARK  4 active torsions:
REMARK  status: ('A' for Active; 'I' for Inactive)
REMARK    1  A    between atoms: N_1  and  C_2 
REMARK    2  A    between atoms: C_8  and  C_9 
REMARK       I    between atoms: C_16  and  N_17 
REMARK    3  A    between atoms: N_17  and  C_18 
REMARK    4  A    between atoms: C_21  and  N_22 
ROOT
HETATM    1  C   UNK N   1      28.874  16.702   6.180  0.00  0.00     0.069 A 
HETATM    2  N   UNK N   1      30.186  16.471   6.434  0.00  0.00    -0.190 N 
ATOM      3  HN  UNK N   1      30.740  17.207   6.871  1.00  0.00     0.184 HD
HETATM    4  C   UNK N   1      28.115  15.697   5.575  0.00  0.00     0.049 A 
HETATM    5  C   UNK N   1      28.743  14.495   5.240  0.00  0.00     0.108 A 
HETATM    6  N   UNK N   1      30.063  14.311   5.520  0.00  0.00    -0.202 N 
ATOM      7  HN  UNK N   1      30.512  13.429   5.275  1.00  0.00     0.183 HD
HETATM    8  C   UNK N   1      30.787  15.291   6.123  0.00  0.00     0.683 A 
HETATM    9  N   UNK N   1      32.163  15.071   6.436  0.00  0.00    -0.192 N 
HETATM   10  H   UNK N   1      32.580  14.242   6.110  0.00  0.00     0.184 HD
ENDROOT
BRANCH   9  11
HETATM   11  C   UNK N   1      32.973  15.975   7.190  0.00  0.00     0.051 A 
HETATM   12  C   UNK N   1      33.362  17.213   6.665  0.00  0.00     0.030 A 
HETATM   13  C   UNK N   1      34.164  18.088   7.391  0.00  0.00     0.005 A 
HETATM   14  C   UNK N   1      34.584  17.738   8.668  0.00  0.00     0.036 A 
HETATM   15  C   UNK N   1      34.198  16.515   9.230  0.00  0.00     0.105 A 
HETATM   16  C   UNK N   1      33.388  15.632   8.484  0.00  0.00     0.066 A 
BRANCH  15  17
HETATM   17  N   UNK N   1      34.630  16.180  10.541  0.00  0.00    -0.116 N 
HETATM   18  O   UNK N   1      34.240  15.050  11.094  0.00  0.00    -0.532 OA
HETATM   19  O   UNK N   1      35.348  16.913  11.148  0.00  0.00    -0.532 OA
ENDBRANCH  15  17
ENDBRANCH   9  11
BRANCH   1  20
HETATM   20  C   UNK N   1      28.267  17.992   6.580  0.00  0.00     0.058 A 
HETATM   21  C   UNK N   1      27.933  18.435   7.884  0.00  0.00     0.027 A 
HETATM   22  N   UNK N   1      27.351  19.682   7.946  0.00  0.00    -0.340 N 
HETATM   23  C   UNK N   1      28.186  17.664   9.127  0.00  0.00     0.070 C 
HETATM   24  C   UNK N   1      27.217  20.236   6.719  0.00  0.00     0.143 A 
ATOM     25  HN  UNK N   1      27.056  20.133   8.812  1.00  0.00     0.168 HD
HETATM   26  S   UNK N   1      27.811  19.219   5.562  0.00  0.00    -0.050 SA
BRANCH  24  27
HETATM   27  N   UNK N   1      26.643  21.500   6.489  0.00  0.00    -0.380 N 
HETATM   28  H   UNK N   1      26.495  21.819   5.568  0.00  0.00     0.158 HD
HETATM   29  H   UNK N   1      26.387  22.070   7.250  0.00  0.00     0.158 HD
ENDBRANCH  24  27
ENDBRANCH   1  20
TORSDOF 4
ENDMDL
MODEL 3
REMARK VINA RESULT:      -7.2      4.423      6.265
REMARK  4 active torsions:
REMARK  status: ('A' for Active; 'I' for Inactive)
REMARK    1  A    between atoms: N_1  and  C_2 
REMARK    2  A    between atoms: C_8  and  C_9 
REMARK       I    between atoms: C_16  and  N_17 
REMARK    3  A    between atoms: N_17  and  C_18 
REMARK    4  A    between atoms: C_21  and  N_22 
ROOT
HETATM    1  C   UNK N   1      34.553  12.445  10.173  0.00  0.00     0.069 A 
HETATM    2  N   UNK N   1      33.792  13.339   9.495  0.00  0.00    -0.190 N 
ATOM      3  HN  UNK N   1      33.791  14.313   9.796  1.00  0.00     0.184 HD
HETATM    4  C   UNK N   1      34.551  11.108   9.766  0.00  0.00     0.049 A 
HETATM    5  C   UNK N   1      33.749  10.741   8.683  0.00  0.00     0.108 A 
HETATM    6  N   UNK N   1      33.006  11.678   8.033  0.00  0.00    -0.202 N 
ATOM      7  HN  UNK N   1      32.427  11.401   7.240  1.00  0.00     0.183 HD
HETATM    8  C   UNK N   1      33.029  12.978   8.429  0.00  0.00     0.683 A 
HETATM    9  N   UNK N   1      32.266  13.954   7.718  0.00  0.00    -0.192 N 
HETATM   10  H   UNK N   1      31.656  13.635   7.014  0.00  0.00     0.184 HD
ENDROOT
BRANCH   9  11
HETATM   11  C   UNK N   1      32.327  15.360   7.962  0.00  0.00     0.051 A 
HETATM   12  C   UNK N   1      31.200  16.176   7.805  0.00  0.00     0.030 A 
HETATM   13  C   UNK N   1      31.261  17.547   8.027  0.00  0.00     0.005 A 
HETATM   14  C   UNK N   1      32.459  18.128   8.422  0.00  0.00     0.036 A 
HETATM   15  C   UNK N   1      33.602  17.339   8.605  0.00  0.00     0.105 A 
HETATM   16  C   UNK N   1      33.532  15.949   8.373  0.00  0.00     0.066 A 
BRANCH  15  17
HETATM   17  N   UNK N   1      34.816  17.950   9.018  0.00  0.00    -0.116 N 
HETATM   18  O   UNK N   1      35.239  19.045   8.421  0.00  0.00    -0.532 OA
HETATM   19  O   UNK N   1      35.457  17.481   9.908  0.00  0.00    -0.532 OA
ENDBRANCH  15  17
ENDBRANCH   9  11
BRANCH   1  20
HETATM   20  C   UNK N   1      35.396  12.906  11.300  0.00  0.00     0.058 A 
HETATM   21  C   UNK N   1      36.563  13.708  11.249  0.00  0.00     0.027 A 
HETATM   22  N   UNK N   1      37.155  13.956  12.468  0.00  0.00    -0.340 N 
HETATM   23  C   UNK N   1      37.139  14.281  10.007  0.00  0.00     0.070 C 
HETATM   24  C   UNK N   1      36.480  13.368  13.484  0.00  0.00     0.143 A 
ATOM     25  HN  UNK N   1      37.999  14.515  12.591  1.00  0.00     0.168 HD
HETATM   26  S   UNK N   1      35.165  12.555  12.905  0.00  0.00    -0.050 SA
BRANCH  24  27
HETATM   27  N   UNK N   1      36.872  13.448  14.833  0.00  0.00    -0.380 N 
HETATM   28  H   UNK N   1      36.639  14.239  15.372  0.00  0.00     0.158 HD
HETATM   29  H   UNK N   1      37.381  12.711  15.242  0.00  0.00     0.158 HD
ENDBRANCH  24  27
ENDBRANCH   1  20
TORSDOF 4
ENDMDL
MODEL 4
REMARK VINA RESULT:      -7.1      5.689      9.090
REMARK  4 active torsions:
REMARK  status: ('A' for Active; 'I' for Inactive)
REMARK    1  A    between atoms: N_1  and  C_2 
REMARK    2  A    between atoms: C_8  and  C_9 
REMARK       I    between atoms: C_16  and  N_17 
REMARK    3  A    between atoms: N_17  and  C_18 
REMARK    4  A    between atoms: C_21  and  N_22 
ROOT
HETATM    1  C   UNK N   1      36.158  12.360  13.305  0.00  0.00     0.069 A 
HETATM    2  N   UNK N   1      35.919  13.507  12.624  0.00  0.00    -0.190 N 
ATOM      3  HN  UNK N   1      35.468  13.454  11.710  1.00  0.00     0.184 HD
HETATM    4  C   UNK N   1      36.782  12.430  14.553  0.00  0.00     0.049 A 
HETATM    5  C   UNK N   1      37.150  13.684  15.045  0.00  0.00     0.108 A 
HETATM    6  N   UNK N   1      36.884  14.808  14.325  0.00  0.00    -0.202 N 
ATOM      7  HN  UNK N   1      37.153  15.720  14.694  1.00  0.00     0.183 HD
HETATM    8  C   UNK N   1      36.263  14.727  13.118  0.00  0.00     0.683 A 
HETATM    9  N   UNK N   1      35.964  15.918  12.388  0.00  0.00    -0.192 N 
HETATM   10  H   UNK N   1      36.313  16.769  12.737  0.00  0.00     0.184 HD
ENDROOT
BRANCH   9  11
HETATM   11  C   UNK N   1      35.195  15.955  11.185  0.00  0.00     0.051 A 
HETATM   12  C   UNK N   1      34.263  14.954  10.886  0.00  0.00     0.030 A 
HETATM   13  C   UNK N   1      33.524  14.980   9.708  0.00  0.00     0.005 A 
HETATM   14  C   UNK N   1      33.702  16.021   8.807  0.00  0.00     0.036 A 
HETATM   15  C   UNK N   1      34.613  17.048   9.082  0.00  0.00     0.105 A 
HETATM   16  C   UNK N   1      35.362  17.012  10.279  0.00  0.00     0.066 A 
BRANCH  15  17
HETATM   17  N   UNK N   1      34.773  18.110   8.153  0.00  0.00    -0.116 N 
HETATM   18  O   UNK N   1      35.310  19.249   8.540  0.00  0.00    -0.532 OA
HETATM   19  O   UNK N   1      34.428  17.980   7.019  0.00  0.00    -0.532 OA
ENDBRANCH  15  17
ENDBRANCH   9  11
BRANCH   1  20
HETATM   20  C   UNK N   1      35.723  11.065  12.733  0.00  0.00     0.058 A 
HETATM   21  C   UNK N   1      34.650  10.239  13.152  0.00  0.00     0.027 A 
HETATM   22  N   UNK N   1      34.500   9.070  12.439  0.00  0.00    -0.340 N 
HETATM   23  C   UNK N   1      33.716  10.568  14.257  0.00  0.00     0.070 C 
HETATM   24  C   UNK N   1      35.430   8.952  11.463  0.00  0.00     0.143 A 
ATOM     25  HN  UNK N   1      33.775   8.376  12.624  1.00  0.00     0.168 HD
HETATM   26  S   UNK N   1      36.428  10.268  11.460  0.00  0.00    -0.050 SA
BRANCH  24  27
HETATM   27  N   UNK N   1      35.516   7.850  10.592  0.00  0.00    -0.380 N 
HETATM   28  H   UNK N   1      35.124   6.984  10.848  0.00  0.00     0.158 HD
HETATM   29  H   UNK N   1      35.972   7.944   9.724  0.00  0.00     0.158 HD
ENDBRANCH  24  27
ENDBRANCH   1  20
TORSDOF 4
ENDMDL
MODEL 5
REMARK VINA RESULT:      -7.0     11.986     14.706
REMARK  4 active torsions:
REMARK  status: ('A' for Active; 'I' for Inactive)
REMARK    1  A    between atoms: N_1  and  C_2 
REMARK    2  A    between atoms: C_8  and  C_9 
REMARK       I    between atoms: C_16  and  N_17 
REMARK    3  A    between atoms: N_17  and  C_18 
REMARK    4  A    between atoms: C_21  and  N_22 
ROOT
HETATM    1  C   UNK N   1      26.722  24.634  -6.354  0.00  0.00     0.069 A 
HETATM    2  N   UNK N   1      27.704  23.705  -6.251  0.00  0.00    -0.190 N 
ATOM      3  HN  UNK N   1      28.327  23.734  -5.444  1.00  0.00     0.184 HD
HETATM    4  C   UNK N   1      25.872  24.600  -7.462  0.00  0.00     0.049 A 
HETATM    5  C   UNK N   1      26.078  23.615  -8.432  0.00  0.00     0.108 A 
HETATM    6  N   UNK N   1      27.075  22.702  -8.280  0.00  0.00    -0.202 N 
ATOM      7  HN  UNK N   1      27.216  21.984  -8.991  1.00  0.00     0.183 HD
HETATM    8  C   UNK N   1      27.886  22.737  -7.189  0.00  0.00     0.683 A 
HETATM    9  N   UNK N   1      28.910  21.754  -7.030  0.00  0.00    -0.192 N 
HETATM   10  H   UNK N   1      29.068  21.131  -7.775  0.00  0.00     0.184 HD
ENDROOT
BRANCH   9  11
HETATM   11  C   UNK N   1      29.721  21.616  -5.861  0.00  0.00     0.051 A 
HETATM   12  C   UNK N   1      30.570  20.515  -5.691  0.00  0.00     0.030 A 
HETATM   13  C   UNK N   1      31.348  20.372  -4.548  0.00  0.00     0.005 A 
HETATM   14  C   UNK N   1      31.296  21.339  -3.552  0.00  0.00     0.036 A 
HETATM   15  C   UNK N   1      30.472  22.461  -3.699  0.00  0.00     0.105 A 
HETATM   16  C   UNK N   1      29.682  22.598  -4.861  0.00  0.00     0.066 A 
BRANCH  15  17
HETATM   17  N   UNK N   1      30.440  23.446  -2.675  0.00  0.00    -0.116 N 
HETATM   18  O   UNK N   1      30.450  23.080  -1.410  0.00  0.00    -0.532 OA
HETATM   19  O   UNK N   1      30.407  24.605  -2.951  0.00  0.00    -0.532 OA
ENDBRANCH  15  17
ENDBRANCH   9  11
BRANCH   1  20
HETATM   20  C   UNK N   1      26.547  25.637  -5.279  0.00  0.00     0.058 A 
HETATM   21  C   UNK N   1      26.591  25.435  -3.877  0.00  0.00     0.027 A 
HETATM   22  N   UNK N   1      26.365  26.561  -3.117  0.00  0.00    -0.340 N 
HETATM   23  C   UNK N   1      26.874  24.133  -3.222  0.00  0.00     0.070 C 
HETATM   24  C   UNK N   1      26.144  27.652  -3.887  0.00  0.00     0.143 A 
ATOM     25  HN  UNK N   1      26.363  26.572  -2.097  1.00  0.00     0.168 HD
HETATM   26  S   UNK N   1      26.229  27.252  -5.487  0.00  0.00    -0.050 SA
BRANCH  24  27
HETATM   27  N   UNK N   1      25.873  28.933  -3.371  0.00  0.00    -0.380 N 
HETATM   28  H   UNK N   1      25.337  29.575  -3.892  0.00  0.00     0.158 HD
HETATM   29  H   UNK N   1      26.220  29.190  -2.486  0.00  0.00     0.158 HD
ENDBRANCH  24  27
ENDBRANCH   1  20
TORSDOF 4
ENDMDL
MODEL 6
REMARK VINA RESULT:      -7.0      5.651      7.739
REMARK  4 active torsions:
REMARK  status: ('A' for Active; 'I' for Inactive)
REMARK    1  A    between atoms: N_1  and  C_2 
REMARK    2  A    between atoms: C_8  and  C_9 
REMARK       I    between atoms: C_16  and  N_17 
REMARK    3  A    between atoms: N_17  and  C_18 
REMARK    4  A    between atoms: C_21  and  N_22 
ROOT
HETATM    1  C   UNK N   1      25.542  19.368   4.747  0.00  0.00     0.069 A 
HETATM    2  N   UNK N   1      24.350  18.749   4.933  0.00  0.00    -0.190 N 
ATOM      3  HN  UNK N   1      24.256  18.080   5.697  1.00  0.00     0.184 HD
HETATM    4  C   UNK N   1      25.674  20.280   3.698  0.00  0.00     0.049 A 
HETATM    5  C   UNK N   1      24.573  20.508   2.868  0.00  0.00     0.108 A 
HETATM    6  N   UNK N   1      23.397  19.864   3.100  0.00  0.00    -0.202 N 
ATOM      7  HN  UNK N   1      22.597  20.040   2.491  1.00  0.00     0.183 HD
HETATM    8  C   UNK N   1      23.276  18.991   4.134  0.00  0.00     0.683 A 
HETATM    9  N   UNK N   1      22.026  18.345   4.381  0.00  0.00    -0.192 N 
HETATM   10  H   UNK N   1      21.305  18.476   3.724  0.00  0.00     0.184 HD
ENDROOT
BRANCH   9  11
HETATM   11  C   UNK N   1      21.754  17.522   5.517  0.00  0.00     0.051 A 
HETATM   12  C   UNK N   1      22.306  16.241   5.635  0.00  0.00     0.030 A 
HETATM   13  C   UNK N   1      22.030  15.432   6.732  0.00  0.00     0.005 A 
HETATM   14  C   UNK N   1      21.197  15.899   7.741  0.00  0.00     0.036 A 
HETATM   15  C   UNK N   1      20.642  17.182   7.662  0.00  0.00     0.105 A 
HETATM   16  C   UNK N   1      20.924  17.995   6.543  0.00  0.00     0.066 A 
BRANCH  15  17
HETATM   17  N   UNK N   1      19.800  17.647   8.708  0.00  0.00    -0.116 N 
HETATM   18  O   UNK N   1      19.970  18.856   9.202  0.00  0.00    -0.532 OA
HETATM   19  O   UNK N   1      18.935  16.951   9.143  0.00  0.00    -0.532 OA
ENDBRANCH  15  17
ENDBRANCH   9  11
BRANCH   1  20
HETATM   20  C   UNK N   1      26.661  19.095   5.677  0.00  0.00     0.058 A 
HETATM   21  C   UNK N   1      27.214  19.955   6.658  0.00  0.00     0.027 A 
HETATM   22  N   UNK N   1      28.276  19.432   7.362  0.00  0.00    -0.340 N 
HETATM   23  C   UNK N   1      26.714  21.319   6.961  0.00  0.00     0.070 C 
HETATM   24  C   UNK N   1      28.577  18.175   6.960  0.00  0.00     0.143 A 
ATOM     25  HN  UNK N   1      28.777  19.932   8.097  1.00  0.00     0.168 HD
HETATM   26  S   UNK N   1      27.551  17.697   5.758  0.00  0.00    -0.050 SA
BRANCH  24  27
HETATM   27  N   UNK N   1      29.626  17.409   7.501  0.00  0.00    -0.380 N 
HETATM   28  H   UNK N   1      30.299  17.000   6.909  0.00  0.00     0.158 HD
HETATM   29  H   UNK N   1      29.690  17.281   8.475  0.00  0.00     0.158 HD
ENDBRANCH  24  27
ENDBRANCH   1  20
TORSDOF 4
ENDMDL
MODEL 7
REMARK VINA RESULT:      -7.0      4.972      6.515
REMARK  4 active torsions:
REMARK  status: ('A' for Active; 'I' for Inactive)
REMARK    1  A    between atoms: N_1  and  C_2 
REMARK    2  A    between atoms: C_8  and  C_9 
REMARK       I    between atoms: C_16  and  N_17 
REMARK    3  A    between atoms: N_17  and  C_18 
REMARK    4  A    between atoms: C_21  and  N_22 
ROOT
HETATM    1  C   UNK N   1      26.973  18.984   5.381  0.00  0.00     0.069 A 
HETATM    2  N   UNK N   1      25.717  18.493   5.242  0.00  0.00    -0.190 N 
ATOM      3  HN  UNK N   1      25.384  17.795   5.907  1.00  0.00     0.184 HD
HETATM    4  C   UNK N   1      27.433  19.935   4.468  0.00  0.00     0.049 A 
HETATM    5  C   UNK N   1      26.583  20.334   3.433  0.00  0.00     0.108 A 
HETATM    6  N   UNK N   1      25.328  19.814   3.340  0.00  0.00    -0.202 N 
ATOM      7  HN  UNK N   1      24.713  20.114   2.583  1.00  0.00     0.183 HD
HETATM    8  C   UNK N   1      24.887  18.900   4.244  0.00  0.00     0.683 A 
HETATM    9  N   UNK N   1      23.558  18.386   4.149  0.00  0.00    -0.192 N 
HETATM   10  H   UNK N   1      23.026  18.636   3.360  0.00  0.00     0.184 HD
ENDROOT
BRANCH   9  11
HETATM   11  C   UNK N   1      22.951  17.534   5.122  0.00  0.00     0.051 A 
HETATM   12  C   UNK N   1      23.344  16.198   5.265  0.00  0.00     0.030 A 
HETATM   13  C   UNK N   1      22.744  15.362   6.201  0.00  0.00     0.005 A 
HETATM   14  C   UNK N   1      21.738  15.857   7.021  0.00  0.00     0.036 A 
HETATM   15  C   UNK N   1      21.333  17.193   6.916  0.00  0.00     0.105 A 
HETATM   16  C   UNK N   1      21.944  18.033   5.961  0.00  0.00     0.066 A 
BRANCH  15  17
HETATM   17  N   UNK N   1      20.309  17.683   7.770  0.00  0.00    -0.116 N 
HETATM   18  O   UNK N   1      20.370  18.916   8.231  0.00  0.00    -0.532 OA
HETATM   19  O   UNK N   1      19.389  16.988   8.075  0.00  0.00    -0.532 OA
ENDBRANCH  15  17
ENDBRANCH   9  11
BRANCH   1  20
HETATM   20  C   UNK N   1      27.814  18.533   6.514  0.00  0.00     0.058 A 
HETATM   21  C   UNK N   1      28.522  17.313   6.647  0.00  0.00     0.027 A 
HETATM   22  N   UNK N   1      29.204  17.160   7.834  0.00  0.00    -0.340 N 
HETATM   23  C   UNK N   1      28.577  16.253   5.609  0.00  0.00     0.070 C 
HETATM   24  C   UNK N   1      29.051  18.232   8.645  0.00  0.00     0.143 A 
ATOM     25  HN  UNK N   1      29.756  16.336   8.074  1.00  0.00     0.168 HD
HETATM   26  S   UNK N   1      28.096  19.368   7.919  0.00  0.00    -0.050 SA
BRANCH  24  27
HETATM   27  N   UNK N   1      29.627  18.336   9.924  0.00  0.00    -0.380 N 
HETATM   28  H   UNK N   1      30.606  18.390  10.025  0.00  0.00     0.158 HD
HETATM   29  H   UNK N   1      29.052  18.354  10.723  0.00  0.00     0.158 HD
ENDBRANCH  24  27
ENDBRANCH   1  20
TORSDOF 4
ENDMDL
MODEL 8
REMARK VINA RESULT:      -6.8      4.639      7.703
REMARK  4 active torsions:
REMARK  status: ('A' for Active; 'I' for Inactive)
REMARK    1  A    between atoms: N_1  and  C_2 
REMARK    2  A    between atoms: C_8  and  C_9 
REMARK       I    between atoms: C_16  and  N_17 
REMARK    3  A    between atoms: N_17  and  C_18 
REMARK    4  A    between atoms: C_21  and  N_22 
ROOT
HETATM    1  C   UNK N   1      24.297  18.856   4.422  0.00  0.00     0.069 A 
HETATM    2  N   UNK N   1      25.619  18.879   4.724  0.00  0.00    -0.190 N 
ATOM      3  HN  UNK N   1      25.963  18.281   5.476  1.00  0.00     0.184 HD
HETATM    4  C   UNK N   1      23.823  19.679   3.398  0.00  0.00     0.049 A 
HETATM    5  C   UNK N   1      24.729  20.508   2.733  0.00  0.00     0.108 A 
HETATM    6  N   UNK N   1      26.048  20.491   3.071  0.00  0.00    -0.202 N 
ATOM      7  HN  UNK N   1      26.703  21.096   2.577  1.00  0.00     0.183 HD
HETATM    8  C   UNK N   1      26.500  19.674   4.059  0.00  0.00     0.683 A 
HETATM    9  N   UNK N   1      27.890  19.647   4.382  0.00  0.00    -0.192 N 
HETATM   10  H   UNK N   1      28.476  20.304   3.942  0.00  0.00     0.184 HD
ENDROOT
BRANCH   9  11
HETATM   11  C   UNK N   1      28.488  18.730   5.301  0.00  0.00     0.051 A 
HETATM   12  C   UNK N   1      29.304  17.682   4.858  0.00  0.00     0.030 A 
HETATM   13  C   UNK N   1      29.873  16.780   5.749  0.00  0.00     0.005 A 
HETATM   14  C   UNK N   1      29.640  16.918   7.112  0.00  0.00     0.036 A 
HETATM   15  C   UNK N   1      28.843  17.965   7.591  0.00  0.00     0.105 A 
HETATM   16  C   UNK N   1      28.266  18.874   6.678  0.00  0.00     0.066 A 
BRANCH  15  17
HETATM   17  N   UNK N   1      28.625  18.095   8.989  0.00  0.00    -0.116 N 
HETATM   18  O   UNK N   1      29.486  18.761   9.730  0.00  0.00    -0.532 OA
HETATM   19  O   UNK N   1      27.663  17.608   9.499  0.00  0.00    -0.532 OA
ENDBRANCH  15  17
ENDBRANCH   9  11
BRANCH   1  20
HETATM   20  C   UNK N   1      23.395  17.937   5.154  0.00  0.00     0.058 A 
HETATM   21  C   UNK N   1      23.636  16.595   5.538  0.00  0.00     0.027 A 
HETATM   22  N   UNK N   1      22.592  15.978   6.191  0.00  0.00    -0.340 N 
HETATM   23  C   UNK N   1      24.905  15.864   5.297  0.00  0.00     0.070 C 
HETATM   24  C   UNK N   1      21.529  16.804   6.334  0.00  0.00     0.143 A 
ATOM     25  HN  UNK N   1      22.616  15.015   6.525  1.00  0.00     0.168 HD
HETATM   26  S   UNK N   1      21.858  18.281   5.675  0.00  0.00    -0.050 SA
BRANCH  24  27
HETATM   27  N   UNK N   1      20.322  16.427   6.953  0.00  0.00    -0.380 N 
HETATM   28  H   UNK N   1      20.332  15.834   7.739  0.00  0.00     0.158 HD
HETATM   29  H   UNK N   1      19.464  16.757   6.599  0.00  0.00     0.158 HD
ENDBRANCH  24  27
ENDBRANCH   1  20
TORSDOF 4
ENDMDL
MODEL 9
REMARK VINA RESULT:      -6.8     13.162     15.825
REMARK  4 active torsions:
REMARK  status: ('A' for Active; 'I' for Inactive)
REMARK    1  A    between atoms: N_1  and  C_2 
REMARK    2  A    between atoms: C_8  and  C_9 
REMARK       I    between atoms: C_16  and  N_17 
REMARK    3  A    between atoms: N_17  and  C_18 
REMARK    4  A    between atoms: C_21  and  N_22 
ROOT
HETATM    1  C   UNK N   1      26.789  26.433  -6.870  0.00  0.00     0.069 A 
HETATM    2  N   UNK N   1      27.674  25.440  -6.605  0.00  0.00    -0.190 N 
ATOM      3  HN  UNK N   1      28.381  25.589  -5.885  1.00  0.00     0.184 HD
HETATM    4  C   UNK N   1      25.824  26.233  -7.860  0.00  0.00     0.049 A 
HETATM    5  C   UNK N   1      25.819  25.019  -8.552  0.00  0.00     0.108 A 
HETATM    6  N   UNK N   1      26.726  24.052  -8.245  0.00  0.00    -0.202 N 
ATOM      7  HN  UNK N   1      26.712  23.167  -8.752  1.00  0.00     0.183 HD
HETATM    8  C   UNK N   1      27.650  24.253  -7.268  0.00  0.00     0.683 A 
HETATM    9  N   UNK N   1      28.577  23.218  -6.939  0.00  0.00    -0.192 N 
HETATM   10  H   UNK N   1      28.586  22.413  -7.506  0.00  0.00     0.184 HD
ENDROOT
BRANCH   9  11
HETATM   11  C   UNK N   1      29.492  23.272  -5.843  0.00  0.00     0.051 A 
HETATM   12  C   UNK N   1      30.865  23.448  -6.050  0.00  0.00     0.030 A 
HETATM   13  C   UNK N   1      31.759  23.487  -4.985  0.00  0.00     0.005 A 
HETATM   14  C   UNK N   1      31.288  23.357  -3.685  0.00  0.00     0.036 A 
HETATM   15  C   UNK N   1      29.918  23.197  -3.441  0.00  0.00     0.105 A 
HETATM   16  C   UNK N   1      29.018  23.156  -4.528  0.00  0.00     0.066 A 
BRANCH  15  17
HETATM   17  N   UNK N   1      29.454  23.077  -2.104  0.00  0.00    -0.116 N 
HETATM   18  O   UNK N   1      30.317  23.021  -1.110  0.00  0.00    -0.532 OA
HETATM   19  O   UNK N   1      28.285  23.027  -1.871  0.00  0.00    -0.532 OA
ENDBRANCH  15  17
ENDBRANCH   9  11
BRANCH   1  20
HETATM   20  C   UNK N   1      26.839  27.687  -6.084  0.00  0.00     0.058 A 
HETATM   21  C   UNK N   1      27.669  28.817  -6.290  0.00  0.00     0.027 A 
HETATM   22  N   UNK N   1      27.509  29.834  -5.374  0.00  0.00    -0.340 N 
HETATM   23  C   UNK N   1      28.641  28.957  -7.402  0.00  0.00     0.070 C 
HETATM   24  C   UNK N   1      26.569  29.534  -4.448  0.00  0.00     0.143 A 
ATOM     25  HN  UNK N   1      28.035  30.707  -5.392  1.00  0.00     0.168 HD
HETATM   26  S   UNK N   1      25.928  28.041  -4.743  0.00  0.00    -0.050 SA
BRANCH  24  27
HETATM   27  N   UNK N   1      26.213  30.388  -3.388  0.00  0.00    -0.380 N 
HETATM   28  H   UNK N   1      26.843  30.551  -2.648  0.00  0.00     0.158 HD
HETATM   29  H   UNK N   1      25.331  30.825  -3.384  0.00  0.00     0.158 HD
ENDBRANCH  24  27
ENDBRANCH   1  20
TORSDOF 4
ENDMDL
