REMARK  3 active torsions:
REMARK  status: ('A' for Active; 'I' for Inactive)
REMARK    1  A    between atoms: C_1  and  N_7 
REMARK       I    between atoms: C_4  and  N_8 
REMARK    2  A    between atoms: C_9  and  N_15 
REMARK    3  A    between atoms: C_10  and  Cl_16 
ROOT
HETATM    1  C   UNK N   1      -1.597  -0.647  -0.000  0.00  0.00     0.129 A 
HETATM    2  N   UNK N   1      -2.747   0.059  -0.000  0.00  0.00    -0.176 N 
ATOM      3  HN  UNK N   1      -3.636  -0.441  -0.000  1.00  0.00     0.186 HD
HETATM    4  C   UNK N   1      -2.753   1.408  -0.000  0.00  0.00     0.677 A 
HETATM    5  N   UNK N   1      -1.585   2.098  -0.000  0.00  0.00    -0.191 N 
ATOM      6  HN  UNK N   1      -1.606   3.118  -0.000  1.00  0.00     0.184 HD
HETATM    7  N   UNK N   1      -3.980   2.094   0.000  0.00  0.00    -0.234 N 
HETATM    8  C   UNK N   1       2.109   0.174  -0.000  0.00  0.00     0.051 A 
HETATM    9  C   UNK N   1       0.926  -0.598  -0.000  0.00  0.00     0.099 A 
HETATM   10  C   UNK N   1      -0.343   0.044   0.000  0.00  0.00     0.061 A 
HETATM   11  C   UNK N   1      -0.388   1.457  -0.000  0.00  0.00     0.065 A 
HETATM   12  C   UNK N   1       0.792   2.205  -0.000  0.00  0.00     0.033 A 
HETATM   13  C   UNK N   1       2.032   1.569   0.000  0.00  0.00     0.033 A 
HETATM   14  H   UNK N   1      -3.994   3.078   0.000  0.00  0.00     0.174 HD
HETATM   15  H   UNK N   1      -4.826   1.590   0.000  0.00  0.00     0.174 HD
ENDROOT
BRANCH   9  16
HETATM   16 Cl   UNK N   1       0.980  -2.349   0.000  0.00  0.00     0.011 Cl
HETATM   17  O   UNK N   1       0.473  -3.781  -0.000  0.00  0.00    -0.295 OA
ATOM     18  HO  UNK N   1       0.503  -4.731   0.000  1.00  0.00     0.235 HD
HETATM   19  O   UNK N   1       0.971  -3.867  -0.000  0.00  0.00    -0.295 OA
ATOM     20  HO  UNK N   1       1.001  -4.817   0.000  1.00  0.00     0.235 HD
ENDBRANCH   9  16
BRANCH   8  21
HETATM   21  N   UNK N   1       3.378  -0.444   0.000  0.00  0.00    -0.398 N 
HETATM   22  H   UNK N   1       3.447  -1.426   0.000  0.00  0.00     0.156 HD
HETATM   23  H   UNK N   1       4.194   0.107   0.000  0.00  0.00     0.156 HD
ENDBRANCH   8  21
BRANCH   1  24
HETATM   24  N   UNK N   1      -1.705  -2.052  -0.000  0.00  0.00    -0.384 N 
HETATM   25  H   UNK N   1      -2.592  -2.477  -0.000  0.00  0.00     0.157 HD
HETATM   26  H   UNK N   1      -0.892  -2.608  -0.000  0.00  0.00     0.157 HD
ENDBRANCH   1  24
TORSDOF 3
