MODEL 1
REMARK VINA RESULT:      -6.7      0.000      0.000
REMARK  3 active torsions:
REMARK  status: ('A' for Active; 'I' for Inactive)
REMARK    1  A    between atoms: C_1  and  N_7 
REMARK       I    between atoms: C_4  and  N_8 
REMARK    2  A    between atoms: C_9  and  N_15 
REMARK    3  A    between atoms: C_10  and  Cl_16 
ROOT
HETATM    1  C   UNK N   1      19.798  17.955   2.974  0.00  0.00     0.129 A 
HETATM    2  N   UNK N   1      19.145  16.976   3.635  0.00  0.00    -0.176 N 
ATOM      3  HN  UNK N   1      18.222  16.688   3.309  1.00  0.00     0.186 HD
HETATM    4  C   UNK N   1      19.679  16.369   4.714  0.00  0.00     0.677 A 
HETATM    5  N   UNK N   1      20.905  16.732   5.168  0.00  0.00    -0.191 N 
ATOM      6  HN  UNK N   1      21.295  16.264   5.986  1.00  0.00     0.184 HD
HETATM    7  N   UNK N   1      18.956  15.354   5.366  0.00  0.00    -0.234 N 
HETATM    8  C   UNK N   1      23.139  19.722   3.320  0.00  0.00     0.051 A 
HETATM    9  C   UNK N   1      21.868  19.387   2.802  0.00  0.00     0.099 A 
HETATM   10  C   UNK N   1      21.093  18.368   3.421  0.00  0.00     0.061 A 
HETATM   11  C   UNK N   1      21.622  17.709   4.555  0.00  0.00     0.065 A 
HETATM   12  C   UNK N   1      22.880  18.054   5.055  0.00  0.00     0.033 A 
HETATM   13  C   UNK N   1      23.634  19.053   4.442  0.00  0.00     0.033 A 
HETATM   14  H   UNK N   1      19.338  14.906   6.154  0.00  0.00     0.174 HD
HETATM   15  H   UNK N   1      18.067  15.093   5.033  0.00  0.00     0.174 HD
ENDROOT
BRANCH   9  16
HETATM   16 Cl   UNK N   1      21.212  20.202   1.397  0.00  0.00     0.011 Cl
HETATM   17  O   UNK N   1      20.702  20.389  -0.022  0.00  0.00    -0.295 OA
ATOM     18  HO  UNK N   1      20.346  20.832  -0.784  1.00  0.00     0.235 HD
HETATM   19  O   UNK N   1      20.646  20.860   0.151  0.00  0.00    -0.295 OA
ATOM     20  HO  UNK N   1      20.290  21.303  -0.610  1.00  0.00     0.235 HD
ENDBRANCH   9  16
BRANCH   8  21
HETATM   21  N   UNK N   1      23.923  20.730   2.719  0.00  0.00    -0.398 N 
HETATM   22  H   UNK N   1      23.695  21.678   2.856  0.00  0.00     0.156 HD
HETATM   23  H   UNK N   1      24.699  20.485   2.164  0.00  0.00     0.156 HD
ENDBRANCH   8  21
BRANCH   1  24
HETATM   24  N   UNK N   1      19.148  18.522   1.859  0.00  0.00    -0.384 N 
HETATM   25  H   UNK N   1      18.830  19.452   1.896  0.00  0.00     0.157 HD
HETATM   26  H   UNK N   1      19.012  17.986   1.044  0.00  0.00     0.157 HD
ENDBRANCH   1  24
TORSDOF 3
ENDMDL
MODEL 2
REMARK VINA RESULT:      -6.4      1.514      3.882
REMARK  3 active torsions:
REMARK  status: ('A' for Active; 'I' for Inactive)
REMARK    1  A    between atoms: C_1  and  N_7 
REMARK       I    between atoms: C_4  and  N_8 
REMARK    2  A    between atoms: C_9  and  N_15 
REMARK    3  A    between atoms: C_10  and  Cl_16 
ROOT
HETATM    1  C   UNK N   1      23.355  19.907   3.196  0.00  0.00     0.129 A 
HETATM    2  N   UNK N   1      24.474  19.772   3.938  0.00  0.00    -0.176 N 
ATOM      3  HN  UNK N   1      25.273  20.376   3.745  1.00  0.00     0.186 HD
HETATM    4  C   UNK N   1      24.564  18.861   4.929  0.00  0.00     0.677 A 
HETATM    5  N   UNK N   1      23.516  18.046   5.207  0.00  0.00    -0.191 N 
ATOM      6  HN  UNK N   1      23.600  17.362   5.959  1.00  0.00     0.184 HD
HETATM    7  N   UNK N   1      25.753  18.763   5.672  0.00  0.00    -0.234 N 
HETATM    8  C   UNK N   1      19.944  18.246   3.074  0.00  0.00     0.051 A 
HETATM    9  C   UNK N   1      21.001  19.121   2.739  0.00  0.00     0.099 A 
HETATM   10  C   UNK N   1      22.227  19.065   3.458  0.00  0.00     0.061 A 
HETATM   11  C   UNK N   1      22.357  18.122   4.503  0.00  0.00     0.065 A 
HETATM   12  C   UNK N   1      21.302  17.264   4.821  0.00  0.00     0.033 A 
HETATM   13  C   UNK N   1      20.104  17.325   4.113  0.00  0.00     0.033 A 
HETATM   14  H   UNK N   1      25.828  18.101   6.396  0.00  0.00     0.174 HD
HETATM   15  H   UNK N   1      26.512  19.356   5.467  0.00  0.00     0.174 HD
ENDROOT
BRANCH   9  16
HETATM   16 Cl   UNK N   1      20.841  20.290   1.444  0.00  0.00     0.011 Cl
HETATM   17  O   UNK N   1      20.843  20.846   0.030  0.00  0.00    -0.295 OA
ATOM     18  HO  UNK N   1      20.756  21.480  -0.672  1.00  0.00     0.235 HD
HETATM   19  O   UNK N   1      20.715  21.263   0.285  0.00  0.00    -0.295 OA
ATOM     20  HO  UNK N   1      20.628  21.897  -0.417  1.00  0.00     0.235 HD
ENDBRANCH   9  16
BRANCH   8  21
HETATM   21  N   UNK N   1      18.720  18.285   2.373  0.00  0.00    -0.398 N 
HETATM   22  H   UNK N   1      18.717  18.322   1.389  0.00  0.00     0.156 HD
HETATM   23  H   UNK N   1      17.868  18.277   2.868  0.00  0.00     0.156 HD
ENDBRANCH   8  21
BRANCH   1  24
HETATM   24  N   UNK N   1      23.368  20.890   2.186  0.00  0.00    -0.384 N 
HETATM   25  H   UNK N   1      22.806  20.780   1.386  0.00  0.00     0.157 HD
HETATM   26  H   UNK N   1      23.939  21.686   2.282  0.00  0.00     0.157 HD
ENDBRANCH   1  24
TORSDOF 3
ENDMDL
MODEL 3
REMARK VINA RESULT:      -6.4     13.708     15.068
REMARK  3 active torsions:
REMARK  status: ('A' for Active; 'I' for Inactive)
REMARK    1  A    between atoms: C_1  and  N_7 
REMARK       I    between atoms: C_4  and  N_8 
REMARK    2  A    between atoms: C_9  and  N_15 
REMARK    3  A    between atoms: C_10  and  Cl_16 
ROOT
HETATM    1  C   UNK N   1      34.804  15.889  10.464  0.00  0.00     0.129 A 
HETATM    2  N   UNK N   1      34.895  14.980  11.457  0.00  0.00    -0.176 N 
ATOM      3  HN  UNK N   1      35.235  15.276  12.371  1.00  0.00     0.186 HD
HETATM    4  C   UNK N   1      34.547  13.689  11.273  0.00  0.00     0.677 A 
HETATM    5  N   UNK N   1      34.091  13.268  10.067  0.00  0.00    -0.191 N 
ATOM      6  HN  UNK N   1      33.832  12.289   9.944  1.00  0.00     0.184 HD
HETATM    7  N   UNK N   1      34.661  12.783  12.342  0.00  0.00    -0.234 N 
HETATM    8  C   UNK N   1      33.711  15.860   6.829  0.00  0.00     0.051 A 
HETATM    9  C   UNK N   1      34.192  16.356   8.061  0.00  0.00     0.099 A 
HETATM   10  C   UNK N   1      34.327  15.484   9.176  0.00  0.00     0.061 A 
HETATM   11  C   UNK N   1      33.972  14.125   9.020  0.00  0.00     0.065 A 
HETATM   12  C   UNK N   1      33.498  13.650   7.794  0.00  0.00     0.033 A 
HETATM   13  C   UNK N   1      33.368  14.511   6.706  0.00  0.00     0.033 A 
HETATM   14  H   UNK N   1      34.410  11.840  12.217  0.00  0.00     0.174 HD
HETATM   15  H   UNK N   1      34.993  13.093  13.216  0.00  0.00     0.174 HD
ENDROOT
BRANCH   9  16
HETATM   16 Cl   UNK N   1      34.632  18.041   8.255  0.00  0.00     0.011 Cl
HETATM   17  O   UNK N   1      35.462  19.251   8.647  0.00  0.00    -0.295 OA
ATOM     18  HO  UNK N   1      35.700  20.165   8.752  1.00  0.00     0.235 HD
HETATM   19  O   UNK N   1      35.061  19.484   8.448  0.00  0.00    -0.295 OA
ATOM     20  HO  UNK N   1      35.299  20.398   8.553  1.00  0.00     0.235 HD
ENDBRANCH   9  16
BRANCH   8  21
HETATM   21  N   UNK N   1      33.569  16.709   5.710  0.00  0.00    -0.398 N 
HETATM   22  H   UNK N   1      33.910  16.426   4.831  0.00  0.00     0.156 HD
HETATM   23  H   UNK N   1      33.129  17.585   5.809  0.00  0.00     0.156 HD
ENDBRANCH   8  21
BRANCH   1  24
HETATM   24  N   UNK N   1      35.193  17.210  10.764  0.00  0.00    -0.384 N 
HETATM   25  H   UNK N   1      35.091  17.918  10.089  0.00  0.00     0.157 HD
HETATM   26  H   UNK N   1      35.567  17.423  11.649  0.00  0.00     0.157 HD
ENDBRANCH   1  24
TORSDOF 3
ENDMDL
MODEL 4
REMARK VINA RESULT:      -6.2      9.452     11.201
REMARK  3 active torsions:
REMARK  status: ('A' for Active; 'I' for Inactive)
REMARK    1  A    between atoms: C_1  and  N_7 
REMARK       I    between atoms: C_4  and  N_8 
REMARK    2  A    between atoms: C_9  and  N_15 
REMARK    3  A    between atoms: C_10  and  Cl_16 
ROOT
HETATM    1  C   UNK N   1      31.146  16.999   8.701  0.00  0.00     0.129 A 
HETATM    2  N   UNK N   1      32.384  16.530   8.961  0.00  0.00    -0.176 N 
ATOM      3  HN  UNK N   1      32.667  16.389   9.931  1.00  0.00     0.186 HD
HETATM    4  C   UNK N   1      33.257  16.242   7.975  0.00  0.00     0.677 A 
HETATM    5  N   UNK N   1      32.907  16.420   6.676  0.00  0.00    -0.191 N 
ATOM      6  HN  UNK N   1      33.578  16.197   5.941  1.00  0.00     0.184 HD
HETATM    7  N   UNK N   1      34.535  15.755   8.302  0.00  0.00    -0.234 N 
HETATM    8  C   UNK N   1      29.152  17.855   5.586  0.00  0.00     0.051 A 
HETATM    9  C   UNK N   1      29.460  17.690   6.955  0.00  0.00     0.099 A 
HETATM   10  C   UNK N   1      30.737  17.201   7.343  0.00  0.00     0.061 A 
HETATM   11  C   UNK N   1      31.679  16.888   6.336  0.00  0.00     0.065 A 
HETATM   12  C   UNK N   1      31.357  17.057   4.987  0.00  0.00     0.033 A 
HETATM   13  C   UNK N   1      30.103  17.537   4.614  0.00  0.00     0.033 A 
HETATM   14  H   UNK N   1      35.178  15.542   7.589  0.00  0.00     0.174 HD
HETATM   15  H   UNK N   1      34.786  15.627   9.246  0.00  0.00     0.174 HD
ENDROOT
BRANCH   9  16
HETATM   16 Cl   UNK N   1      28.294  18.077   8.204  0.00  0.00     0.011 Cl
HETATM   17  O   UNK N   1      27.449  17.903   9.454  0.00  0.00    -0.295 OA
ATOM     18  HO  UNK N   1      26.816  18.114  10.132  1.00  0.00     0.235 HD
HETATM   19  O   UNK N   1      27.295  18.363   9.311  0.00  0.00    -0.295 OA
ATOM     20  HO  UNK N   1      26.663  18.573   9.988  1.00  0.00     0.235 HD
ENDBRANCH   9  16
BRANCH   8  21
HETATM   21  N   UNK N   1      27.889  18.339   5.180  0.00  0.00    -0.398 N 
HETATM   22  H   UNK N   1      27.346  18.876   5.800  0.00  0.00     0.156 HD
HETATM   23  H   UNK N   1      27.553  18.138   4.277  0.00  0.00     0.156 HD
ENDBRANCH   8  21
BRANCH   1  24
HETATM   24  N   UNK N   1      30.314  17.268   9.806  0.00  0.00    -0.384 N 
HETATM   25  H   UNK N   1      29.637  16.610  10.083  0.00  0.00     0.157 HD
HETATM   26  H   UNK N   1      30.410  18.114  10.300  0.00  0.00     0.157 HD
ENDBRANCH   1  24
TORSDOF 3
ENDMDL
MODEL 5
REMARK VINA RESULT:      -6.2      2.260      3.138
REMARK  3 active torsions:
REMARK  status: ('A' for Active; 'I' for Inactive)
REMARK    1  A    between atoms: C_1  and  N_7 
REMARK       I    between atoms: C_4  and  N_8 
REMARK    2  A    between atoms: C_9  and  N_15 
REMARK    3  A    between atoms: C_10  and  Cl_16 
ROOT
HETATM    1  C   UNK N   1      20.281  18.263   1.309  0.00  0.00     0.129 A 
HETATM    2  N   UNK N   1      19.527  17.529   0.465  0.00  0.00    -0.176 N 
ATOM      3  HN  UNK N   1      19.160  17.967  -0.381  1.00  0.00     0.186 HD
HETATM    4  C   UNK N   1      19.245  16.232   0.708  0.00  0.00     0.677 A 
HETATM    5  N   UNK N   1      19.720  15.626   1.824  0.00  0.00    -0.191 N 
ATOM      6  HN  UNK N   1      19.498  14.645   1.994  1.00  0.00     0.184 HD
HETATM    7  N   UNK N   1      18.454  15.514  -0.206  0.00  0.00    -0.234 N 
HETATM    8  C   UNK N   1      22.072  17.653   4.600  0.00  0.00     0.051 A 
HETATM    9  C   UNK N   1      21.606  18.338   3.456  0.00  0.00     0.099 A 
HETATM   10  C   UNK N   1      20.802  17.659   2.499  0.00  0.00     0.061 A 
HETATM   11  C   UNK N   1      20.486  16.300   2.720  0.00  0.00     0.065 A 
HETATM   12  C   UNK N   1      20.955  15.638   3.858  0.00  0.00     0.033 A 
HETATM   13  C   UNK N   1      21.743  16.309   4.791  0.00  0.00     0.033 A 
HETATM   14  H   UNK N   1      18.243  14.568  -0.037  0.00  0.00     0.174 HD
HETATM   15  H   UNK N   1      18.111  15.958  -1.015  0.00  0.00     0.174 HD
ENDROOT
BRANCH   9  16
HETATM   16 Cl   UNK N   1      21.997  20.023   3.180  0.00  0.00     0.011 Cl
HETATM   17  O   UNK N   1      21.807  21.469   2.755  0.00  0.00    -0.295 OA
ATOM     18  HO  UNK N   1      22.019  22.383   2.605  1.00  0.00     0.235 HD
HETATM   19  O   UNK N   1      22.284  21.491   2.920  0.00  0.00    -0.295 OA
ATOM     20  HO  UNK N   1      22.497  22.405   2.770  1.00  0.00     0.235 HD
ENDBRANCH   9  16
BRANCH   8  21
HETATM   21  N   UNK N   1      22.871  18.308   5.562  0.00  0.00    -0.398 N 
HETATM   22  H   UNK N   1      23.580  17.813   6.032  0.00  0.00     0.156 HD
HETATM   23  H   UNK N   1      22.720  19.260   5.762  0.00  0.00     0.156 HD
ENDBRANCH   8  21
BRANCH   1  24
HETATM   24  N   UNK N   1      20.515  19.608   0.959  0.00  0.00    -0.384 N 
HETATM   25  H   UNK N   1      20.430  20.315   1.638  0.00  0.00     0.157 HD
HETATM   26  H   UNK N   1      20.764  19.840   0.035  0.00  0.00     0.157 HD
ENDBRANCH   1  24
TORSDOF 3
ENDMDL
MODEL 6
REMARK VINA RESULT:      -6.0     21.254     23.487
REMARK  3 active torsions:
REMARK  status: ('A' for Active; 'I' for Inactive)
REMARK    1  A    between atoms: C_1  and  N_7 
REMARK       I    between atoms: C_4  and  N_8 
REMARK    2  A    between atoms: C_9  and  N_15 
REMARK    3  A    between atoms: C_10  and  Cl_16 
ROOT
HETATM    1  C   UNK N   1      45.599  20.661   3.685  0.00  0.00     0.129 A 
HETATM    2  N   UNK N   1      46.658  19.825   3.716  0.00  0.00    -0.176 N 
ATOM      3  HN  UNK N   1      47.567  20.187   4.005  1.00  0.00     0.186 HD
HETATM    4  C   UNK N   1      46.548  18.524   3.377  0.00  0.00     0.677 A 
HETATM    5  N   UNK N   1      45.351  18.017   2.989  0.00  0.00    -0.191 N 
ATOM      6  HN  UNK N   1      45.283  17.031   2.736  1.00  0.00     0.184 HD
HETATM    7  N   UNK N   1      47.683  17.697   3.428  0.00  0.00    -0.234 N 
HETATM    8  C   UNK N   1      41.919  20.370   2.801  0.00  0.00     0.051 A 
HETATM    9  C   UNK N   1      43.138  20.954   3.212  0.00  0.00     0.099 A 
HETATM   10  C   UNK N   1      44.318  20.164   3.281  0.00  0.00     0.061 A 
HETATM   11  C   UNK N   1      44.240  18.796   2.933  0.00  0.00     0.065 A 
HETATM   12  C   UNK N   1      43.027  18.235   2.529  0.00  0.00     0.033 A 
HETATM   13  C   UNK N   1      41.874  19.015   2.463  0.00  0.00     0.033 A 
HETATM   14  H   UNK N   1      47.612  16.747   3.182  0.00  0.00     0.174 HD
HETATM   15  H   UNK N   1      48.551  18.069   3.709  0.00  0.00     0.174 HD
ENDROOT
BRANCH   9  16
HETATM   16 Cl   UNK N   1      43.237  22.649   3.644  0.00  0.00     0.011 Cl
HETATM   17  O   UNK N   1      43.596  23.886   4.449  0.00  0.00    -0.295 OA
ATOM     18  HO  UNK N   1      43.650  24.806   4.683  1.00  0.00     0.235 HD
HETATM   19  O   UNK N   1      43.350  24.103   4.065  0.00  0.00    -0.295 OA
ATOM     20  HO  UNK N   1      43.404  25.023   4.299  1.00  0.00     0.235 HD
ENDBRANCH   9  16
BRANCH   8  21
HETATM   21  N   UNK N   1      40.737  21.137   2.726  0.00  0.00    -0.398 N 
HETATM   22  H   UNK N   1      40.646  21.955   3.265  0.00  0.00     0.156 HD
HETATM   23  H   UNK N   1      40.003  20.854   2.133  0.00  0.00     0.156 HD
ENDBRANCH   8  21
BRANCH   1  24
HETATM   24  N   UNK N   1      45.826  22.000   4.059  0.00  0.00    -0.384 N 
HETATM   25  H   UNK N   1      45.700  22.277   4.995  0.00  0.00     0.157 HD
HETATM   26  H   UNK N   1      46.110  22.658   3.384  0.00  0.00     0.157 HD
ENDBRANCH   1  24
TORSDOF 3
ENDMDL
MODEL 7
REMARK VINA RESULT:      -6.0     17.917     19.235
REMARK  3 active torsions:
REMARK  status: ('A' for Active; 'I' for Inactive)
REMARK    1  A    between atoms: C_1  and  N_7 
REMARK       I    between atoms: C_4  and  N_8 
REMARK    2  A    between atoms: C_9  and  N_15 
REMARK    3  A    between atoms: C_10  and  Cl_16 
ROOT
HETATM    1  C   UNK N   1      35.958  13.220  12.486  0.00  0.00     0.129 A 
HETATM    2  N   UNK N   1      35.623  13.019  11.195  0.00  0.00    -0.176 N 
ATOM      3  HN  UNK N   1      36.037  13.613  10.476  1.00  0.00     0.186 HD
HETATM    4  C   UNK N   1      34.754  12.054  10.828  0.00  0.00     0.677 A 
HETATM    5  N   UNK N   1      34.188  11.251  11.763  0.00  0.00    -0.191 N 
ATOM      6  HN  UNK N   1      33.533  10.526  11.470  1.00  0.00     0.184 HD
HETATM    7  N   UNK N   1      34.439  11.888   9.468  0.00  0.00    -0.234 N 
HETATM    8  C   UNK N   1      35.045  11.651  15.819  0.00  0.00     0.051 A 
HETATM    9  C   UNK N   1      35.665  12.517  14.892  0.00  0.00     0.099 A 
HETATM   10  C   UNK N   1      35.383  12.393  13.503  0.00  0.00     0.061 A 
HETATM   11  C   UNK N   1      34.477  11.393  13.082  0.00  0.00     0.065 A 
HETATM   12  C   UNK N   1      33.872  10.545  14.013  0.00  0.00     0.033 A 
HETATM   13  C   UNK N   1      34.153  10.672  15.372  0.00  0.00     0.033 A 
HETATM   14  H   UNK N   1      33.806  11.187   9.191  0.00  0.00     0.174 HD
HETATM   15  H   UNK N   1      34.852  12.473   8.792  0.00  0.00     0.174 HD
ENDROOT
BRANCH   9  16
HETATM   16 Cl   UNK N   1      36.788  13.757  15.412  0.00  0.00     0.011 Cl
HETATM   17  O   UNK N   1      37.554  15.068  15.399  0.00  0.00    -0.295 OA
ATOM     18  HO  UNK N   1      38.164  15.741  15.682  1.00  0.00     0.235 HD
HETATM   19  O   UNK N   1      37.746  14.862  15.819  0.00  0.00    -0.295 OA
ATOM     20  HO  UNK N   1      38.355  15.534  16.102  1.00  0.00     0.235 HD
ENDBRANCH   9  16
BRANCH   8  21
HETATM   21  N   UNK N   1      35.311  11.758  17.201  0.00  0.00    -0.398 N 
HETATM   22  H   UNK N   1      34.575  11.926  17.833  0.00  0.00     0.156 HD
HETATM   23  H   UNK N   1      36.233  11.663  17.534  0.00  0.00     0.156 HD
ENDBRANCH   8  21
BRANCH   1  24
HETATM   24  N   UNK N   1      36.875  14.255  12.758  0.00  0.00    -0.384 N 
HETATM   25  H   UNK N   1      37.601  14.449  12.123  0.00  0.00     0.157 HD
HETATM   26  H   UNK N   1      36.789  14.784  13.585  0.00  0.00     0.157 HD
ENDBRANCH   1  24
TORSDOF 3
ENDMDL
MODEL 8
REMARK VINA RESULT:      -5.8      9.792     11.666
REMARK  3 active torsions:
REMARK  status: ('A' for Active; 'I' for Inactive)
REMARK    1  A    between atoms: C_1  and  N_7 
REMARK       I    between atoms: C_4  and  N_8 
REMARK    2  A    between atoms: C_9  and  N_15 
REMARK    3  A    between atoms: C_10  and  Cl_16 
ROOT
HETATM    1  C   UNK N   1      33.087  17.214   6.459  0.00  0.00     0.129 A 
HETATM    2  N   UNK N   1      33.975  17.215   7.475  0.00  0.00    -0.176 N 
ATOM      3  HN  UNK N   1      34.972  17.187   7.263  1.00  0.00     0.186 HD
HETATM    4  C   UNK N   1      33.580  17.252   8.765  0.00  0.00     0.677 A 
HETATM    5  N   UNK N   1      32.260  17.290   9.075  0.00  0.00    -0.191 N 
ATOM      6  HN  UNK N   1      31.976  17.317  10.055  1.00  0.00     0.184 HD
HETATM    7  N   UNK N   1      34.547  17.251   9.785  0.00  0.00    -0.234 N 
HETATM    8  C   UNK N   1      29.306  17.297   6.139  0.00  0.00     0.051 A 
HETATM    9  C   UNK N   1      30.665  17.256   5.754  0.00  0.00     0.099 A 
HETATM   10  C   UNK N   1      31.685  17.253   6.745  0.00  0.00     0.061 A 
HETATM   11  C   UNK N   1      31.308  17.291   8.107  0.00  0.00     0.065 A 
HETATM   12  C   UNK N   1      29.959  17.331   8.469  0.00  0.00     0.033 A 
HETATM   13  C   UNK N   1      28.965  17.334   7.493  0.00  0.00     0.033 A 
HETATM   14  H   UNK N   1      34.267  17.278  10.728  0.00  0.00     0.174 HD
HETATM   15  H   UNK N   1      35.504  17.224   9.556  0.00  0.00     0.174 HD
ENDROOT
BRANCH   9  16
HETATM   16 Cl   UNK N   1      31.134  17.209   4.067  0.00  0.00     0.011 Cl
HETATM   17  O   UNK N   1      31.963  17.466   2.821  0.00  0.00    -0.295 OA
ATOM     18  HO  UNK N   1      32.217  17.440   1.905  1.00  0.00     0.235 HD
HETATM   19  O   UNK N   1      31.586  17.198   2.618  0.00  0.00    -0.295 OA
ATOM     20  HO  UNK N   1      31.840  17.172   1.702  1.00  0.00     0.235 HD
ENDBRANCH   9  16
BRANCH   8  21
HETATM   21  N   UNK N   1      28.279  17.300   5.171  0.00  0.00    -0.398 N 
HETATM   22  H   UNK N   1      27.450  16.793   5.331  0.00  0.00     0.156 HD
HETATM   23  H   UNK N   1      28.390  17.810   4.336  0.00  0.00     0.156 HD
ENDBRANCH   8  21
BRANCH   1  24
HETATM   24  N   UNK N   1      33.608  17.174   5.150  0.00  0.00    -0.384 N 
HETATM   25  H   UNK N   1      34.568  17.014   5.008  0.00  0.00     0.157 HD
HETATM   26  H   UNK N   1      33.011  17.306   4.379  0.00  0.00     0.157 HD
ENDBRANCH   1  24
TORSDOF 3
ENDMDL
MODEL 9
REMARK VINA RESULT:      -5.8      8.304      9.634
REMARK  3 active torsions:
REMARK  status: ('A' for Active; 'I' for Inactive)
REMARK    1  A    between atoms: C_1  and  N_7 
REMARK       I    between atoms: C_4  and  N_8 
REMARK    2  A    between atoms: C_9  and  N_15 
REMARK    3  A    between atoms: C_10  and  Cl_16 
ROOT
HETATM    1  C   UNK N   1      28.013  16.779   5.604  0.00  0.00     0.129 A 
HETATM    2  N   UNK N   1      27.734  16.284   4.380  0.00  0.00    -0.176 N 
ATOM      3  HN  UNK N   1      26.763  16.240   4.071  1.00  0.00     0.186 HD
HETATM    4  C   UNK N   1      28.706  15.845   3.553  0.00  0.00     0.677 A 
HETATM    5  N   UNK N   1      30.006  15.891   3.938  0.00  0.00    -0.191 N 
ATOM      6  HN  UNK N   1      30.729  15.556   3.301  1.00  0.00     0.184 HD
HETATM    7  N   UNK N   1      28.360  15.338   2.288  0.00  0.00    -0.234 N 
HETATM    8  C   UNK N   1      31.148  17.370   7.660  0.00  0.00     0.051 A 
HETATM    9  C   UNK N   1      29.779  17.347   7.314  0.00  0.00     0.099 A 
HETATM   10  C   UNK N   1      29.372  16.845   6.047  0.00  0.00     0.061 A 
HETATM   11  C   UNK N   1      30.363  16.376   5.154  0.00  0.00     0.065 A 
HETATM   12  C   UNK N   1      31.713  16.407   5.512  0.00  0.00     0.033 A 
HETATM   13  C   UNK N   1      32.104  16.900   6.756  0.00  0.00     0.033 A 
HETATM   14  H   UNK N   1      29.062  15.016   1.678  0.00  0.00     0.174 HD
HETATM   15  H   UNK N   1      27.415  15.306   2.011  0.00  0.00     0.174 HD
ENDROOT
BRANCH   9  16
HETATM   16 Cl   UNK N   1      28.550  17.927   8.420  0.00  0.00     0.011 Cl
HETATM   17  O   UNK N   1      27.388  17.879   9.398  0.00  0.00    -0.295 OA
ATOM     18  HO  UNK N   1      26.722  18.194   9.997  1.00  0.00     0.235 HD
HETATM   19  O   UNK N   1      27.468  18.378   9.385  0.00  0.00    -0.295 OA
ATOM     20  HO  UNK N   1      26.802  18.693   9.985  1.00  0.00     0.235 HD
ENDBRANCH   9  16
BRANCH   8  21
HETATM   21  N   UNK N   1      31.572  17.864   8.912  0.00  0.00    -0.398 N 
HETATM   22  H   UNK N   1      31.197  17.489   9.742  0.00  0.00     0.156 HD
HETATM   23  H   UNK N   1      32.242  18.584   8.956  0.00  0.00     0.156 HD
ENDBRANCH   8  21
BRANCH   1  24
HETATM   24  N   UNK N   1      26.923  17.210   6.386  0.00  0.00    -0.384 N 
HETATM   25  H   UNK N   1      26.973  17.163   7.367  0.00  0.00     0.157 HD
HETATM   26  H   UNK N   1      26.111  17.557   5.950  0.00  0.00     0.157 HD
ENDBRANCH   1  24
TORSDOF 3
ENDMDL
