REMARK  3 active torsions:
REMARK  status: ('A' for Active; 'I' for Inactive)
REMARK       I    between atoms: C_3  and  N_15 
REMARK    1  A    between atoms: C_8  and  O_9 
REMARK    2  A    between atoms: O_9  and  C_10 
REMARK    3  A    between atoms: C_10  and  C_16 
ROOT
HETATM    1  N   UNK N   1       1.839  -2.031  -0.006  0.00  0.00    -0.168 N 
ATOM      2  HN  UNK N   1       2.627  -1.383  -0.007  1.00  0.00     0.186 HD
HETATM    3  C   UNK N   1       2.072  -3.387   0.040  0.00  0.00     0.679 A 
HETATM    4  N   UNK N   1       1.024  -4.271   0.049  0.00  0.00    -0.174 N 
ATOM      5  HN  UNK N   1       1.187  -5.278   0.085  1.00  0.00     0.186 HD
HETATM    6  C   UNK N   1      -0.232  -3.769   0.009  0.00  0.00     0.153 A 
HETATM    7  C   UNK N   1      -0.479  -2.452  -0.043  0.00  0.00     0.130 A 
HETATM    8  C   UNK N   1       0.560  -1.543  -0.052  0.00  0.00     0.188 A 
HETATM    9  N   UNK N   1      -1.801  -2.238  -0.073  0.00  0.00    -0.346 N 
ATOM     10  HN  UNK N   1      -2.292  -1.344  -0.114  1.00  0.00     0.167 HD
HETATM   11  C   UNK N   1      -2.339  -3.487  -0.037  0.00  0.00     0.182 A 
HETATM   12  N   UNK N   1      -1.381  -4.455   0.014  0.00  0.00    -0.336 N 
HETATM   13  N   UNK N   1       3.394  -3.872   0.075  0.00  0.00    -0.234 N 
HETATM   14  H   UNK N   1      -1.506  -5.431   0.047  0.00  0.00     0.168 HD
HETATM   15  H   UNK N   1       3.563  -4.841   0.099  0.00  0.00     0.174 HD
HETATM   16  H   UNK N   1       4.150  -3.241   0.075  0.00  0.00     0.174 HD
ENDROOT
BRANCH   8  17
HETATM   17  O   UNK N   1       0.291  -0.224  -0.110  0.00  0.00    -0.333 OA
BRANCH  17  18
HETATM   18  C   UNK N   1       1.217   0.777   0.053  0.00  0.00     0.182 C 
BRANCH  18  19
HETATM   19  C   UNK N   1       0.559   2.105  -0.305  0.00  0.00     0.010 C 
HETATM   20  C   UNK N   1      -0.826   2.231   0.336  0.00  0.00     0.007 C 
HETATM   21  C   UNK N   1      -1.487   3.527  -0.113  0.00  0.00     0.000 C 
HETATM   22  C   UNK N   1      -0.630   4.713   0.314  0.00  0.00     0.000 C 
HETATM   23  C   UNK N   1       0.774   4.598  -0.281  0.00  0.00     0.000 C 
HETATM   24  C   UNK N   1       1.433   3.280   0.127  0.00  0.00     0.007 C 
ENDBRANCH  18  19
ENDBRANCH  17  18
ENDBRANCH   8  17
TORSDOF 3
