MODEL 1
REMARK VINA RESULT:      -6.5      0.000      0.000
REMARK  3 active torsions:
REMARK  status: ('A' for Active; 'I' for Inactive)
REMARK       I    between atoms: C_3  and  N_15 
REMARK    1  A    between atoms: C_8  and  O_9 
REMARK    2  A    between atoms: O_9  and  C_10 
REMARK    3  A    between atoms: C_10  and  C_16 
ROOT
HETATM    1  N   UNK N   1      21.919  20.512   2.071  0.00  0.00    -0.168 N 
ATOM      2  HN  UNK N   1      22.562  21.247   1.774  1.00  0.00     0.186 HD
HETATM    3  C   UNK N   1      20.684  20.404   1.471  0.00  0.00     0.679 A 
HETATM    4  N   UNK N   1      19.811  19.419   1.853  0.00  0.00    -0.174 N 
ATOM      5  HN  UNK N   1      18.895  19.330   1.412  1.00  0.00     0.186 HD
HETATM    6  C   UNK N   1      20.200  18.568   2.831  0.00  0.00     0.153 A 
HETATM    7  C   UNK N   1      21.396  18.661   3.432  0.00  0.00     0.130 A 
HETATM    8  C   UNK N   1      22.292  19.645   3.063  0.00  0.00     0.188 A 
HETATM    9  N   UNK N   1      21.517  17.698   4.355  0.00  0.00    -0.346 N 
ATOM     10  HN  UNK N   1      22.310  17.515   4.971  1.00  0.00     0.167 HD
HETATM   11  C   UNK N   1      20.340  17.021   4.283  0.00  0.00     0.182 A 
HETATM   12  N   UNK N   1      19.505  17.545   3.341  0.00  0.00    -0.336 N 
HETATM   13  N   UNK N   1      20.312  21.312   0.460  0.00  0.00    -0.234 N 
HETATM   14  H   UNK N   1      18.602  17.241   3.094  0.00  0.00     0.168 HD
HETATM   15  H   UNK N   1      19.427  21.242   0.036  0.00  0.00     0.174 HD
HETATM   16  H   UNK N   1      20.938  22.018   0.178  0.00  0.00     0.174 HD
ENDROOT
BRANCH   8  17
HETATM   17  O   UNK N   1      23.485  19.725   3.683  0.00  0.00    -0.333 OA
BRANCH  17  18
HETATM   18  C   UNK N   1      24.500  20.582   3.332  0.00  0.00     0.182 C 
BRANCH  18  19
HETATM   19  C   UNK N   1      25.824  19.836   3.454  0.00  0.00     0.010 C 
HETATM   20  C   UNK N   1      26.717  20.459   4.530  0.00  0.00     0.007 C 
HETATM   21  C   UNK N   1      28.061  19.745   4.564  0.00  0.00     0.000 C 
HETATM   22  C   UNK N   1      27.849  18.270   4.884  0.00  0.00     0.000 C 
HETATM   23  C   UNK N   1      26.930  17.626   3.845  0.00  0.00     0.000 C 
HETATM   24  C   UNK N   1      25.591  18.361   3.771  0.00  0.00     0.007 C 
ENDBRANCH  18  19
ENDBRANCH  17  18
ENDBRANCH   8  17
TORSDOF 3
ENDMDL
MODEL 2
REMARK VINA RESULT:      -6.3     14.687     17.691
REMARK  3 active torsions:
REMARK  status: ('A' for Active; 'I' for Inactive)
REMARK       I    between atoms: C_3  and  N_15 
REMARK    1  A    between atoms: C_8  and  O_9 
REMARK    2  A    between atoms: O_9  and  C_10 
REMARK    3  A    between atoms: C_10  and  C_16 
ROOT
HETATM    1  N   UNK N   1      34.698  14.116  12.005  0.00  0.00    -0.168 N 
ATOM      2  HN  UNK N   1      34.016  14.110  12.763  1.00  0.00     0.186 HD
HETATM    3  C   UNK N   1      34.324  14.561  10.756  0.00  0.00     0.679 A 
HETATM    4  N   UNK N   1      35.231  14.582   9.728  0.00  0.00    -0.174 N 
ATOM      5  HN  UNK N   1      34.964  14.912   8.800  1.00  0.00     0.186 HD
HETATM    6  C   UNK N   1      36.489  14.153   9.980  0.00  0.00     0.153 A 
HETATM    7  C   UNK N   1      36.870  13.709  11.187  0.00  0.00     0.130 A 
HETATM    8  C   UNK N   1      35.975  13.680  12.238  0.00  0.00     0.188 A 
HETATM    9  N   UNK N   1      38.160  13.351  11.154  0.00  0.00    -0.346 N 
ATOM     10  HN  UNK N   1      38.728  12.977  11.915  1.00  0.00     0.167 HD
HETATM   11  C   UNK N   1      38.539  13.599   9.871  0.00  0.00     0.182 A 
HETATM   12  N   UNK N   1      37.515  14.098   9.122  0.00  0.00    -0.336 N 
HETATM   13  N   UNK N   1      33.003  14.995  10.531  0.00  0.00    -0.234 N 
HETATM   14  H   UNK N   1      37.528  14.357   8.173  0.00  0.00     0.168 HD
HETATM   15  H   UNK N   1      32.732  15.305   9.638  0.00  0.00     0.174 HD
HETATM   16  H   UNK N   1      32.350  14.987  11.268  0.00  0.00     0.174 HD
ENDROOT
BRANCH   8  17
HETATM   17  O   UNK N   1      36.375  13.226  13.441  0.00  0.00    -0.333 OA
BRANCH  17  18
HETATM   18  C   UNK N   1      36.362  13.956  14.604  0.00  0.00     0.182 C 
BRANCH  18  19
HETATM   19  C   UNK N   1      36.365  12.988  15.782  0.00  0.00     0.010 C 
HETATM   20  C   UNK N   1      35.137  13.193  16.674  0.00  0.00     0.007 C 
HETATM   21  C   UNK N   1      35.219  12.271  17.883  0.00  0.00     0.000 C 
HETATM   22  C   UNK N   1      35.262  10.820  17.419  0.00  0.00     0.000 C 
HETATM   23  C   UNK N   1      36.459  10.592  16.495  0.00  0.00     0.000 C 
HETATM   24  C   UNK N   1      36.412  11.541  15.297  0.00  0.00     0.007 C 
ENDBRANCH  18  19
ENDBRANCH  17  18
ENDBRANCH   8  17
TORSDOF 3
ENDMDL
MODEL 3
REMARK VINA RESULT:      -6.1     13.843     16.821
REMARK  3 active torsions:
REMARK  status: ('A' for Active; 'I' for Inactive)
REMARK       I    between atoms: C_3  and  N_15 
REMARK    1  A    between atoms: C_8  and  O_9 
REMARK    2  A    between atoms: O_9  and  C_10 
REMARK    3  A    between atoms: C_10  and  C_16 
ROOT
HETATM    1  N   UNK N   1      36.814  14.001  11.430  0.00  0.00    -0.168 N 
ATOM      2  HN  UNK N   1      37.436  13.625  12.146  1.00  0.00     0.186 HD
HETATM    3  C   UNK N   1      37.314  14.306  10.185  0.00  0.00     0.679 A 
HETATM    4  N   UNK N   1      36.490  14.805   9.209  0.00  0.00    -0.174 N 
ATOM      5  HN  UNK N   1      36.851  15.033   8.282  1.00  0.00     0.186 HD
HETATM    6  C   UNK N   1      35.183  14.986   9.512  0.00  0.00     0.153 A 
HETATM    7  C   UNK N   1      34.679  14.701  10.722  0.00  0.00     0.130 A 
HETATM    8  C   UNK N   1      35.490  14.197  11.719  0.00  0.00     0.188 A 
HETATM    9  N   UNK N   1      33.368  14.974  10.743  0.00  0.00    -0.346 N 
ATOM     10  HN  UNK N   1      32.715  14.861  11.520  1.00  0.00     0.167 HD
HETATM   11  C   UNK N   1      33.106  15.437   9.491  0.00  0.00     0.182 A 
HETATM   12  N   UNK N   1      34.221  15.454   8.708  0.00  0.00    -0.336 N 
HETATM   13  N   UNK N   1      38.681  14.109   9.909  0.00  0.00    -0.234 N 
HETATM   14  H   UNK N   1      34.300  15.742   7.770  0.00  0.00     0.168 HD
HETATM   15  H   UNK N   1      39.043  14.335   9.022  0.00  0.00     0.174 HD
HETATM   16  H   UNK N   1      39.276  13.745  10.604  0.00  0.00     0.174 HD
ENDROOT
BRANCH   8  17
HETATM   17  O   UNK N   1      34.965  13.922  12.929  0.00  0.00    -0.333 OA
BRANCH  17  18
HETATM   18  C   UNK N   1      35.661  13.940  14.113  0.00  0.00     0.182 C 
BRANCH  18  19
HETATM   19  C   UNK N   1      35.098  12.851  15.019  0.00  0.00     0.010 C 
HETATM   20  C   UNK N   1      34.431  11.738  14.205  0.00  0.00     0.007 C 
HETATM   21  C   UNK N   1      33.807  10.715  15.144  0.00  0.00     0.000 C 
HETATM   22  C   UNK N   1      34.888  10.106  16.029  0.00  0.00     0.000 C 
HETATM   23  C   UNK N   1      35.599  11.197  16.829  0.00  0.00     0.000 C 
HETATM   24  C   UNK N   1      36.194  12.255  15.900  0.00  0.00     0.007 C 
ENDBRANCH  18  19
ENDBRANCH  17  18
ENDBRANCH   8  17
TORSDOF 3
ENDMDL
MODEL 4
REMARK VINA RESULT:      -6.1      0.937      2.968
REMARK  3 active torsions:
REMARK  status: ('A' for Active; 'I' for Inactive)
REMARK       I    between atoms: C_3  and  N_15 
REMARK    1  A    between atoms: C_8  and  O_9 
REMARK    2  A    between atoms: O_9  and  C_10 
REMARK    3  A    between atoms: C_10  and  C_16 
ROOT
HETATM    1  N   UNK N   1      21.099  17.079   4.285  0.00  0.00    -0.168 N 
ATOM      2  HN  UNK N   1      21.486  16.385   4.926  1.00  0.00     0.186 HD
HETATM    3  C   UNK N   1      19.806  16.943   3.833  0.00  0.00     0.679 A 
HETATM    4  N   UNK N   1      19.269  17.870   2.977  0.00  0.00    -0.174 N 
ATOM      5  HN  UNK N   1      18.311  17.779   2.639  1.00  0.00     0.186 HD
HETATM    6  C   UNK N   1      20.048  18.909   2.596  0.00  0.00     0.153 A 
HETATM    7  C   UNK N   1      21.312  19.055   3.020  0.00  0.00     0.130 A 
HETATM    8  C   UNK N   1      21.873  18.135   3.882  0.00  0.00     0.188 A 
HETATM    9  N   UNK N   1      21.844  20.164   2.490  0.00  0.00    -0.346 N 
ATOM     10  HN  UNK N   1      22.785  20.537   2.626  1.00  0.00     0.167 HD
HETATM   11  C   UNK N   1      20.843  20.680   1.727  0.00  0.00     0.182 A 
HETATM   12  N   UNK N   1      19.716  19.915   1.778  0.00  0.00    -0.336 N 
HETATM   13  N   UNK N   1      19.028  15.845   4.248  0.00  0.00    -0.234 N 
HETATM   14  H   UNK N   1      18.858  20.068   1.319  0.00  0.00     0.168 HD
HETATM   15  H   UNK N   1      18.107  15.741   3.920  0.00  0.00     0.174 HD
HETATM   16  H   UNK N   1      19.407  15.179   4.868  0.00  0.00     0.174 HD
ENDROOT
BRANCH   8  17
HETATM   17  O   UNK N   1      23.146  18.296   4.292  0.00  0.00    -0.333 OA
BRANCH  17  18
HETATM   18  C   UNK N   1      24.161  17.395   4.084  0.00  0.00     0.182 C 
BRANCH  18  19
HETATM   19  C   UNK N   1      25.432  18.168   3.749  0.00  0.00     0.010 C 
HETATM   20  C   UNK N   1      25.208  19.679   3.856  0.00  0.00     0.007 C 
HETATM   21  C   UNK N   1      26.469  20.419   3.431  0.00  0.00     0.000 C 
HETATM   22  C   UNK N   1      27.627  20.021   4.339  0.00  0.00     0.000 C 
HETATM   23  C   UNK N   1      27.853  18.510   4.283  0.00  0.00     0.000 C 
HETATM   24  C   UNK N   1      26.580  17.754   4.666  0.00  0.00     0.007 C 
ENDBRANCH  18  19
ENDBRANCH  17  18
ENDBRANCH   8  17
TORSDOF 3
ENDMDL
MODEL 5
REMARK VINA RESULT:      -5.9     15.586     17.832
REMARK  3 active torsions:
REMARK  status: ('A' for Active; 'I' for Inactive)
REMARK       I    between atoms: C_3  and  N_15 
REMARK    1  A    between atoms: C_8  and  O_9 
REMARK    2  A    between atoms: O_9  and  C_10 
REMARK    3  A    between atoms: C_10  and  C_16 
ROOT
HETATM    1  N   UNK N   1      34.548  12.193  12.540  0.00  0.00    -0.168 N 
ATOM      2  HN  UNK N   1      34.215  11.522  13.233  1.00  0.00     0.186 HD
HETATM    3  C   UNK N   1      34.435  11.902  11.199  0.00  0.00     0.679 A 
HETATM    4  N   UNK N   1      34.872  12.796  10.256  0.00  0.00    -0.174 N 
ATOM      5  HN  UNK N   1      34.790  12.589   9.260  1.00  0.00     0.186 HD
HETATM    6  C   UNK N   1      35.413  13.959  10.684  0.00  0.00     0.153 A 
HETATM    7  C   UNK N   1      35.538  14.259  11.986  0.00  0.00     0.130 A 
HETATM    8  C   UNK N   1      35.105  13.375  12.954  0.00  0.00     0.188 A 
HETATM    9  N   UNK N   1      36.103  15.466  12.123  0.00  0.00    -0.346 N 
ATOM     10  HN  UNK N   1      36.325  15.961  12.987  1.00  0.00     0.167 HD
HETATM   11  C   UNK N   1      36.312  15.880  10.844  0.00  0.00     0.182 A 
HETATM   12  N   UNK N   1      35.891  14.958   9.932  0.00  0.00    -0.336 N 
HETATM   13  N   UNK N   1      33.871  10.677  10.792  0.00  0.00    -0.234 N 
HETATM   14  H   UNK N   1      35.929  15.015   8.950  0.00  0.00     0.168 HD
HETATM   15  H   UNK N   1      33.797  10.463   9.834  0.00  0.00     0.174 HD
HETATM   16  H   UNK N   1      33.550  10.035  11.466  0.00  0.00     0.174 HD
ENDROOT
BRANCH   8  17
HETATM   17  O   UNK N   1      35.244  13.691  14.256  0.00  0.00    -0.333 OA
BRANCH  17  18
HETATM   18  C   UNK N   1      36.181  13.151  15.102  0.00  0.00     0.182 C 
BRANCH  18  19
HETATM   19  C   UNK N   1      35.486  12.757  16.401  0.00  0.00     0.010 C 
HETATM   20  C   UNK N   1      35.944  11.376  16.880  0.00  0.00     0.007 C 
HETATM   21  C   UNK N   1      35.167  10.979  18.128  0.00  0.00     0.000 C 
HETATM   22  C   UNK N   1      35.417  11.999  19.233  0.00  0.00     0.000 C 
HETATM   23  C   UNK N   1      35.004  13.397  18.771  0.00  0.00     0.000 C 
HETATM   24  C   UNK N   1      35.745  13.791  17.493  0.00  0.00     0.007 C 
ENDBRANCH  18  19
ENDBRANCH  17  18
ENDBRANCH   8  17
TORSDOF 3
ENDMDL
MODEL 6
REMARK VINA RESULT:      -5.9     12.998     16.046
REMARK  3 active torsions:
REMARK  status: ('A' for Active; 'I' for Inactive)
REMARK       I    between atoms: C_3  and  N_15 
REMARK    1  A    between atoms: C_8  and  O_9 
REMARK    2  A    between atoms: O_9  and  C_10 
REMARK    3  A    between atoms: C_10  and  C_16 
ROOT
HETATM    1  N   UNK N   1      34.750  13.249  11.702  0.00  0.00    -0.168 N 
ATOM      2  HN  UNK N   1      34.281  13.322  10.799  1.00  0.00     0.186 HD
HETATM    3  C   UNK N   1      34.729  12.055  12.386  0.00  0.00     0.679 A 
HETATM    4  N   UNK N   1      35.360  11.938  13.598  0.00  0.00    -0.174 N 
ATOM      5  HN  UNK N   1      35.352  11.056  14.111  1.00  0.00     0.186 HD
HETATM    6  C   UNK N   1      35.994  13.027  14.092  0.00  0.00     0.153 A 
HETATM    7  C   UNK N   1      36.020  14.201  13.444  0.00  0.00     0.130 A 
HETATM    8  C   UNK N   1      35.392  14.341  12.222  0.00  0.00     0.188 A 
HETATM    9  N   UNK N   1      36.713  15.098  14.157  0.00  0.00    -0.346 N 
ATOM     10  HN  UNK N   1      36.904  16.074  13.923  1.00  0.00     0.167 HD
HETATM   11  C   UNK N   1      37.104  14.411  15.264  0.00  0.00     0.182 A 
HETATM   12  N   UNK N   1      36.667  13.120  15.245  0.00  0.00    -0.336 N 
HETATM   13  N   UNK N   1      34.054  10.945  11.841  0.00  0.00    -0.234 N 
HETATM   14  H   UNK N   1      36.814  12.421  15.922  0.00  0.00     0.168 HD
HETATM   15  H   UNK N   1      34.031  10.093  12.333  0.00  0.00     0.174 HD
HETATM   16  H   UNK N   1      33.605  11.022  10.969  0.00  0.00     0.174 HD
ENDROOT
BRANCH   8  17
HETATM   17  O   UNK N   1      35.425  15.531  11.590  0.00  0.00    -0.333 OA
BRANCH  17  18
HETATM   18  C   UNK N   1      35.583  15.699  10.236  0.00  0.00     0.182 C 
BRANCH  18  19
HETATM   19  C   UNK N   1      34.350  16.412   9.692  0.00  0.00     0.010 C 
HETATM   20  C   UNK N   1      34.730  17.452   8.634  0.00  0.00     0.007 C 
HETATM   21  C   UNK N   1      33.486  18.203   8.178  0.00  0.00     0.000 C 
HETATM   22  C   UNK N   1      32.488  17.221   7.576  0.00  0.00     0.000 C 
HETATM   23  C   UNK N   1      32.116  16.145   8.597  0.00  0.00     0.000 C 
HETATM   24  C   UNK N   1      33.362  15.413   9.096  0.00  0.00     0.007 C 
ENDBRANCH  18  19
ENDBRANCH  17  18
ENDBRANCH   8  17
TORSDOF 3
ENDMDL
MODEL 7
REMARK VINA RESULT:      -5.8     17.683     19.866
REMARK  3 active torsions:
REMARK  status: ('A' for Active; 'I' for Inactive)
REMARK       I    between atoms: C_3  and  N_15 
REMARK    1  A    between atoms: C_8  and  O_9 
REMARK    2  A    between atoms: O_9  and  C_10 
REMARK    3  A    between atoms: C_10  and  C_16 
ROOT
HETATM    1  N   UNK N   1      43.897  23.327   2.728  0.00  0.00    -0.168 N 
ATOM      2  HN  UNK N   1      44.479  24.143   2.536  1.00  0.00     0.186 HD
HETATM    3  C   UNK N   1      44.372  22.329   3.549  0.00  0.00     0.679 A 
HETATM    4  N   UNK N   1      43.600  21.230   3.822  0.00  0.00    -0.174 N 
ATOM      5  HN  UNK N   1      43.943  20.486   4.431  1.00  0.00     0.186 HD
HETATM    6  C   UNK N   1      42.370  21.161   3.261  0.00  0.00     0.153 A 
HETATM    7  C   UNK N   1      41.893  22.119   2.453  0.00  0.00     0.130 A 
HETATM    8  C   UNK N   1      42.652  23.235   2.165  0.00  0.00     0.188 A 
HETATM    9  N   UNK N   1      40.660  21.795   2.043  0.00  0.00    -0.346 N 
ATOM     10  HN  UNK N   1      40.044  22.325   1.424  1.00  0.00     0.167 HD
HETATM   11  C   UNK N   1      40.416  20.598   2.641  0.00  0.00     0.182 A 
HETATM   12  N   UNK N   1      41.467  20.184   3.403  0.00  0.00    -0.336 N 
HETATM   13  N   UNK N   1      45.660  22.435   4.110  0.00  0.00    -0.234 N 
HETATM   14  H   UNK N   1      41.543  19.358   3.934  0.00  0.00     0.168 HD
HETATM   15  H   UNK N   1      46.004  21.718   4.690  0.00  0.00     0.174 HD
HETATM   16  H   UNK N   1      46.216  23.225   3.922  0.00  0.00     0.174 HD
ENDROOT
BRANCH   8  17
HETATM   17  O   UNK N   1      42.157  24.184   1.346  0.00  0.00    -0.333 OA
BRANCH  17  18
HETATM   18  C   UNK N   1      42.534  24.373   0.039  0.00  0.00     0.182 C 
BRANCH  18  19
HETATM   19  C   UNK N   1      41.308  24.802  -0.759  0.00  0.00     0.010 C 
HETATM   20  C   UNK N   1      40.525  23.590  -1.272  0.00  0.00     0.007 C 
HETATM   21  C   UNK N   1      39.360  24.055  -2.135  0.00  0.00     0.000 C 
HETATM   22  C   UNK N   1      38.430  24.936  -1.308  0.00  0.00     0.000 C 
HETATM   23  C   UNK N   1      39.192  26.138  -0.749  0.00  0.00     0.000 C 
HETATM   24  C   UNK N   1      40.391  25.686   0.084  0.00  0.00     0.007 C 
ENDBRANCH  18  19
ENDBRANCH  17  18
ENDBRANCH   8  17
TORSDOF 3
ENDMDL
MODEL 8
REMARK VINA RESULT:      -5.8      3.699      5.464
REMARK  3 active torsions:
REMARK  status: ('A' for Active; 'I' for Inactive)
REMARK       I    between atoms: C_3  and  N_15 
REMARK    1  A    between atoms: C_8  and  O_9 
REMARK    2  A    between atoms: O_9  and  C_10 
REMARK    3  A    between atoms: C_10  and  C_16 
ROOT
HETATM    1  N   UNK N   1      19.941  16.445   2.653  0.00  0.00    -0.168 N 
ATOM      2  HN  UNK N   1      19.780  15.503   3.011  1.00  0.00     0.186 HD
HETATM    3  C   UNK N   1      19.705  16.719   1.325  0.00  0.00     0.679 A 
HETATM    4  N   UNK N   1      19.910  17.981   0.830  0.00  0.00    -0.174 N 
ATOM      5  HN  UNK N   1      19.736  18.194  -0.153  1.00  0.00     0.186 HD
HETATM    6  C   UNK N   1      20.349  18.935   1.683  0.00  0.00     0.153 A 
HETATM    7  C   UNK N   1      20.590  18.686   2.979  0.00  0.00     0.130 A 
HETATM    8  C   UNK N   1      20.390  17.424   3.500  0.00  0.00     0.188 A 
HETATM    9  N   UNK N   1      21.011  19.804   3.586  0.00  0.00    -0.346 N 
ATOM     10  HN  UNK N   1      21.272  19.926   4.565  1.00  0.00     0.167 HD
HETATM   11  C   UNK N   1      21.013  20.737   2.596  0.00  0.00     0.182 A 
HETATM   12  N   UNK N   1      20.604  20.219   1.404  0.00  0.00    -0.336 N 
HETATM   13  N   UNK N   1      19.254  15.698   0.466  0.00  0.00    -0.234 N 
HETATM   14  H   UNK N   1      20.517  20.682   0.539  0.00  0.00     0.168 HD
HETATM   15  H   UNK N   1      19.093  15.889  -0.486  0.00  0.00     0.174 HD
HETATM   16  H   UNK N   1      19.099  14.791   0.818  0.00  0.00     0.174 HD
ENDROOT
BRANCH   8  17
HETATM   17  O   UNK N   1      20.644  17.192   4.802  0.00  0.00    -0.333 OA
BRANCH  17  18
HETATM   18  C   UNK N   1      21.806  16.651   5.295  0.00  0.00     0.182 C 
BRANCH  18  19
HETATM   19  C   UNK N   1      21.602  16.335   6.773  0.00  0.00     0.010 C 
HETATM   20  C   UNK N   1      20.257  16.866   7.275  0.00  0.00     0.007 C 
HETATM   21  C   UNK N   1      20.126  16.610   8.770  0.00  0.00     0.000 C 
HETATM   22  C   UNK N   1      20.204  15.112   9.041  0.00  0.00     0.000 C 
HETATM   23  C   UNK N   1      21.523  14.543   8.517  0.00  0.00     0.000 C 
HETATM   24  C   UNK N   1      21.687  14.832   7.025  0.00  0.00     0.007 C 
ENDBRANCH  18  19
ENDBRANCH  17  18
ENDBRANCH   8  17
TORSDOF 3
ENDMDL
MODEL 9
REMARK VINA RESULT:      -5.8      3.887      6.943
REMARK  3 active torsions:
REMARK  status: ('A' for Active; 'I' for Inactive)
REMARK       I    between atoms: C_3  and  N_15 
REMARK    1  A    between atoms: C_8  and  O_9 
REMARK    2  A    between atoms: O_9  and  C_10 
REMARK    3  A    between atoms: C_10  and  C_16 
ROOT
HETATM    1  N   UNK N   1      20.566  17.185   3.804  0.00  0.00    -0.168 N 
ATOM      2  HN  UNK N   1      20.432  16.209   4.067  1.00  0.00     0.186 HD
HETATM    3  C   UNK N   1      21.001  18.090   4.746  0.00  0.00     0.679 A 
HETATM    4  N   UNK N   1      21.193  19.405   4.409  0.00  0.00    -0.174 N 
ATOM      5  HN  UNK N   1      21.516  20.083   5.100  1.00  0.00     0.186 HD
HETATM    6  C   UNK N   1      20.940  19.777   3.132  0.00  0.00     0.153 A 
HETATM    7  C   UNK N   1      20.510  18.912   2.202  0.00  0.00     0.130 A 
HETATM    8  C   UNK N   1      20.311  17.583   2.519  0.00  0.00     0.188 A 
HETATM    9  N   UNK N   1      20.344  19.546   1.034  0.00  0.00    -0.346 N 
ATOM     10  HN  UNK N   1      20.027  19.154   0.146  1.00  0.00     0.167 HD
HETATM   11  C   UNK N   1      20.693  20.833   1.303  0.00  0.00     0.182 A 
HETATM   12  N   UNK N   1      21.067  21.000   2.603  0.00  0.00    -0.336 N 
HETATM   13  N   UNK N   1      21.247  17.666   6.067  0.00  0.00    -0.234 N 
HETATM   14  H   UNK N   1      21.363  21.827   3.047  0.00  0.00     0.168 HD
HETATM   15  H   UNK N   1      21.549  18.313   6.744  0.00  0.00     0.174 HD
HETATM   16  H   UNK N   1      21.117  16.722   6.313  0.00  0.00     0.174 HD
ENDROOT
BRANCH   8  17
HETATM   17  O   UNK N   1      19.873  16.731   1.572  0.00  0.00    -0.333 OA
BRANCH  17  18
HETATM   18  C   UNK N   1      20.641  15.769   0.962  0.00  0.00     0.182 C 
BRANCH  18  19
HETATM   19  C   UNK N   1      19.925  14.429   1.091  0.00  0.00     0.010 C 
HETATM   20  C   UNK N   1      18.657  14.389   0.233  0.00  0.00     0.007 C 
HETATM   21  C   UNK N   1      17.925  13.073   0.454  0.00  0.00     0.000 C 
HETATM   22  C   UNK N   1      18.830  11.911   0.060  0.00  0.00     0.000 C 
HETATM   23  C   UNK N   1      20.124  11.944   0.875  0.00  0.00     0.000 C 
HETATM   24  C   UNK N   1      20.848  13.278   0.696  0.00  0.00     0.007 C 
ENDBRANCH  18  19
ENDBRANCH  17  18
ENDBRANCH   8  17
TORSDOF 3
ENDMDL
