MODEL 1
REMARK VINA RESULT:      -6.7      0.000      0.000
REMARK  7 active torsions:
REMARK  status: ('A' for Active; 'I' for Inactive)
REMARK       I    between atoms: N_1  and  C_2 
REMARK    1  A    between atoms: C_5  and  N_6 
REMARK    2  A    between atoms: C_9  and  C_16 
REMARK    3  A    between atoms: C_16  and  N_17 
REMARK    4  A    between atoms: N_17  and  C_18 
REMARK    5  A    between atoms: C_20  and  O_21 
REMARK    6  A    between atoms: C_23  and  O_24 
REMARK    7  A    between atoms: C_26  and  O_27 
ROOT
HETATM    1  N   UNK N   1      36.852  13.497  14.325  0.00  0.00    -0.234 N 
HETATM    2  C   UNK N   1      36.522  13.706  12.972  0.00  0.00     0.679 A 
HETATM    3  N   UNK N   1      37.434  13.437  12.005  0.00  0.00    -0.176 N 
ATOM      4  HN  UNK N   1      38.349  13.075  12.271  1.00  0.00     0.186 HD
HETATM    5  C   UNK N   1      37.157  13.640  10.691  0.00  0.00     0.129 A 
HETATM    6  C   UNK N   1      35.890  14.154  10.313  0.00  0.00     0.059 A 
HETATM    7  C   UNK N   1      35.508  14.440   8.975  0.00  0.00    -0.035 A 
HETATM    8  C   UNK N   1      34.244  15.021   8.729  0.00  0.00    -0.018 A 
HETATM    9  C   UNK N   1      33.372  15.247   9.792  0.00  0.00     0.099 A 
HETATM   10  N   UNK N   1      33.739  14.936  11.060  0.00  0.00    -0.350 N 
ATOM     11  HN  UNK N   1      33.076  15.092  11.820  1.00  0.00     0.166 HD
HETATM   12  C   UNK N   1      34.963  14.423  11.347  0.00  0.00     0.135 A 
HETATM   13  N   UNK N   1      35.299  14.189  12.641  0.00  0.00    -0.176 N 
ATOM     14  HN  UNK N   1      34.620  14.380  13.378  1.00  0.00     0.186 HD
HETATM   15  C   UNK N   1      36.430  14.188   7.817  0.00  0.00     0.050 C 
HETATM   16  H   UNK N   1      37.761  13.681  14.655  0.00  0.00     0.174 HD
HETATM   17  H   UNK N   1      36.167  13.163  14.947  0.00  0.00     0.174 HD
ENDROOT
BRANCH   8  18
HETATM   18  C   UNK N   1      33.845  15.490   7.354  0.00  0.00     0.163 C 
BRANCH  18  19
HETATM   19  N   UNK N   1      33.323  16.854   7.380  0.00  0.00    -0.381 N 
HETATM   20  C   UNK N   1      34.188  17.970   7.722  0.00  0.00     0.150 C 
BRANCH  19  21
HETATM   21  C   UNK N   1      31.972  17.118   7.013  0.00  0.00     0.035 A 
HETATM   22  C   UNK N   1      31.567  16.956   5.684  0.00  0.00     0.069 A 
HETATM   23  C   UNK N   1      30.254  17.188   5.282  0.00  0.00     0.106 A 
HETATM   24  C   UNK N   1      29.313  17.673   6.242  0.00  0.00     0.135 A 
HETATM   25  C   UNK N   1      29.715  17.832   7.582  0.00  0.00     0.106 A 
HETATM   26  C   UNK N   1      31.035  17.533   7.962  0.00  0.00     0.069 A 
BRANCH  23  27
HETATM   27  O   UNK N   1      29.951  16.903   3.990  0.00  0.00    -0.353 OA
HETATM   28  C   UNK N   1      30.853  16.437   3.063  0.00  0.00     0.210 C 
ENDBRANCH  23  27
BRANCH  24  29
HETATM   29  O   UNK N   1      28.041  18.024   5.926  0.00  0.00    -0.351 OA
HETATM   30  C   UNK N   1      27.027  17.110   5.753  0.00  0.00     0.210 C 
ENDBRANCH  24  29
BRANCH  25  31
HETATM   31  O   UNK N   1      28.820  18.305   8.484  0.00  0.00    -0.353 OA
HETATM   32  C   UNK N   1      28.190  17.510   9.416  0.00  0.00     0.210 C 
ENDBRANCH  25  31
ENDBRANCH  19  21
ENDBRANCH  18  19
ENDBRANCH   8  18
BRANCH   5  33
HETATM   33  N   UNK N   1      38.161  13.356   9.741  0.00  0.00    -0.384 N 
HETATM   34  H   UNK N   1      38.914  13.916   9.441  0.00  0.00     0.157 HD
HETATM   35  H   UNK N   1      38.100  12.470   9.316  0.00  0.00     0.157 HD
ENDBRANCH   5  33
TORSDOF 7
ENDMDL
MODEL 2
REMARK VINA RESULT:      -6.7      0.812      2.568
REMARK  7 active torsions:
REMARK  status: ('A' for Active; 'I' for Inactive)
REMARK       I    between atoms: N_1  and  C_2 
REMARK    1  A    between atoms: C_5  and  N_6 
REMARK    2  A    between atoms: C_9  and  C_16 
REMARK    3  A    between atoms: C_16  and  N_17 
REMARK    4  A    between atoms: N_17  and  C_18 
REMARK    5  A    between atoms: C_20  and  O_21 
REMARK    6  A    between atoms: C_23  and  O_24 
REMARK    7  A    between atoms: C_26  and  O_27 
ROOT
HETATM    1  N   UNK N   1      36.789  14.337  13.924  0.00  0.00    -0.234 N 
HETATM    2  C   UNK N   1      36.365  14.336  12.581  0.00  0.00     0.679 A 
HETATM    3  N   UNK N   1      37.259  14.095  11.590  0.00  0.00    -0.176 N 
ATOM      4  HN  UNK N   1      38.231  13.905  11.834  1.00  0.00     0.186 HD
HETATM    5  C   UNK N   1      36.891  14.099  10.284  0.00  0.00     0.129 A 
HETATM    6  C   UNK N   1      35.542  14.373   9.937  0.00  0.00     0.059 A 
HETATM    7  C   UNK N   1      35.056  14.441   8.604  0.00  0.00    -0.035 A 
HETATM    8  C   UNK N   1      33.706  14.796   8.382  0.00  0.00    -0.018 A 
HETATM    9  C   UNK N   1      32.863  15.013   9.469  0.00  0.00     0.099 A 
HETATM   10  N   UNK N   1      33.335  14.910  10.736  0.00  0.00    -0.350 N 
ATOM     11  HN  UNK N   1      32.694  15.053  11.517  1.00  0.00     0.166 HD
HETATM   12  C   UNK N   1      34.637  14.620  10.995  0.00  0.00     0.135 A 
HETATM   13  N   UNK N   1      35.068  14.591  12.281  0.00  0.00    -0.176 N 
ATOM     14  HN  UNK N   1      34.404  14.764  13.037  1.00  0.00     0.186 HD
HETATM   15  C   UNK N   1      35.947  14.195   7.422  0.00  0.00     0.050 C 
HETATM   16  H   UNK N   1      37.674  14.691  14.172  0.00  0.00     0.174 HD
HETATM   17  H   UNK N   1      36.194  13.980  14.622  0.00  0.00     0.174 HD
ENDROOT
BRANCH   8  18
HETATM   18  C   UNK N   1      33.173  15.037   6.993  0.00  0.00     0.163 C 
BRANCH  18  19
HETATM   19  N   UNK N   1      32.816  16.439   6.789  0.00  0.00    -0.381 N 
HETATM   20  C   UNK N   1      33.836  17.472   6.807  0.00  0.00     0.150 C 
BRANCH  19  21
HETATM   21  C   UNK N   1      31.468  16.808   6.510  0.00  0.00     0.035 A 
HETATM   22  C   UNK N   1      30.684  17.390   7.512  0.00  0.00     0.069 A 
HETATM   23  C   UNK N   1      29.367  17.780   7.281  0.00  0.00     0.106 A 
HETATM   24  C   UNK N   1      28.780  17.512   6.006  0.00  0.00     0.135 A 
HETATM   25  C   UNK N   1      29.568  16.933   4.993  0.00  0.00     0.106 A 
HETATM   26  C   UNK N   1      30.911  16.605   5.246  0.00  0.00     0.069 A 
BRANCH  23  27
HETATM   27  O   UNK N   1      28.734  18.424   8.295  0.00  0.00    -0.353 OA
HETATM   28  C   UNK N   1      28.459  17.866   9.522  0.00  0.00     0.210 C 
ENDBRANCH  23  27
BRANCH  24  29
HETATM   29  O   UNK N   1      27.478  17.761   5.719  0.00  0.00    -0.351 OA
HETATM   30  C   UNK N   1      27.008  19.006   5.368  0.00  0.00     0.210 C 
ENDBRANCH  24  29
BRANCH  25  31
HETATM   31  O   UNK N   1      29.001  16.671   3.790  0.00  0.00    -0.353 OA
HETATM   32  C   UNK N   1      29.709  16.218   2.699  0.00  0.00     0.210 C 
ENDBRANCH  25  31
ENDBRANCH  19  21
ENDBRANCH  18  19
ENDBRANCH   8  18
BRANCH   5  33
HETATM   33  N   UNK N   1      37.878  13.859   9.306  0.00  0.00    -0.384 N 
HETATM   34  H   UNK N   1      37.989  13.085   8.706  0.00  0.00     0.157 HD
HETATM   35  H   UNK N   1      38.555  14.567   9.208  0.00  0.00     0.157 HD
ENDBRANCH   5  33
TORSDOF 7
ENDMDL
MODEL 3
REMARK VINA RESULT:      -6.7      5.402      9.138
REMARK  7 active torsions:
REMARK  status: ('A' for Active; 'I' for Inactive)
REMARK       I    between atoms: N_1  and  C_2 
REMARK    1  A    between atoms: C_5  and  N_6 
REMARK    2  A    between atoms: C_9  and  C_16 
REMARK    3  A    between atoms: C_16  and  N_17 
REMARK    4  A    between atoms: N_17  and  C_18 
REMARK    5  A    between atoms: C_20  and  O_21 
REMARK    6  A    between atoms: C_23  and  O_24 
REMARK    7  A    between atoms: C_26  and  O_27 
ROOT
HETATM    1  N   UNK N   1      36.396   8.601  21.404  0.00  0.00    -0.234 N 
HETATM    2  C   UNK N   1      36.137   9.614  20.461  0.00  0.00     0.679 A 
HETATM    3  N   UNK N   1      35.656  10.813  20.872  0.00  0.00    -0.176 N 
ATOM      4  HN  UNK N   1      35.497  10.970  21.867  1.00  0.00     0.186 HD
HETATM    5  C   UNK N   1      35.381  11.809  19.991  0.00  0.00     0.129 A 
HETATM    6  C   UNK N   1      35.589  11.595  18.604  0.00  0.00     0.059 A 
HETATM    7  C   UNK N   1      35.299  12.550  17.593  0.00  0.00    -0.035 A 
HETATM    8  C   UNK N   1      35.478  12.194  16.238  0.00  0.00    -0.018 A 
HETATM    9  C   UNK N   1      35.991  10.939  15.918  0.00  0.00     0.099 A 
HETATM   10  N   UNK N   1      36.295  10.050  16.897  0.00  0.00    -0.350 N 
ATOM     11  HN  UNK N   1      36.688   9.145  16.640  1.00  0.00     0.166 HD
HETATM   12  C   UNK N   1      36.091  10.333  18.210  0.00  0.00     0.135 A 
HETATM   13  N   UNK N   1      36.355   9.383  19.143  0.00  0.00    -0.176 N 
ATOM     14  HN  UNK N   1      36.724   8.479  18.847  1.00  0.00     0.186 HD
HETATM   15  C   UNK N   1      34.762  13.913  17.922  0.00  0.00     0.050 C 
HETATM   16  H   UNK N   1      35.811   8.482  22.187  0.00  0.00     0.174 HD
HETATM   17  H   UNK N   1      37.169   8.006  21.279  0.00  0.00     0.174 HD
ENDROOT
BRANCH   8  18
HETATM   18  C   UNK N   1      35.043  13.104  15.118  0.00  0.00     0.163 C 
BRANCH  18  19
HETATM   19  N   UNK N   1      36.173  13.836  14.550  0.00  0.00    -0.381 N 
HETATM   20  C   UNK N   1      37.127  14.509  15.413  0.00  0.00     0.150 C 
BRANCH  19  21
HETATM   21  C   UNK N   1      36.388  13.852  13.142  0.00  0.00     0.035 A 
HETATM   22  C   UNK N   1      36.153  15.024  12.415  0.00  0.00     0.069 A 
HETATM   23  C   UNK N   1      36.364  15.090  11.040  0.00  0.00     0.106 A 
HETATM   24  C   UNK N   1      36.763  13.908  10.343  0.00  0.00     0.135 A 
HETATM   25  C   UNK N   1      37.007  12.728  11.073  0.00  0.00     0.106 A 
HETATM   26  C   UNK N   1      36.838  12.715  12.468  0.00  0.00     0.069 A 
BRANCH  23  27
HETATM   27  O   UNK N   1      36.200  16.304  10.454  0.00  0.00    -0.353 OA
HETATM   28  C   UNK N   1      34.987  16.824  10.065  0.00  0.00     0.210 C 
ENDBRANCH  23  27
BRANCH  24  29
HETATM   29  O   UNK N   1      36.895  13.846   8.995  0.00  0.00    -0.351 OA
HETATM   30  C   UNK N   1      35.825  13.730   8.137  0.00  0.00     0.210 C 
ENDBRANCH  24  29
BRANCH  25  31
HETATM   31  O   UNK N   1      37.374  11.607  10.404  0.00  0.00    -0.353 OA
HETATM   32  C   UNK N   1      37.961  10.519  11.011  0.00  0.00     0.210 C 
ENDBRANCH  25  31
ENDBRANCH  19  21
ENDBRANCH  18  19
ENDBRANCH   8  18
BRANCH   5  33
HETATM   33  N   UNK N   1      34.865  13.024  20.489  0.00  0.00    -0.384 N 
HETATM   34  H   UNK N   1      33.928  13.297  20.624  0.00  0.00     0.157 HD
HETATM   35  H   UNK N   1      35.539  13.698  20.738  0.00  0.00     0.157 HD
ENDBRANCH   5  33
TORSDOF 7
ENDMDL
MODEL 4
REMARK VINA RESULT:      -6.6      1.809      2.726
REMARK  7 active torsions:
REMARK  status: ('A' for Active; 'I' for Inactive)
REMARK       I    between atoms: N_1  and  C_2 
REMARK    1  A    between atoms: C_5  and  N_6 
REMARK    2  A    between atoms: C_9  and  C_16 
REMARK    3  A    between atoms: C_16  and  N_17 
REMARK    4  A    between atoms: N_17  and  C_18 
REMARK    5  A    between atoms: C_20  and  O_21 
REMARK    6  A    between atoms: C_23  and  O_24 
REMARK    7  A    between atoms: C_26  and  O_27 
ROOT
HETATM    1  N   UNK N   1      36.451  15.475  12.463  0.00  0.00    -0.234 N 
HETATM    2  C   UNK N   1      35.876  15.503  11.178  0.00  0.00     0.679 A 
HETATM    3  N   UNK N   1      36.228  14.570  10.259  0.00  0.00    -0.176 N 
ATOM      4  HN  UNK N   1      36.902  13.849  10.517  1.00  0.00     0.186 HD
HETATM    5  C   UNK N   1      35.707  14.573   9.006  0.00  0.00     0.129 A 
HETATM    6  C   UNK N   1      34.777  15.580   8.637  0.00  0.00     0.059 A 
HETATM    7  C   UNK N   1      34.199  15.702   7.345  0.00  0.00    -0.035 A 
HETATM    8  C   UNK N   1      33.342  16.792   7.075  0.00  0.00    -0.018 A 
HETATM    9  C   UNK N   1      33.031  17.692   8.092  0.00  0.00     0.099 A 
HETATM   10  N   UNK N   1      33.564  17.541   9.330  0.00  0.00    -0.350 N 
ATOM     11  HN  UNK N   1      33.306  18.201  10.064  1.00  0.00     0.166 HD
HETATM   12  C   UNK N   1      34.432  16.537   9.620  0.00  0.00     0.135 A 
HETATM   13  N   UNK N   1      34.983  16.471  10.858  0.00  0.00    -0.176 N 
ATOM     14  HN  UNK N   1      34.721  17.163  11.561  1.00  0.00     0.186 HD
HETATM   15  C   UNK N   1      34.511  14.732   6.243  0.00  0.00     0.050 C 
HETATM   16  H   UNK N   1      37.393  15.216  12.587  0.00  0.00     0.174 HD
HETATM   17  H   UNK N   1      35.906  15.717  13.246  0.00  0.00     0.174 HD
ENDROOT
BRANCH   8  18
HETATM   18  C   UNK N   1      32.823  17.063   5.686  0.00  0.00     0.163 C 
BRANCH  18  19
HETATM   19  N   UNK N   1      31.480  16.520   5.498  0.00  0.00    -0.381 N 
HETATM   20  C   UNK N   1      31.291  15.158   5.031  0.00  0.00     0.150 C 
BRANCH  19  21
HETATM   21  C   UNK N   1      30.333  17.299   5.828  0.00  0.00     0.035 A 
HETATM   22  C   UNK N   1      29.566  17.874   4.809  0.00  0.00     0.069 A 
HETATM   23  C   UNK N   1      28.429  18.631   5.083  0.00  0.00     0.106 A 
HETATM   24  C   UNK N   1      28.080  18.885   6.445  0.00  0.00     0.135 A 
HETATM   25  C   UNK N   1      28.846  18.302   7.473  0.00  0.00     0.106 A 
HETATM   26  C   UNK N   1      29.954  17.497   7.157  0.00  0.00     0.069 A 
BRANCH  23  27
HETATM   27  O   UNK N   1      27.706  19.056   4.016  0.00  0.00    -0.353 OA
HETATM   28  C   UNK N   1      26.493  18.530   3.637  0.00  0.00     0.210 C 
ENDBRANCH  23  27
BRANCH  24  29
HETATM   29  O   UNK N   1      27.053  19.692   6.813  0.00  0.00    -0.351 OA
HETATM   30  C   UNK N   1      27.042  21.049   6.583  0.00  0.00     0.210 C 
ENDBRANCH  24  29
BRANCH  25  31
HETATM   31  O   UNK N   1      28.515  18.558   8.763  0.00  0.00    -0.353 OA
HETATM   32  C   UNK N   1      29.423  18.532   9.799  0.00  0.00     0.210 C 
ENDBRANCH  25  31
ENDBRANCH  19  21
ENDBRANCH  18  19
ENDBRANCH   8  18
BRANCH   5  33
HETATM   33  N   UNK N   1      36.134  13.583   8.097  0.00  0.00    -0.384 N 
HETATM   34  H   UNK N   1      36.099  12.603   8.179  0.00  0.00     0.157 HD
HETATM   35  H   UNK N   1      36.523  13.922   7.258  0.00  0.00     0.157 HD
ENDBRANCH   5  33
TORSDOF 7
ENDMDL
MODEL 5
REMARK VINA RESULT:      -6.6      6.370     11.689
REMARK  7 active torsions:
REMARK  status: ('A' for Active; 'I' for Inactive)
REMARK       I    between atoms: N_1  and  C_2 
REMARK    1  A    between atoms: C_5  and  N_6 
REMARK    2  A    between atoms: C_9  and  C_16 
REMARK    3  A    between atoms: C_16  and  N_17 
REMARK    4  A    between atoms: N_17  and  C_18 
REMARK    5  A    between atoms: C_20  and  O_21 
REMARK    6  A    between atoms: C_23  and  O_24 
REMARK    7  A    between atoms: C_26  and  O_27 
ROOT
HETATM    1  N   UNK N   1      19.153  16.672   3.907  0.00  0.00    -0.234 N 
HETATM    2  C   UNK N   1      20.365  17.385   3.841  0.00  0.00     0.679 A 
HETATM    3  N   UNK N   1      20.388  18.631   3.306  0.00  0.00    -0.176 N 
ATOM      4  HN  UNK N   1      19.519  19.042   2.967  1.00  0.00     0.186 HD
HETATM    5  C   UNK N   1      21.540  19.344   3.212  0.00  0.00     0.129 A 
HETATM    6  C   UNK N   1      22.755  18.774   3.673  0.00  0.00     0.059 A 
HETATM    7  C   UNK N   1      24.022  19.413   3.588  0.00  0.00    -0.035 A 
HETATM    8  C   UNK N   1      25.174  18.714   4.012  0.00  0.00    -0.018 A 
HETATM    9  C   UNK N   1      25.044  17.440   4.560  0.00  0.00     0.099 A 
HETATM   10  N   UNK N   1      23.823  16.859   4.665  0.00  0.00    -0.350 N 
ATOM     11  HN  UNK N   1      23.750  15.933   5.088  1.00  0.00     0.166 HD
HETATM   12  C   UNK N   1      22.695  17.474   4.224  0.00  0.00     0.135 A 
HETATM   13  N   UNK N   1      21.509  16.819   4.298  0.00  0.00    -0.176 N 
ATOM     14  HN  UNK N   1      21.477  15.883   4.704  1.00  0.00     0.186 HD
HETATM   15  C   UNK N   1      24.177  20.792   3.016  0.00  0.00     0.050 C 
HETATM   16  H   UNK N   1      18.487  16.744   3.185  0.00  0.00     0.174 HD
HETATM   17  H   UNK N   1      18.969  16.096   4.683  0.00  0.00     0.174 HD
ENDROOT
BRANCH   8  18
HETATM   18  C   UNK N   1      26.558  19.275   3.805  0.00  0.00     0.163 C 
BRANCH  18  19
HETATM   19  N   UNK N   1      27.195  19.619   5.073  0.00  0.00    -0.381 N 
HETATM   20  C   UNK N   1      26.746  20.769   5.838  0.00  0.00     0.150 C 
BRANCH  19  21
HETATM   21  C   UNK N   1      28.228  18.797   5.609  0.00  0.00     0.035 A 
HETATM   22  C   UNK N   1      28.357  18.656   6.995  0.00  0.00     0.069 A 
HETATM   23  C   UNK N   1      29.342  17.851   7.563  0.00  0.00     0.106 A 
HETATM   24  C   UNK N   1      30.290  17.210   6.707  0.00  0.00     0.135 A 
HETATM   25  C   UNK N   1      30.158  17.344   5.311  0.00  0.00     0.106 A 
HETATM   26  C   UNK N   1      29.117  18.119   4.772  0.00  0.00     0.069 A 
BRANCH  23  27
HETATM   27  O   UNK N   1      29.312  17.709   8.912  0.00  0.00    -0.353 OA
HETATM   28  C   UNK N   1      28.250  17.195   9.618  0.00  0.00     0.210 C 
ENDBRANCH  23  27
BRANCH  24  29
HETATM   29  O   UNK N   1      31.344  16.491   7.168  0.00  0.00    -0.351 OA
HETATM   30  C   UNK N   1      32.485  17.068   7.676  0.00  0.00     0.210 C 
ENDBRANCH  24  29
BRANCH  25  31
HETATM   31  O   UNK N   1      31.069  16.743   4.505  0.00  0.00    -0.353 OA
HETATM   32  C   UNK N   1      30.784  15.642   3.728  0.00  0.00     0.210 C 
ENDBRANCH  25  31
ENDBRANCH  19  21
ENDBRANCH  18  19
ENDBRANCH   8  18
BRANCH   5  33
HETATM   33  N   UNK N   1      21.491  20.627   2.627  0.00  0.00    -0.384 N 
HETATM   34  H   UNK N   1      21.016  20.928   1.819  0.00  0.00     0.157 HD
HETATM   35  H   UNK N   1      22.007  21.323   3.096  0.00  0.00     0.157 HD
ENDBRANCH   5  33
TORSDOF 7
ENDMDL
MODEL 6
REMARK VINA RESULT:      -6.4     10.487     13.975
REMARK  7 active torsions:
REMARK  status: ('A' for Active; 'I' for Inactive)
REMARK       I    between atoms: N_1  and  C_2 
REMARK    1  A    between atoms: C_5  and  N_6 
REMARK    2  A    between atoms: C_9  and  C_16 
REMARK    3  A    between atoms: C_16  and  N_17 
REMARK    4  A    between atoms: N_17  and  C_18 
REMARK    5  A    between atoms: C_20  and  O_21 
REMARK    6  A    between atoms: C_23  and  O_24 
REMARK    7  A    between atoms: C_26  and  O_27 
ROOT
HETATM    1  N   UNK N   1      20.253  21.604   0.929  0.00  0.00    -0.234 N 
HETATM    2  C   UNK N   1      20.618  20.562   1.803  0.00  0.00     0.679 A 
HETATM    3  N   UNK N   1      21.863  20.536   2.339  0.00  0.00    -0.176 N 
ATOM      4  HN  UNK N   1      22.519  21.282   2.109  1.00  0.00     0.186 HD
HETATM    5  C   UNK N   1      22.258  19.541   3.174  0.00  0.00     0.129 A 
HETATM    6  C   UNK N   1      21.354  18.493   3.490  0.00  0.00     0.059 A 
HETATM    7  C   UNK N   1      21.672  17.384   4.320  0.00  0.00    -0.035 A 
HETATM    8  C   UNK N   1      20.712  16.364   4.501  0.00  0.00    -0.018 A 
HETATM    9  C   UNK N   1      19.454  16.490   3.917  0.00  0.00     0.099 A 
HETATM   10  N   UNK N   1      19.155  17.572   3.156  0.00  0.00    -0.350 N 
ATOM     11  HN  UNK N   1      18.221  17.653   2.755  1.00  0.00     0.166 HD
HETATM   12  C   UNK N   1      20.064  18.552   2.914  0.00  0.00     0.135 A 
HETATM   13  N   UNK N   1      19.730  19.580   2.094  0.00  0.00    -0.176 N 
ATOM     14  HN  UNK N   1      18.794  19.616   1.689  1.00  0.00     0.186 HD
HETATM   15  C   UNK N   1      23.018  17.241   4.970  0.00  0.00     0.050 C 
HETATM   16  H   UNK N   1      20.904  21.978   0.292  0.00  0.00     0.174 HD
HETATM   17  H   UNK N   1      19.336  21.961   0.954  0.00  0.00     0.174 HD
ENDROOT
BRANCH   8  18
HETATM   18  C   UNK N   1      21.043  15.092   5.239  0.00  0.00     0.163 C 
BRANCH  18  19
HETATM   19  N   UNK N   1      21.009  15.285   6.687  0.00  0.00    -0.381 N 
HETATM   20  C   UNK N   1      20.105  16.253   7.283  0.00  0.00     0.150 C 
BRANCH  19  21
HETATM   21  C   UNK N   1      21.820  14.484   7.542  0.00  0.00     0.035 A 
HETATM   22  C   UNK N   1      23.100  14.101   7.128  0.00  0.00     0.069 A 
HETATM   23  C   UNK N   1      23.933  13.332   7.937  0.00  0.00     0.106 A 
HETATM   24  C   UNK N   1      23.438  12.862   9.192  0.00  0.00     0.135 A 
HETATM   25  C   UNK N   1      22.152  13.251   9.615  0.00  0.00     0.106 A 
HETATM   26  C   UNK N   1      21.361  14.076   8.796  0.00  0.00     0.069 A 
BRANCH  23  27
HETATM   27  O   UNK N   1      25.190  13.103   7.476  0.00  0.00    -0.353 OA
HETATM   28  C   UNK N   1      25.484  12.585   6.236  0.00  0.00     0.210 C 
ENDBRANCH  23  27
BRANCH  24  29
HETATM   29  O   UNK N   1      24.135  12.025  10.002  0.00  0.00    -0.351 OA
HETATM   30  C   UNK N   1      25.042  12.464  10.939  0.00  0.00     0.210 C 
ENDBRANCH  24  29
BRANCH  25  31
HETATM   31  O   UNK N   1      21.685  12.791  10.801  0.00  0.00    -0.353 OA
HETATM   32  C   UNK N   1      20.356  12.513  11.037  0.00  0.00     0.210 C 
ENDBRANCH  25  31
ENDBRANCH  19  21
ENDBRANCH  18  19
ENDBRANCH   8  18
BRANCH   5  33
HETATM   33  N   UNK N   1      23.574  19.568   3.679  0.00  0.00    -0.384 N 
HETATM   34  H   UNK N   1      24.429  19.455   3.203  0.00  0.00     0.157 HD
HETATM   35  H   UNK N   1      23.650  19.724   4.649  0.00  0.00     0.157 HD
ENDBRANCH   5  33
TORSDOF 7
ENDMDL
MODEL 7
REMARK VINA RESULT:      -6.4      9.734     13.805
REMARK  7 active torsions:
REMARK  status: ('A' for Active; 'I' for Inactive)
REMARK       I    between atoms: N_1  and  C_2 
REMARK    1  A    between atoms: C_5  and  N_6 
REMARK    2  A    between atoms: C_9  and  C_16 
REMARK    3  A    between atoms: C_16  and  N_17 
REMARK    4  A    between atoms: N_17  and  C_18 
REMARK    5  A    between atoms: C_20  and  O_21 
REMARK    6  A    between atoms: C_23  and  O_24 
REMARK    7  A    between atoms: C_26  and  O_27 
ROOT
HETATM    1  N   UNK N   1      20.334  21.221   0.454  0.00  0.00    -0.234 N 
HETATM    2  C   UNK N   1      20.689  20.352   1.503  0.00  0.00     0.679 A 
HETATM    3  N   UNK N   1      21.898  20.474   2.102  0.00  0.00    -0.176 N 
ATOM      4  HN  UNK N   1      22.535  21.207   1.790  1.00  0.00     0.186 HD
HETATM    5  C   UNK N   1      22.282  19.646   3.107  0.00  0.00     0.129 A 
HETATM    6  C   UNK N   1      21.406  18.617   3.539  0.00  0.00     0.059 A 
HETATM    7  C   UNK N   1      21.718  17.672   4.553  0.00  0.00    -0.035 A 
HETATM    8  C   UNK N   1      20.793  16.645   4.845  0.00  0.00    -0.018 A 
HETATM    9  C   UNK N   1      19.569  16.612   4.181  0.00  0.00     0.099 A 
HETATM   10  N   UNK N   1      19.271  17.544   3.241  0.00  0.00    -0.350 N 
ATOM     11  HN  UNK N   1      18.361  17.511   2.782  1.00  0.00     0.166 HD
HETATM   12  C   UNK N   1      20.152  18.517   2.893  0.00  0.00     0.135 A 
HETATM   13  N   UNK N   1      19.826  19.384   1.901  0.00  0.00    -0.176 N 
ATOM     14  HN  UNK N   1      18.916  19.307   1.446  1.00  0.00     0.186 HD
HETATM   15  C   UNK N   1      23.026  17.703   5.289  0.00  0.00     0.050 C 
HETATM   16  H   UNK N   1      21.006  21.523  -0.199  0.00  0.00     0.174 HD
HETATM   17  H   UNK N   1      19.403  21.530   0.372  0.00  0.00     0.174 HD
ENDROOT
BRANCH   8  18
HETATM   18  C   UNK N   1      21.130  15.525   5.795  0.00  0.00     0.163 C 
BRANCH  18  19
HETATM   19  N   UNK N   1      21.438  14.288   5.082  0.00  0.00    -0.381 N 
HETATM   20  C   UNK N   1      20.497  13.183   5.079  0.00  0.00     0.150 C 
BRANCH  19  21
HETATM   21  C   UNK N   1      22.642  14.169   4.328  0.00  0.00     0.035 A 
HETATM   22  C   UNK N   1      23.864  14.008   4.990  0.00  0.00     0.069 A 
HETATM   23  C   UNK N   1      25.063  13.873   4.294  0.00  0.00     0.106 A 
HETATM   24  C   UNK N   1      25.051  13.973   2.869  0.00  0.00     0.135 A 
HETATM   25  C   UNK N   1      23.822  14.129   2.199  0.00  0.00     0.106 A 
HETATM   26  C   UNK N   1      22.625  14.204   2.932  0.00  0.00     0.069 A 
BRANCH  23  27
HETATM   27  O   UNK N   1      26.173  13.622   5.034  0.00  0.00    -0.353 OA
HETATM   28  C   UNK N   1      26.913  14.585   5.681  0.00  0.00     0.210 C 
ENDBRANCH  23  27
BRANCH  24  29
HETATM   29  O   UNK N   1      26.176  13.957   2.112  0.00  0.00    -0.351 OA
HETATM   30  C   UNK N   1      26.997  15.050   1.957  0.00  0.00     0.210 C 
ENDBRANCH  24  29
BRANCH  25  31
HETATM   31  O   UNK N   1      23.820  14.236   0.848  0.00  0.00    -0.353 OA
HETATM   32  C   UNK N   1      23.596  13.172   0.003  0.00  0.00     0.210 C 
ENDBRANCH  25  31
ENDBRANCH  19  21
ENDBRANCH  18  19
ENDBRANCH   8  18
BRANCH   5  33
HETATM   33  N   UNK N   1      23.563  19.820   3.671  0.00  0.00    -0.384 N 
HETATM   34  H   UNK N   1      24.447  19.606   3.293  0.00  0.00     0.157 HD
HETATM   35  H   UNK N   1      23.576  20.215   4.573  0.00  0.00     0.157 HD
ENDBRANCH   5  33
TORSDOF 7
ENDMDL
MODEL 8
REMARK VINA RESULT:      -6.4      9.629     13.628
REMARK  7 active torsions:
REMARK  status: ('A' for Active; 'I' for Inactive)
REMARK       I    between atoms: N_1  and  C_2 
REMARK    1  A    between atoms: C_5  and  N_6 
REMARK    2  A    between atoms: C_9  and  C_16 
REMARK    3  A    between atoms: C_16  and  N_17 
REMARK    4  A    between atoms: N_17  and  C_18 
REMARK    5  A    between atoms: C_20  and  O_21 
REMARK    6  A    between atoms: C_23  and  O_24 
REMARK    7  A    between atoms: C_26  and  O_27 
ROOT
HETATM    1  N   UNK N   1      20.312  21.287   0.437  0.00  0.00    -0.234 N 
HETATM    2  C   UNK N   1      20.678  20.424   1.488  0.00  0.00     0.679 A 
HETATM    3  N   UNK N   1      21.890  20.557   2.081  0.00  0.00    -0.176 N 
ATOM      4  HN  UNK N   1      22.520  21.293   1.763  1.00  0.00     0.186 HD
HETATM    5  C   UNK N   1      22.284  19.736   3.088  0.00  0.00     0.129 A 
HETATM    6  C   UNK N   1      21.417  18.703   3.528  0.00  0.00     0.059 A 
HETATM    7  C   UNK N   1      21.741  17.763   4.544  0.00  0.00    -0.035 A 
HETATM    8  C   UNK N   1      20.824  16.732   4.845  0.00  0.00    -0.018 A 
HETATM    9  C   UNK N   1      19.597  16.688   4.187  0.00  0.00     0.099 A 
HETATM   10  N   UNK N   1      19.289  17.613   3.244  0.00  0.00    -0.350 N 
ATOM     11  HN  UNK N   1      18.376  17.573   2.790  1.00  0.00     0.166 HD
HETATM   12  C   UNK N   1      20.160  18.592   2.888  0.00  0.00     0.135 A 
HETATM   13  N   UNK N   1      19.824  19.452   1.894  0.00  0.00    -0.176 N 
ATOM     14  HN  UNK N   1      18.912  19.367   1.444  1.00  0.00     0.186 HD
HETATM   15  C   UNK N   1      23.052  17.807   5.274  0.00  0.00     0.050 C 
HETATM   16  H   UNK N   1      20.980  21.590  -0.220  0.00  0.00     0.174 HD
HETATM   17  H   UNK N   1      19.379  21.589   0.359  0.00  0.00     0.174 HD
ENDROOT
BRANCH   8  18
HETATM   18  C   UNK N   1      21.174  15.618   5.798  0.00  0.00     0.163 C 
BRANCH  18  19
HETATM   19  N   UNK N   1      21.537  14.395   5.087  0.00  0.00    -0.381 N 
HETATM   20  C   UNK N   1      20.617  13.274   5.025  0.00  0.00     0.150 C 
BRANCH  19  21
HETATM   21  C   UNK N   1      22.779  14.306   4.393  0.00  0.00     0.035 A 
HETATM   22  C   UNK N   1      22.796  14.316   2.994  0.00  0.00     0.069 A 
HETATM   23  C   UNK N   1      23.986  14.245   2.273  0.00  0.00     0.106 A 
HETATM   24  C   UNK N   1      25.216  14.087   2.983  0.00  0.00     0.135 A 
HETATM   25  C   UNK N   1      25.203  14.083   4.392  0.00  0.00     0.106 A 
HETATM   26  C   UNK N   1      23.987  14.213   5.086  0.00  0.00     0.069 A 
BRANCH  23  27
HETATM   27  O   UNK N   1      23.891  14.364   0.924  0.00  0.00    -0.353 OA
HETATM   28  C   UNK N   1      23.684  13.312   0.062  0.00  0.00     0.210 C 
ENDBRANCH  23  27
BRANCH  24  29
HETATM   29  O   UNK N   1      26.412  13.907   2.370  0.00  0.00    -0.351 OA
HETATM   30  C   UNK N   1      27.202  14.949   1.937  0.00  0.00     0.210 C 
ENDBRANCH  24  29
BRANCH  25  31
HETATM   31  O   UNK N   1      26.372  13.919   5.058  0.00  0.00    -0.353 OA
HETATM   32  C   UNK N   1      27.026  14.943   5.707  0.00  0.00     0.210 C 
ENDBRANCH  25  31
ENDBRANCH  19  21
ENDBRANCH  18  19
ENDBRANCH   8  18
BRANCH   5  33
HETATM   33  N   UNK N   1      23.567  19.921   3.645  0.00  0.00    -0.384 N 
HETATM   34  H   UNK N   1      24.426  20.087   3.194  0.00  0.00     0.157 HD
HETATM   35  H   UNK N   1      23.609  19.880   4.628  0.00  0.00     0.157 HD
ENDBRANCH   5  33
TORSDOF 7
ENDMDL
MODEL 9
REMARK VINA RESULT:      -6.4      2.106      3.852
REMARK  7 active torsions:
REMARK  status: ('A' for Active; 'I' for Inactive)
REMARK       I    between atoms: N_1  and  C_2 
REMARK    1  A    between atoms: C_5  and  N_6 
REMARK    2  A    between atoms: C_9  and  C_16 
REMARK    3  A    between atoms: C_16  and  N_17 
REMARK    4  A    between atoms: N_17  and  C_18 
REMARK    5  A    between atoms: C_20  and  O_21 
REMARK    6  A    between atoms: C_23  and  O_24 
REMARK    7  A    between atoms: C_26  and  O_27 
ROOT
HETATM    1  N   UNK N   1      35.130  12.657  12.038  0.00  0.00    -0.234 N 
HETATM    2  C   UNK N   1      34.710  13.646  11.128  0.00  0.00     0.679 A 
HETATM    3  N   UNK N   1      35.193  14.909  11.232  0.00  0.00    -0.176 N 
ATOM      4  HN  UNK N   1      35.866  15.125  11.966  1.00  0.00     0.186 HD
HETATM    5  C   UNK N   1      34.800  15.893  10.382  0.00  0.00     0.129 A 
HETATM    6  C   UNK N   1      33.855  15.603   9.364  0.00  0.00     0.059 A 
HETATM    7  C   UNK N   1      33.346  16.561   8.447  0.00  0.00    -0.035 A 
HETATM    8  C   UNK N   1      32.351  16.169   7.525  0.00  0.00    -0.018 A 
HETATM    9  C   UNK N   1      31.929  14.843   7.489  0.00  0.00     0.099 A 
HETATM   10  N   UNK N   1      32.451  13.932   8.349  0.00  0.00    -0.350 N 
ATOM     11  HN  UNK N   1      32.141  12.962   8.290  1.00  0.00     0.166 HD
HETATM   12  C   UNK N   1      33.373  14.276   9.284  0.00  0.00     0.135 A 
HETATM   13  N   UNK N   1      33.813  13.337  10.160  0.00  0.00    -0.176 N 
ATOM     14  HN  UNK N   1      33.463  12.381  10.088  1.00  0.00     0.186 HD
HETATM   15  C   UNK N   1      33.802  17.992   8.462  0.00  0.00     0.050 C 
HETATM   16  H   UNK N   1      35.295  12.881  12.983  0.00  0.00     0.174 HD
HETATM   17  H   UNK N   1      35.260  11.733  11.727  0.00  0.00     0.174 HD
ENDROOT
BRANCH   8  18
HETATM   18  C   UNK N   1      31.662  17.172   6.634  0.00  0.00     0.163 C 
BRANCH  18  19
HETATM   19  N   UNK N   1      30.339  17.525   7.144  0.00  0.00    -0.381 N 
HETATM   20  C   UNK N   1      30.117  17.698   8.568  0.00  0.00     0.150 C 
BRANCH  19  21
HETATM   21  C   UNK N   1      29.259  17.764   6.245  0.00  0.00     0.035 A 
HETATM   22  C   UNK N   1      28.294  18.726   6.558  0.00  0.00     0.069 A 
HETATM   23  C   UNK N   1      27.229  19.004   5.703  0.00  0.00     0.106 A 
HETATM   24  C   UNK N   1      27.082  18.233   4.509  0.00  0.00     0.135 A 
HETATM   25  C   UNK N   1      28.056  17.268   4.188  0.00  0.00     0.106 A 
HETATM   26  C   UNK N   1      29.148  17.055   5.047  0.00  0.00     0.069 A 
BRANCH  23  27
HETATM   27  O   UNK N   1      26.410  20.026   6.060  0.00  0.00    -0.353 OA
HETATM   28  C   UNK N   1      26.766  21.354   6.040  0.00  0.00     0.210 C 
ENDBRANCH  23  27
BRANCH  24  29
HETATM   29  O   UNK N   1      26.026  18.359   3.667  0.00  0.00    -0.351 OA
HETATM   30  C   UNK N   1      24.779  17.846   3.941  0.00  0.00     0.210 C 
ENDBRANCH  24  29
BRANCH  25  31
HETATM   31  O   UNK N   1      27.903  16.532   3.060  0.00  0.00    -0.353 OA
HETATM   32  C   UNK N   1      27.955  15.156   3.039  0.00  0.00     0.210 C 
ENDBRANCH  25  31
ENDBRANCH  19  21
ENDBRANCH  18  19
ENDBRANCH   8  18
BRANCH   5  33
HETATM   33  N   UNK N   1      35.330  17.188  10.562  0.00  0.00    -0.384 N 
HETATM   34  H   UNK N   1      35.484  17.898   9.897  0.00  0.00     0.157 HD
HETATM   35  H   UNK N   1      35.582  17.415  11.486  0.00  0.00     0.157 HD
ENDBRANCH   5  33
TORSDOF 7
ENDMDL
