REMARK  7 active torsions:
REMARK  status: ('A' for Active; 'I' for Inactive)
REMARK       I    between atoms: N_1  and  C_2 
REMARK    1  A    between atoms: C_5  and  N_6 
REMARK    2  A    between atoms: C_9  and  C_16 
REMARK    3  A    between atoms: C_16  and  N_17 
REMARK    4  A    between atoms: N_17  and  C_18 
REMARK    5  A    between atoms: C_20  and  O_21 
REMARK    6  A    between atoms: C_23  and  O_24 
REMARK    7  A    between atoms: C_26  and  O_27 
ROOT
HETATM    1  N   UNK N   1      -7.048  -3.668  -0.131  0.00  0.00    -0.234 N 
HETATM    2  C   UNK N   1      -5.755  -3.152   0.081  0.00  0.00     0.679 A 
HETATM    3  N   UNK N   1      -5.592  -2.008   0.790  0.00  0.00    -0.176 N 
ATOM      4  HN  UNK N   1      -6.413  -1.539   1.172  1.00  0.00     0.186 HD
HETATM    5  C   UNK N   1      -4.363  -1.472   1.003  0.00  0.00     0.129 A 
HETATM    6  C   UNK N   1      -3.217  -2.113   0.465  0.00  0.00     0.059 A 
HETATM    7  C   UNK N   1      -1.890  -1.621   0.593  0.00  0.00    -0.035 A 
HETATM    8  C   UNK N   1      -0.837  -2.308  -0.051  0.00  0.00    -0.018 A 
HETATM    9  C   UNK N   1      -1.106  -3.484  -0.747  0.00  0.00     0.099 A 
HETATM   10  N   UNK N   1      -2.374  -3.959  -0.830  0.00  0.00    -0.350 N 
ATOM     11  HN  UNK N   1      -2.544  -4.833  -1.328  1.00  0.00     0.166 HD
HETATM   12  C   UNK N   1      -3.423  -3.304  -0.269  0.00  0.00     0.135 A 
HETATM   13  N   UNK N   1      -4.678  -3.792  -0.437  0.00  0.00    -0.176 N 
ATOM     14  HN  UNK N   1      -4.814  -4.656  -0.963  1.00  0.00     0.186 HD
HETATM   15  C   UNK N   1      -1.581  -0.364   1.353  0.00  0.00     0.050 C 
HETATM   16  H   UNK N   1      -7.812  -3.065  -0.280  0.00  0.00     0.174 HD
HETATM   17  H   UNK N   1      -7.189  -4.642  -0.131  0.00  0.00     0.174 HD
ENDROOT
BRANCH   8  18
HETATM   18  C   UNK N   1       0.564  -1.753  -0.083  0.00  0.00     0.163 C 
BRANCH  18  19
HETATM   19  N   UNK N   1       0.608  -0.439  -0.720  0.00  0.00    -0.381 N 
HETATM   20  C   UNK N   1      -0.459  -0.011  -1.607  0.00  0.00     0.150 C 
BRANCH  19  21
HETATM   21  C   UNK N   1       1.670   0.467  -0.434  0.00  0.00     0.035 A 
HETATM   22  C   UNK N   1       1.512   1.831  -0.701  0.00  0.00     0.069 A 
HETATM   23  C   UNK N   1       2.517   2.755  -0.424  0.00  0.00     0.106 A 
HETATM   24  C   UNK N   1       3.769   2.285   0.080  0.00  0.00     0.135 A 
HETATM   25  C   UNK N   1       3.929   0.913   0.356  0.00  0.00     0.106 A 
HETATM   26  C   UNK N   1       2.872   0.018   0.117  0.00  0.00     0.069 A 
BRANCH  23  27
HETATM   27  O   UNK N   1       2.218   4.063  -0.630  0.00  0.00    -0.353 OA
HETATM   28  C   UNK N   1       2.701   5.102   0.131  0.00  0.00     0.210 C 
ENDBRANCH  23  27
BRANCH  24  29
HETATM   29  O   UNK N   1       4.840   3.092   0.284  0.00  0.00    -0.351 OA
HETATM   30  C   UNK N   1       5.226   4.071  -0.603  0.00  0.00     0.210 C 
ENDBRANCH  24  29
BRANCH  25  31
HETATM   31  O   UNK N   1       5.124   0.473   0.822  0.00  0.00    -0.353 OA
HETATM   32  C   UNK N   1       5.413  -0.857   1.032  0.00  0.00     0.210 C 
ENDBRANCH  25  31
ENDBRANCH  19  21
ENDBRANCH  18  19
ENDBRANCH   8  18
BRANCH   5  33
HETATM   33  N   UNK N   1      -4.271  -0.269   1.734  0.00  0.00    -0.384 N 
HETATM   34  H   UNK N   1      -3.512   0.096   2.244  0.00  0.00     0.157 HD
HETATM   35  H   UNK N   1      -5.084   0.287   1.734  0.00  0.00     0.157 HD
ENDBRANCH   5  33
TORSDOF 7
