MODEL 1
REMARK VINA RESULT:      -7.0      0.000      0.000
REMARK  6 active torsions:
REMARK  status: ('A' for Active; 'I' for Inactive)
REMARK       I    between atoms: C_1  and  N_20 
REMARK    1  A    between atoms: C_2  and  N_23 
REMARK    2  A    between atoms: C_5  and  N_27 
REMARK    3  A    between atoms: C_9  and  C_11 
REMARK    4  A    between atoms: C_9  and  N_27 
REMARK    5  A    between atoms: C_12  and  O_25 
REMARK    6  A    between atoms: C_15  and  O_26 
ROOT
HETATM    1  C   UNK N   1      35.091  15.498  11.129  0.00  0.00     0.677 A 
HETATM    2  C   UNK N   1      33.421  14.599   9.712  0.00  0.00     0.127 A 
HETATM    3  C   UNK N   1      33.528  15.715   8.874  0.00  0.00     0.037 A 
HETATM    4  C   UNK N   1      32.740  15.849   7.730  0.00  0.00     0.046 A 
HETATM    5  C   UNK N   1      32.815  17.008   6.937  0.00  0.00     0.031 A 
HETATM    6  C   UNK N   1      33.711  18.028   7.306  0.00  0.00     0.031 A 
HETATM    7  C   UNK N   1      34.438  16.729   9.220  0.00  0.00     0.063 A 
HETATM    8  N   UNK N   1      35.204  16.596  10.335  0.00  0.00    -0.191 N 
ATOM      9  HN  UNK N   1      35.871  17.329  10.579  1.00  0.00     0.184 HD
HETATM   10  N   UNK N   1      35.890  15.381  12.283  0.00  0.00    -0.234 N 
HETATM   11  N   UNK N   1      34.203  14.515  10.821  0.00  0.00    -0.176 N 
ATOM     12  HN  UNK N   1      34.122  13.703  11.432  1.00  0.00     0.186 HD
HETATM   13  C   UNK N   1      34.534  17.879   8.429  0.00  0.00     0.033 A 
HETATM   14  H   UNK N   1      35.636  14.761  13.004  0.00  0.00     0.174 HD
HETATM   15  H   UNK N   1      36.708  15.923  12.371  0.00  0.00     0.174 HD
ENDROOT
BRANCH   5  16
HETATM   16  N   UNK N   1      31.933  17.169   5.825  0.00  0.00    -0.381 N 
HETATM   17  C   UNK N   1      32.496  17.520   4.542  0.00  0.00     0.150 C 
BRANCH  16  18
HETATM   18  C   UNK N   1      30.607  16.572   5.894  0.00  0.00     0.164 C 
BRANCH  18  19
HETATM   19  C   UNK N   1      29.446  17.523   6.024  0.00  0.00    -0.004 A 
HETATM   20  C   UNK N   1      29.091  18.118   7.258  0.00  0.00     0.076 A 
HETATM   21  C   UNK N   1      28.042  19.054   7.294  0.00  0.00     0.040 A 
HETATM   22  C   UNK N   1      27.379  19.420   6.124  0.00  0.00     0.039 A 
HETATM   23  C   UNK N   1      27.748  18.854   4.894  0.00  0.00     0.069 A 
HETATM   24  C   UNK N   1      28.776  17.907   4.856  0.00  0.00     0.048 A 
BRANCH  20  25
HETATM   25  O   UNK N   1      29.776  17.808   8.387  0.00  0.00    -0.355 OA
HETATM   26  C   UNK N   1      29.994  18.699   9.414  0.00  0.00     0.210 C 
ENDBRANCH  20  25
BRANCH  23  27
HETATM   27  O   UNK N   1      27.144  19.219   3.739  0.00  0.00    -0.356 OA
HETATM   28  C   UNK N   1      26.579  20.460   3.543  0.00  0.00     0.210 C 
ENDBRANCH  23  27
ENDBRANCH  18  19
ENDBRANCH  16  18
ENDBRANCH   5  16
BRANCH   2  29
HETATM   29  N   UNK N   1      32.496  13.570   9.431  0.00  0.00    -0.384 N 
HETATM   30  H   UNK N   1      32.777  12.650   9.224  0.00  0.00     0.157 HD
HETATM   31  H   UNK N   1      31.534  13.781   9.444  0.00  0.00     0.157 HD
ENDBRANCH   2  29
TORSDOF 6
ENDMDL
MODEL 2
REMARK VINA RESULT:      -7.0      2.379      3.812
REMARK  6 active torsions:
REMARK  status: ('A' for Active; 'I' for Inactive)
REMARK       I    between atoms: C_1  and  N_20 
REMARK    1  A    between atoms: C_2  and  N_23 
REMARK    2  A    between atoms: C_5  and  N_27 
REMARK    3  A    between atoms: C_9  and  C_11 
REMARK    4  A    between atoms: C_9  and  N_27 
REMARK    5  A    between atoms: C_12  and  O_25 
REMARK    6  A    between atoms: C_15  and  O_26 
ROOT
HETATM    1  C   UNK N   1      34.015  17.585   8.648  0.00  0.00     0.677 A 
HETATM    2  C   UNK N   1      31.705  17.102   8.463  0.00  0.00     0.127 A 
HETATM    3  C   UNK N   1      31.808  17.128   7.068  0.00  0.00     0.037 A 
HETATM    4  C   UNK N   1      30.700  16.907   6.247  0.00  0.00     0.046 A 
HETATM    5  C   UNK N   1      30.811  17.004   4.849  0.00  0.00     0.031 A 
HETATM    6  C   UNK N   1      32.062  17.311   4.285  0.00  0.00     0.031 A 
HETATM    7  C   UNK N   1      33.060  17.411   6.493  0.00  0.00     0.063 A 
HETATM    8  N   UNK N   1      34.136  17.626   7.294  0.00  0.00    -0.191 N 
ATOM      9  HN  UNK N   1      35.046  17.822   6.874  1.00  0.00     0.184 HD
HETATM   10  N   UNK N   1      35.142  17.816   9.461  0.00  0.00    -0.234 N 
HETATM   11  N   UNK N   1      32.809  17.332   9.222  0.00  0.00    -0.176 N 
ATOM     12  HN  UNK N   1      32.731  17.315  10.239  1.00  0.00     0.186 HD
HETATM   13  C   UNK N   1      33.185  17.492   5.102  0.00  0.00     0.033 A 
HETATM   14  H   UNK N   1      35.031  18.069  10.406  0.00  0.00     0.174 HD
HETATM   15  H   UNK N   1      36.047  17.726   9.082  0.00  0.00     0.174 HD
ENDROOT
BRANCH   5  16
HETATM   16  N   UNK N   1      29.647  16.868   4.031  0.00  0.00    -0.381 N 
HETATM   17  C   UNK N   1      29.798  16.328   2.700  0.00  0.00     0.150 C 
BRANCH  16  18
HETATM   18  C   UNK N   1      28.341  16.855   4.675  0.00  0.00     0.164 C 
BRANCH  18  19
HETATM   19  C   UNK N   1      27.443  18.032   4.395  0.00  0.00    -0.004 A 
HETATM   20  C   UNK N   1      26.318  17.938   3.542  0.00  0.00     0.076 A 
HETATM   21  C   UNK N   1      25.480  19.055   3.383  0.00  0.00     0.040 A 
HETATM   22  C   UNK N   1      25.730  20.234   4.082  0.00  0.00     0.039 A 
HETATM   23  C   UNK N   1      26.826  20.321   4.953  0.00  0.00     0.069 A 
HETATM   24  C   UNK N   1      27.676  19.220   5.098  0.00  0.00     0.048 A 
BRANCH  20  25
HETATM   25  O   UNK N   1      26.039  16.772   2.907  0.00  0.00    -0.355 OA
HETATM   26  C   UNK N   1      24.997  15.944   3.258  0.00  0.00     0.210 C 
ENDBRANCH  20  25
BRANCH  23  27
HETATM   27  O   UNK N   1      27.071  21.443   5.671  0.00  0.00    -0.356 OA
HETATM   28  C   UNK N   1      26.455  21.717   6.873  0.00  0.00     0.210 C 
ENDBRANCH  23  27
ENDBRANCH  18  19
ENDBRANCH  16  18
ENDBRANCH   5  16
BRANCH   2  29
HETATM   29  N   UNK N   1      30.464  16.861   9.092  0.00  0.00    -0.384 N 
HETATM   30  H   UNK N   1      29.691  17.459   8.980  0.00  0.00     0.157 HD
HETATM   31  H   UNK N   1      30.369  16.064   9.664  0.00  0.00     0.157 HD
ENDBRANCH   2  29
TORSDOF 6
ENDMDL
MODEL 3
REMARK VINA RESULT:      -6.9      9.359     12.447
REMARK  6 active torsions:
REMARK  status: ('A' for Active; 'I' for Inactive)
REMARK       I    between atoms: C_1  and  N_20 
REMARK    1  A    between atoms: C_2  and  N_23 
REMARK    2  A    between atoms: C_5  and  N_27 
REMARK    3  A    between atoms: C_9  and  C_11 
REMARK    4  A    between atoms: C_9  and  N_27 
REMARK    5  A    between atoms: C_12  and  O_25 
REMARK    6  A    between atoms: C_15  and  O_26 
ROOT
HETATM    1  C   UNK N   1      20.675  19.752   1.299  0.00  0.00     0.677 A 
HETATM    2  C   UNK N   1      20.274  17.433   1.551  0.00  0.00     0.127 A 
HETATM    3  C   UNK N   1      20.988  17.437   2.755  0.00  0.00     0.037 A 
HETATM    4  C   UNK N   1      21.166  16.274   3.506  0.00  0.00     0.046 A 
HETATM    5  C   UNK N   1      21.942  16.287   4.678  0.00  0.00     0.031 A 
HETATM    6  C   UNK N   1      22.526  17.496   5.095  0.00  0.00     0.031 A 
HETATM    7  C   UNK N   1      21.556  18.647   3.194  0.00  0.00     0.063 A 
HETATM    8  N   UNK N   1      21.381  19.778   2.461  0.00  0.00    -0.191 N 
ATOM      9  HN  UNK N   1      21.786  20.657   2.786  1.00  0.00     0.184 HD
HETATM   10  N   UNK N   1      20.510  20.934   0.551  0.00  0.00    -0.234 N 
HETATM   11  N   UNK N   1      20.135  18.588   0.849  0.00  0.00    -0.176 N 
ATOM     12  HN  UNK N   1      19.617  18.582  -0.029  1.00  0.00     0.186 HD
HETATM   13  C   UNK N   1      22.315  18.675   4.368  0.00  0.00     0.033 A 
HETATM   14  H   UNK N   1      20.261  20.891  -0.401  0.00  0.00     0.174 HD
HETATM   15  H   UNK N   1      20.646  21.810   0.981  0.00  0.00     0.174 HD
ENDROOT
BRANCH   5  16
HETATM   16  N   UNK N   1      22.191  15.068   5.381  0.00  0.00    -0.381 N 
HETATM   17  C   UNK N   1      22.197  13.830   4.637  0.00  0.00     0.150 C 
BRANCH  16  18
HETATM   18  C   UNK N   1      22.841  15.135   6.682  0.00  0.00     0.164 C 
BRANCH  18  19
HETATM   19  C   UNK N   1      22.065  14.587   7.851  0.00  0.00    -0.004 A 
HETATM   20  C   UNK N   1      22.625  13.662   8.764  0.00  0.00     0.076 A 
HETATM   21  C   UNK N   1      21.869  13.248   9.875  0.00  0.00     0.040 A 
HETATM   22  C   UNK N   1      20.595  13.766  10.098  0.00  0.00     0.039 A 
HETATM   23  C   UNK N   1      20.048  14.707   9.212  0.00  0.00     0.069 A 
HETATM   24  C   UNK N   1      20.787  15.106   8.093  0.00  0.00     0.048 A 
BRANCH  20  25
HETATM   25  O   UNK N   1      23.888  13.203   8.580  0.00  0.00    -0.355 OA
HETATM   26  C   UNK N   1      24.825  13.129   9.586  0.00  0.00     0.210 C 
ENDBRANCH  20  25
BRANCH  23  27
HETATM   27  O   UNK N   1      18.828  15.253   9.426  0.00  0.00    -0.356 OA
HETATM   28  C   UNK N   1      18.518  16.555   9.103  0.00  0.00     0.210 C 
ENDBRANCH  23  27
ENDBRANCH  18  19
ENDBRANCH  16  18
ENDBRANCH   5  16
BRANCH   2  29
HETATM   29  N   UNK N   1      19.717  16.237   1.046  0.00  0.00    -0.384 N 
HETATM   30  H   UNK N   1      19.365  16.166   0.130  0.00  0.00     0.157 HD
HETATM   31  H   UNK N   1      19.678  15.447   1.633  0.00  0.00     0.157 HD
ENDBRANCH   2  29
TORSDOF 6
ENDMDL
MODEL 4
REMARK VINA RESULT:      -6.8     10.476     12.985
REMARK  6 active torsions:
REMARK  status: ('A' for Active; 'I' for Inactive)
REMARK       I    between atoms: C_1  and  N_20 
REMARK    1  A    between atoms: C_2  and  N_23 
REMARK    2  A    between atoms: C_5  and  N_27 
REMARK    3  A    between atoms: C_9  and  C_11 
REMARK    4  A    between atoms: C_9  and  N_27 
REMARK    5  A    between atoms: C_12  and  O_25 
REMARK    6  A    between atoms: C_15  and  O_26 
ROOT
HETATM    1  C   UNK N   1      20.539  19.882   1.371  0.00  0.00     0.677 A 
HETATM    2  C   UNK N   1      20.302  17.533   1.535  0.00  0.00     0.127 A 
HETATM    3  C   UNK N   1      20.650  17.588   2.888  0.00  0.00     0.037 A 
HETATM    4  C   UNK N   1      20.721  16.437   3.675  0.00  0.00     0.046 A 
HETATM    5  C   UNK N   1      21.137  16.507   5.016  0.00  0.00     0.031 A 
HETATM    6  C   UNK N   1      21.467  17.760   5.562  0.00  0.00     0.031 A 
HETATM    7  C   UNK N   1      20.959  18.840   3.451  0.00  0.00     0.063 A 
HETATM    8  N   UNK N   1      20.890  19.959   2.683  0.00  0.00    -0.191 N 
ATOM      9  HN  UNK N   1      21.105  20.867   3.095  1.00  0.00     0.184 HD
HETATM   10  N   UNK N   1      20.479  21.053   0.591  0.00  0.00    -0.234 N 
HETATM   11  N   UNK N   1      20.255  18.679   0.805  0.00  0.00    -0.176 N 
ATOM     12  HN  UNK N   1      20.004  18.635  -0.182  1.00  0.00     0.186 HD
HETATM   13  C   UNK N   1      21.357  18.923   4.789  0.00  0.00     0.033 A 
HETATM   14  H   UNK N   1      20.508  20.999  -0.392  0.00  0.00     0.174 HD
HETATM   15  H   UNK N   1      20.407  21.932   1.030  0.00  0.00     0.174 HD
ENDROOT
BRANCH   5  16
HETATM   16  N   UNK N   1      21.294  15.308   5.777  0.00  0.00    -0.381 N 
HETATM   17  C   UNK N   1      20.958  14.048   5.157  0.00  0.00     0.150 C 
BRANCH  16  18
HETATM   18  C   UNK N   1      22.164  15.332   6.944  0.00  0.00     0.164 C 
BRANCH  18  19
HETATM   19  C   UNK N   1      21.665  14.615   8.171  0.00  0.00    -0.004 A 
HETATM   20  C   UNK N   1      20.395  14.879   8.737  0.00  0.00     0.076 A 
HETATM   21  C   UNK N   1      19.962  14.121   9.839  0.00  0.00     0.040 A 
HETATM   22  C   UNK N   1      20.755  13.097  10.350  0.00  0.00     0.039 A 
HETATM   23  C   UNK N   1      22.001  12.811   9.772  0.00  0.00     0.069 A 
HETATM   24  C   UNK N   1      22.447  13.576   8.690  0.00  0.00     0.048 A 
BRANCH  20  25
HETATM   25  O   UNK N   1      19.597  15.836   8.203  0.00  0.00    -0.355 OA
HETATM   26  C   UNK N   1      19.367  17.057   8.799  0.00  0.00     0.210 C 
ENDBRANCH  20  25
BRANCH  23  27
HETATM   27  O   UNK N   1      22.776  11.797  10.227  0.00  0.00    -0.356 OA
HETATM   28  C   UNK N   1      23.581  11.905  11.339  0.00  0.00     0.210 C 
ENDBRANCH  23  27
ENDBRANCH  18  19
ENDBRANCH  16  18
ENDBRANCH   5  16
BRANCH   2  29
HETATM   29  N   UNK N   1      20.020  16.297   0.911  0.00  0.00    -0.384 N 
HETATM   30  H   UNK N   1      19.466  16.230   0.101  0.00  0.00     0.157 HD
HETATM   31  H   UNK N   1      20.392  15.473   1.301  0.00  0.00     0.157 HD
ENDBRANCH   2  29
TORSDOF 6
ENDMDL
MODEL 5
REMARK VINA RESULT:      -6.8      3.818      4.957
REMARK  6 active torsions:
REMARK  status: ('A' for Active; 'I' for Inactive)
REMARK       I    between atoms: C_1  and  N_20 
REMARK    1  A    between atoms: C_2  and  N_23 
REMARK    2  A    between atoms: C_5  and  N_27 
REMARK    3  A    between atoms: C_9  and  C_11 
REMARK    4  A    between atoms: C_9  and  N_27 
REMARK    5  A    between atoms: C_12  and  O_25 
REMARK    6  A    between atoms: C_15  and  O_26 
ROOT
HETATM    1  C   UNK N   1      36.351  13.999  14.065  0.00  0.00     0.677 A 
HETATM    2  C   UNK N   1      35.111  12.744  12.487  0.00  0.00     0.127 A 
HETATM    3  C   UNK N   1      35.253  13.775  11.551  0.00  0.00     0.037 A 
HETATM    4  C   UNK N   1      34.698  13.685  10.273  0.00  0.00     0.046 A 
HETATM    5  C   UNK N   1      34.796  14.759   9.370  0.00  0.00     0.031 A 
HETATM    6  C   UNK N   1      35.477  15.923   9.768  0.00  0.00     0.031 A 
HETATM    7  C   UNK N   1      35.954  14.934  11.930  0.00  0.00     0.063 A 
HETATM    8  N   UNK N   1      36.493  15.018  13.175  0.00  0.00    -0.191 N 
ATOM      9  HN  UNK N   1      37.009  15.856  13.445  1.00  0.00     0.184 HD
HETATM   10  N   UNK N   1      36.913  14.109  15.352  0.00  0.00    -0.234 N 
HETATM   11  N   UNK N   1      35.661  12.879  13.723  0.00  0.00    -0.176 N 
ATOM     12  HN  UNK N   1      35.553  12.128  14.404  1.00  0.00     0.186 HD
HETATM   13  C   UNK N   1      36.072  16.001  11.034  0.00  0.00     0.033 A 
HETATM   14  H   UNK N   1      36.593  13.535  16.085  0.00  0.00     0.174 HD
HETATM   15  H   UNK N   1      37.629  14.764  15.521  0.00  0.00     0.174 HD
ENDROOT
BRANCH   5  16
HETATM   16  N   UNK N   1      34.141  14.686   8.103  0.00  0.00    -0.381 N 
HETATM   17  C   UNK N   1      32.697  14.692   8.070  0.00  0.00     0.150 C 
BRANCH  16  18
HETATM   18  C   UNK N   1      34.894  15.039   6.908  0.00  0.00     0.164 C 
BRANCH  18  19
HETATM   19  C   UNK N   1      34.121  15.698   5.795  0.00  0.00    -0.004 A 
HETATM   20  C   UNK N   1      33.877  17.091   5.766  0.00  0.00     0.076 A 
HETATM   21  C   UNK N   1      33.212  17.651   4.661  0.00  0.00     0.040 A 
HETATM   22  C   UNK N   1      32.825  16.851   3.588  0.00  0.00     0.039 A 
HETATM   23  C   UNK N   1      33.091  15.474   3.599  0.00  0.00     0.069 A 
HETATM   24  C   UNK N   1      33.733  14.908   4.706  0.00  0.00     0.048 A 
BRANCH  20  25
HETATM   25  O   UNK N   1      34.307  17.880   6.782  0.00  0.00    -0.355 OA
HETATM   26  C   UNK N   1      33.515  18.249   7.847  0.00  0.00     0.210 C 
ENDBRANCH  20  25
BRANCH  23  27
HETATM   27  O   UNK N   1      32.758  14.681   2.554  0.00  0.00    -0.356 OA
HETATM   28  C   UNK N   1      33.539  13.631   2.125  0.00  0.00     0.210 C 
ENDBRANCH  23  27
ENDBRANCH  18  19
ENDBRANCH  16  18
ENDBRANCH   5  16
BRANCH   2  29
HETATM   29  N   UNK N   1      34.384  11.575  12.170  0.00  0.00    -0.384 N 
HETATM   30  H   UNK N   1      33.680  11.562  11.483  0.00  0.00     0.157 HD
HETATM   31  H   UNK N   1      34.590  10.743  12.655  0.00  0.00     0.157 HD
ENDBRANCH   2  29
TORSDOF 6
ENDMDL
MODEL 6
REMARK VINA RESULT:      -6.4      2.354      3.828
REMARK  6 active torsions:
REMARK  status: ('A' for Active; 'I' for Inactive)
REMARK       I    between atoms: C_1  and  N_20 
REMARK    1  A    between atoms: C_2  and  N_23 
REMARK    2  A    between atoms: C_5  and  N_27 
REMARK    3  A    between atoms: C_9  and  C_11 
REMARK    4  A    between atoms: C_9  and  N_27 
REMARK    5  A    between atoms: C_12  and  O_25 
REMARK    6  A    between atoms: C_15  and  O_26 
ROOT
HETATM    1  C   UNK N   1      36.330  13.915  13.515  0.00  0.00     0.677 A 
HETATM    2  C   UNK N   1      35.105  12.918  11.751  0.00  0.00     0.127 A 
HETATM    3  C   UNK N   1      35.110  14.133  11.057  0.00  0.00     0.037 A 
HETATM    4  C   UNK N   1      34.491  14.268   9.813  0.00  0.00     0.046 A 
HETATM    5  C   UNK N   1      34.450  15.514   9.162  0.00  0.00     0.031 A 
HETATM    6  C   UNK N   1      35.058  16.623   9.777  0.00  0.00     0.031 A 
HETATM    7  C   UNK N   1      35.736  15.243  11.651  0.00  0.00     0.063 A 
HETATM    8  N   UNK N   1      36.338  15.108  12.862  0.00  0.00    -0.191 N 
ATOM      9  HN  UNK N   1      36.800  15.913  13.288  1.00  0.00     0.184 HD
HETATM   10  N   UNK N   1      36.954  13.798  14.772  0.00  0.00    -0.234 N 
HETATM   11  N   UNK N   1      35.713  12.835  12.964  0.00  0.00    -0.176 N 
ATOM     12  HN  UNK N   1      35.705  11.950  13.470  1.00  0.00     0.186 HD
HETATM   13  C   UNK N   1      35.717  16.483  11.005  0.00  0.00     0.033 A 
HETATM   14  H   UNK N   1      36.724  13.054  15.375  0.00  0.00     0.174 HD
HETATM   15  H   UNK N   1      37.624  14.464  15.051  0.00  0.00     0.174 HD
ENDROOT
BRANCH   5  16
HETATM   16  N   UNK N   1      33.731  15.654   7.935  0.00  0.00    -0.381 N 
HETATM   17  C   UNK N   1      34.456  16.050   6.751  0.00  0.00     0.150 C 
BRANCH  16  18
HETATM   18  C   UNK N   1      32.438  14.998   7.808  0.00  0.00     0.164 C 
BRANCH  18  19
HETATM   19  C   UNK N   1      31.304  15.841   7.285  0.00  0.00    -0.004 A 
HETATM   20  C   UNK N   1      30.686  15.587   6.038  0.00  0.00     0.076 A 
HETATM   21  C   UNK N   1      29.585  16.368   5.644  0.00  0.00     0.040 A 
HETATM   22  C   UNK N   1      29.083  17.360   6.483  0.00  0.00     0.039 A 
HETATM   23  C   UNK N   1      29.674  17.594   7.734  0.00  0.00     0.069 A 
HETATM   24  C   UNK N   1      30.783  16.835   8.122  0.00  0.00     0.048 A 
BRANCH  20  25
HETATM   25  O   UNK N   1      31.136  14.583   5.245  0.00  0.00    -0.355 OA
HETATM   26  C   UNK N   1      31.430  14.740   3.909  0.00  0.00     0.210 C 
ENDBRANCH  20  25
BRANCH  23  27
HETATM   27  O   UNK N   1      29.183  18.527   8.584  0.00  0.00    -0.356 OA
HETATM   28  C   UNK N   1      29.739  18.791   9.816  0.00  0.00     0.210 C 
ENDBRANCH  23  27
ENDBRANCH  18  19
ENDBRANCH  16  18
ENDBRANCH   5  16
BRANCH   2  29
HETATM   29  N   UNK N   1      34.457  11.782  11.217  0.00  0.00    -0.384 N 
HETATM   30  H   UNK N   1      33.922  11.171  11.772  0.00  0.00     0.157 HD
HETATM   31  H   UNK N   1      34.544  11.596  10.254  0.00  0.00     0.157 HD
ENDBRANCH   2  29
TORSDOF 6
ENDMDL
MODEL 7
REMARK VINA RESULT:      -6.4      7.014     10.103
REMARK  6 active torsions:
REMARK  status: ('A' for Active; 'I' for Inactive)
REMARK       I    between atoms: C_1  and  N_20 
REMARK    1  A    between atoms: C_2  and  N_23 
REMARK    2  A    between atoms: C_5  and  N_27 
REMARK    3  A    between atoms: C_9  and  C_11 
REMARK    4  A    between atoms: C_9  and  N_27 
REMARK    5  A    between atoms: C_12  and  O_25 
REMARK    6  A    between atoms: C_15  and  O_26 
ROOT
HETATM    1  C   UNK N   1      21.420  12.630  10.491  0.00  0.00     0.677 A 
HETATM    2  C   UNK N   1      22.881  12.853   8.642  0.00  0.00     0.127 A 
HETATM    3  C   UNK N   1      22.235  14.037   8.271  0.00  0.00     0.037 A 
HETATM    4  C   UNK N   1      22.627  14.763   7.144  0.00  0.00     0.046 A 
HETATM    5  C   UNK N   1      21.923  15.915   6.751  0.00  0.00     0.031 A 
HETATM    6  C   UNK N   1      20.824  16.337   7.520  0.00  0.00     0.031 A 
HETATM    7  C   UNK N   1      21.150  14.482   9.047  0.00  0.00     0.063 A 
HETATM    8  N   UNK N   1      20.771  13.773  10.143  0.00  0.00    -0.191 N 
ATOM      9  HN  UNK N   1      19.989  14.103  10.710  1.00  0.00     0.184 HD
HETATM   10  N   UNK N   1      21.007  11.907  11.628  0.00  0.00    -0.234 N 
HETATM   11  N   UNK N   1      22.459  12.174   9.742  0.00  0.00    -0.176 N 
ATOM     12  HN  UNK N   1      22.929  11.310  10.009  1.00  0.00     0.186 HD
HETATM   13  C   UNK N   1      20.454  15.636   8.675  0.00  0.00     0.033 A 
HETATM   14  H   UNK N   1      21.260  10.962  11.735  0.00  0.00     0.174 HD
HETATM   15  H   UNK N   1      20.462  12.349  12.319  0.00  0.00     0.174 HD
ENDROOT
BRANCH   5  16
HETATM   16  N   UNK N   1      22.280  16.589   5.543  0.00  0.00    -0.381 N 
HETATM   17  C   UNK N   1      22.052  15.920   4.284  0.00  0.00     0.150 C 
BRANCH  16  18
HETATM   18  C   UNK N   1      22.441  18.036   5.575  0.00  0.00     0.164 C 
BRANCH  18  19
HETATM   19  C   UNK N   1      23.460  18.621   4.631  0.00  0.00    -0.004 A 
HETATM   20  C   UNK N   1      23.127  19.612   3.679  0.00  0.00     0.076 A 
HETATM   21  C   UNK N   1      24.141  20.167   2.879  0.00  0.00     0.040 A 
HETATM   22  C   UNK N   1      25.467  19.773   3.043  0.00  0.00     0.039 A 
HETATM   23  C   UNK N   1      25.807  18.812   4.007  0.00  0.00     0.069 A 
HETATM   24  C   UNK N   1      24.798  18.240   4.790  0.00  0.00     0.048 A 
BRANCH  20  25
HETATM   25  O   UNK N   1      21.845  20.041   3.560  0.00  0.00    -0.355 OA
HETATM   26  C   UNK N   1      21.353  20.668   2.438  0.00  0.00     0.210 C 
ENDBRANCH  20  25
BRANCH  23  27
HETATM   27  O   UNK N   1      27.092  18.437   4.210  0.00  0.00    -0.356 OA
HETATM   28  C   UNK N   1      27.775  18.691   5.379  0.00  0.00     0.210 C 
ENDBRANCH  23  27
ENDBRANCH  18  19
ENDBRANCH  16  18
ENDBRANCH   5  16
BRANCH   2  29
HETATM   29  N   UNK N   1      23.951  12.342   7.875  0.00  0.00    -0.384 N 
HETATM   30  H   UNK N   1      23.884  11.499   7.371  0.00  0.00     0.157 HD
HETATM   31  H   UNK N   1      24.796  12.847   7.845  0.00  0.00     0.157 HD
ENDBRANCH   2  29
TORSDOF 6
ENDMDL
MODEL 8
REMARK VINA RESULT:      -6.3     12.246     15.188
REMARK  6 active torsions:
REMARK  status: ('A' for Active; 'I' for Inactive)
REMARK       I    between atoms: C_1  and  N_20 
REMARK    1  A    between atoms: C_2  and  N_23 
REMARK    2  A    between atoms: C_5  and  N_27 
REMARK    3  A    between atoms: C_9  and  C_11 
REMARK    4  A    between atoms: C_9  and  N_27 
REMARK    5  A    between atoms: C_12  and  O_25 
REMARK    6  A    between atoms: C_15  and  O_26 
ROOT
HETATM    1  C   UNK N   1      31.976  21.543  -3.261  0.00  0.00     0.677 A 
HETATM    2  C   UNK N   1      30.903  22.013  -5.317  0.00  0.00     0.127 A 
HETATM    3  C   UNK N   1      29.875  22.672  -4.634  0.00  0.00     0.037 A 
HETATM    4  C   UNK N   1      28.796  23.246  -5.309  0.00  0.00     0.046 A 
HETATM    5  C   UNK N   1      27.741  23.846  -4.600  0.00  0.00     0.031 A 
HETATM    6  C   UNK N   1      27.796  23.876  -3.195  0.00  0.00     0.031 A 
HETATM    7  C   UNK N   1      29.932  22.729  -3.230  0.00  0.00     0.063 A 
HETATM    8  N   UNK N   1      30.983  22.170  -2.575  0.00  0.00    -0.191 N 
ATOM      9  HN  UNK N   1      31.027  22.221  -1.556  1.00  0.00     0.184 HD
HETATM   10  N   UNK N   1      33.054  20.964  -2.562  0.00  0.00    -0.234 N 
HETATM   11  N   UNK N   1      31.929  21.461  -4.617  0.00  0.00    -0.176 N 
ATOM     12  HN  UNK N   1      32.675  20.978  -5.117  1.00  0.00     0.186 HD
HETATM   13  C   UNK N   1      28.896  23.339  -2.515  0.00  0.00     0.033 A 
HETATM   14  H   UNK N   1      33.617  20.280  -2.993  0.00  0.00     0.174 HD
HETATM   15  H   UNK N   1      33.247  21.245  -1.638  0.00  0.00     0.174 HD
ENDROOT
BRANCH   5  16
HETATM   16  N   UNK N   1      26.601  24.343  -5.304  0.00  0.00    -0.381 N 
HETATM   17  C   UNK N   1      26.043  23.542  -6.367  0.00  0.00     0.150 C 
BRANCH  16  18
HETATM   18  C   UNK N   1      25.794  25.380  -4.678  0.00  0.00     0.164 C 
BRANCH  18  19
HETATM   19  C   UNK N   1      26.365  26.775  -4.687  0.00  0.00    -0.004 A 
HETATM   20  C   UNK N   1      26.597  27.488  -5.887  0.00  0.00     0.076 A 
HETATM   21  C   UNK N   1      27.063  28.813  -5.820  0.00  0.00     0.040 A 
HETATM   22  C   UNK N   1      27.263  29.432  -4.588  0.00  0.00     0.039 A 
HETATM   23  C   UNK N   1      27.005  28.738  -3.396  0.00  0.00     0.069 A 
HETATM   24  C   UNK N   1      26.562  27.413  -3.456  0.00  0.00     0.048 A 
BRANCH  20  25
HETATM   25  O   UNK N   1      26.345  26.907  -7.086  0.00  0.00    -0.355 OA
HETATM   26  C   UNK N   1      27.311  26.685  -8.042  0.00  0.00     0.210 C 
ENDBRANCH  20  25
BRANCH  23  27
HETATM   27  O   UNK N   1      27.157  29.329  -2.187  0.00  0.00    -0.356 OA
HETATM   28  C   UNK N   1      28.387  29.566  -1.614  0.00  0.00     0.210 C 
ENDBRANCH  23  27
ENDBRANCH  18  19
ENDBRANCH  16  18
ENDBRANCH   5  16
BRANCH   2  29
HETATM   29  N   UNK N   1      30.875  21.894  -6.724  0.00  0.00    -0.384 N 
HETATM   30  H   UNK N   1      31.695  21.857  -7.267  0.00  0.00     0.157 HD
HETATM   31  H   UNK N   1      30.002  21.845  -7.179  0.00  0.00     0.157 HD
ENDBRANCH   2  29
TORSDOF 6
ENDMDL
MODEL 9
REMARK VINA RESULT:      -6.2      9.368     12.969
REMARK  6 active torsions:
REMARK  status: ('A' for Active; 'I' for Inactive)
REMARK       I    between atoms: C_1  and  N_20 
REMARK    1  A    between atoms: C_2  and  N_23 
REMARK    2  A    between atoms: C_5  and  N_27 
REMARK    3  A    between atoms: C_9  and  C_11 
REMARK    4  A    between atoms: C_9  and  N_27 
REMARK    5  A    between atoms: C_12  and  O_25 
REMARK    6  A    between atoms: C_15  and  O_26 
ROOT
HETATM    1  C   UNK N   1      20.065  17.383   1.571  0.00  0.00     0.677 A 
HETATM    2  C   UNK N   1      20.765  18.088   3.720  0.00  0.00     0.127 A 
HETATM    3  C   UNK N   1      20.577  16.791   4.210  0.00  0.00     0.037 A 
HETATM    4  C   UNK N   1      20.823  16.469   5.546  0.00  0.00     0.046 A 
HETATM    5  C   UNK N   1      20.563  15.176   6.034  0.00  0.00     0.031 A 
HETATM    6  C   UNK N   1      20.066  14.202   5.150  0.00  0.00     0.031 A 
HETATM    7  C   UNK N   1      20.103  15.803   3.329  0.00  0.00     0.063 A 
HETATM    8  N   UNK N   1      19.864  16.118   2.029  0.00  0.00    -0.191 N 
ATOM      9  HN  UNK N   1      19.530  15.397   1.388  1.00  0.00     0.184 HD
HETATM   10  N   UNK N   1      19.806  17.692   0.221  0.00  0.00    -0.234 N 
HETATM   11  N   UNK N   1      20.505  18.357   2.414  0.00  0.00    -0.176 N 
ATOM     12  HN  UNK N   1      20.640  19.303   2.059  1.00  0.00     0.186 HD
HETATM   13  C   UNK N   1      19.859  14.509   3.799  0.00  0.00     0.033 A 
HETATM   14  H   UNK N   1      19.671  18.626  -0.059  0.00  0.00     0.174 HD
HETATM   15  H   UNK N   1      19.760  16.969  -0.446  0.00  0.00     0.174 HD
ENDROOT
BRANCH   5  16
HETATM   16  N   UNK N   1      20.731  14.892   7.424  0.00  0.00    -0.381 N 
HETATM   17  C   UNK N   1      20.416  15.925   8.383  0.00  0.00     0.150 C 
BRANCH  16  18
HETATM   18  C   UNK N   1      20.784  13.501   7.850  0.00  0.00     0.164 C 
BRANCH  18  19
HETATM   19  C   UNK N   1      21.948  13.108   8.721  0.00  0.00    -0.004 A 
HETATM   20  C   UNK N   1      23.291  13.258   8.302  0.00  0.00     0.076 A 
HETATM   21  C   UNK N   1      24.330  12.939   9.194  0.00  0.00     0.040 A 
HETATM   22  C   UNK N   1      24.046  12.513  10.490  0.00  0.00     0.039 A 
HETATM   23  C   UNK N   1      22.716  12.392  10.919  0.00  0.00     0.069 A 
HETATM   24  C   UNK N   1      21.678  12.687  10.029  0.00  0.00     0.048 A 
BRANCH  20  25
HETATM   25  O   UNK N   1      23.570  13.730   7.061  0.00  0.00    -0.355 OA
HETATM   26  C   UNK N   1      24.655  14.527   6.776  0.00  0.00     0.210 C 
ENDBRANCH  20  25
BRANCH  23  27
HETATM   27  O   UNK N   1      22.413  12.015  12.184  0.00  0.00    -0.356 OA
HETATM   28  C   UNK N   1      23.353  11.915  13.186  0.00  0.00     0.210 C 
ENDBRANCH  23  27
ENDBRANCH  18  19
ENDBRANCH  16  18
ENDBRANCH   5  16
BRANCH   2  29
HETATM   29  N   UNK N   1      21.203  19.126   4.572  0.00  0.00    -0.384 N 
HETATM   30  H   UNK N   1      21.033  20.075   4.376  0.00  0.00     0.157 HD
HETATM   31  H   UNK N   1      21.695  18.891   5.392  0.00  0.00     0.157 HD
ENDBRANCH   2  29
TORSDOF 6
ENDMDL
