MODEL 1
REMARK VINA RESULT:      -5.8      0.000      0.000
REMARK  5 active torsions:
REMARK  status: ('A' for Active; 'I' for Inactive)
REMARK    1  A    between atoms: C_8  and  N_13 
REMARK    2  A    between atoms: C_9  and  C_10 
REMARK    3  A    between atoms: C_10  and  O_11 
REMARK       I    between atoms: N_13  and  C_14 
REMARK    4  A    between atoms: C_14  and  C_15 
REMARK    5  A    between atoms: C_15  and  O_16 
ROOT
HETATM    1  S   UNK N   1      37.356   8.200  15.594  0.00  0.00    -0.164 SA
HETATM    2  C   UNK N   1      36.863   8.815  13.946  0.00  0.00     0.120 C 
HETATM    3  C   UNK N   1      36.854  10.311  13.891  0.00  0.00     0.001 A 
HETATM    4  C   UNK N   1      36.759  11.199  14.977  0.00  0.00    -0.024 A 
HETATM    5  C   UNK N   1      36.661  10.725  16.401  0.00  0.00     0.051 C 
HETATM    6  C   UNK N   1      36.186   9.278  16.476  0.00  0.00     0.079 C 
HETATM    7  S   UNK N   1      36.913  11.216  12.512  0.00  0.00    -0.074 SA
HETATM    8  C   UNK N   1      36.834  12.738  13.182  0.00  0.00     0.095 A 
HETATM    9  C   UNK N   1      36.747  12.582  14.579  0.00  0.00     0.079 A 
ENDROOT
BRANCH   8  10
HETATM   10  N   UNK N   1      36.846  13.981  12.484  0.00  0.00    -0.311 N 
HETATM   11  C   UNK N   1      35.743  14.629  12.018  0.00  0.00     0.320 C 
HETATM   12  O   UNK N   1      34.625  14.160  12.173  0.00  0.00    -0.261 OA
HETATM   13  H   UNK N   1      37.721  14.404  12.327  0.00  0.00     0.170 HD
BRANCH  11  14
HETATM   14  C   UNK N   1      35.891  15.908  11.302  0.00  0.00     0.237 C 
HETATM   15  O   UNK N   1      36.883  16.127  10.627  0.00  0.00    -0.643 OA
BRANCH  14  16
HETATM   16  O   UNK N   1      34.926  16.844  11.391  0.00  0.00    -0.769 OA
HETATM   17  H   UNK N   1      34.099  16.630  11.778  0.00  0.00     0.168 HD
ENDBRANCH  14  16
ENDBRANCH  11  14
ENDBRANCH   8  10
BRANCH   9  18
HETATM   18  C   UNK N   1      36.638  13.725  15.525  0.00  0.00     0.179 C 
HETATM   19  O   UNK N   1      35.697  13.804  16.297  0.00  0.00    -0.646 OA
BRANCH  18  20
HETATM   20  O   UNK N   1      37.576  14.693  15.532  0.00  0.00    -0.773 OA
HETATM   21  H   UNK N   1      37.318  15.594  15.547  0.00  0.00     0.167 HD
ENDBRANCH  18  20
ENDBRANCH   9  18
TORSDOF 5
ENDMDL
MODEL 2
REMARK VINA RESULT:      -5.8      8.948     12.258
REMARK  5 active torsions:
REMARK  status: ('A' for Active; 'I' for Inactive)
REMARK    1  A    between atoms: C_8  and  N_13 
REMARK    2  A    between atoms: C_9  and  C_10 
REMARK    3  A    between atoms: C_10  and  O_11 
REMARK       I    between atoms: N_13  and  C_14 
REMARK    4  A    between atoms: C_14  and  C_15 
REMARK    5  A    between atoms: C_15  and  O_16 
ROOT
HETATM    1  S   UNK N   1      26.407  20.450   4.367  0.00  0.00    -0.164 SA
HETATM    2  C   UNK N   1      27.945  19.516   4.052  0.00  0.00     0.120 C 
HETATM    3  C   UNK N   1      28.425  18.805   5.278  0.00  0.00     0.001 A 
HETATM    4  C   UNK N   1      28.105  19.106   6.613  0.00  0.00    -0.024 A 
HETATM    5  C   UNK N   1      27.182  20.234   6.987  0.00  0.00     0.051 C 
HETATM    6  C   UNK N   1      27.063  21.255   5.860  0.00  0.00     0.079 C 
HETATM    7  S   UNK N   1      29.477  17.533   5.294  0.00  0.00    -0.074 SA
HETATM    8  C   UNK N   1      29.581  17.287   6.937  0.00  0.00     0.095 A 
HETATM    9  C   UNK N   1      28.761  18.245   7.562  0.00  0.00     0.079 A 
ENDROOT
BRANCH   8  10
HETATM   10  N   UNK N   1      30.358  16.296   7.605  0.00  0.00    -0.311 N 
HETATM   11  C   UNK N   1      31.603  16.492   8.120  0.00  0.00     0.320 C 
HETATM   12  O   UNK N   1      32.157  17.578   8.033  0.00  0.00    -0.261 OA
HETATM   13  H   UNK N   1      29.962  15.400   7.702  0.00  0.00     0.170 HD
BRANCH  11  14
HETATM   14  C   UNK N   1      32.307  15.380   8.783  0.00  0.00     0.237 C 
HETATM   15  O   UNK N   1      32.978  14.597   8.130  0.00  0.00    -0.643 OA
BRANCH  14  16
HETATM   16  O   UNK N   1      32.211  15.224  10.117  0.00  0.00    -0.769 OA
HETATM   17  H   UNK N   1      31.377  15.288  10.539  0.00  0.00     0.168 HD
ENDBRANCH  14  16
ENDBRANCH  11  14
ENDBRANCH   8  10
BRANCH   9  18
HETATM   18  C   UNK N   1      28.609  18.356   9.038  0.00  0.00     0.179 C 
HETATM   19  O   UNK N   1      29.534  18.751   9.728  0.00  0.00    -0.646 OA
BRANCH  18  20
HETATM   20  O   UNK N   1      27.449  18.010   9.630  0.00  0.00    -0.773 OA
HETATM   21  H   UNK N   1      26.639  18.354   9.309  0.00  0.00     0.167 HD
ENDBRANCH  18  20
ENDBRANCH   9  18
TORSDOF 5
ENDMDL
MODEL 3
REMARK VINA RESULT:      -5.7     20.195     23.253
REMARK  5 active torsions:
REMARK  status: ('A' for Active; 'I' for Inactive)
REMARK    1  A    between atoms: C_8  and  N_13 
REMARK    2  A    between atoms: C_9  and  C_10 
REMARK    3  A    between atoms: C_10  and  O_11 
REMARK       I    between atoms: N_13  and  C_14 
REMARK    4  A    between atoms: C_14  and  C_15 
REMARK    5  A    between atoms: C_15  and  O_16 
ROOT
HETATM    1  S   UNK N   1      27.900  29.742  -4.291  0.00  0.00    -0.164 SA
HETATM    2  C   UNK N   1      29.429  28.982  -3.644  0.00  0.00     0.120 C 
HETATM    3  C   UNK N   1      29.390  27.488  -3.736  0.00  0.00     0.001 A 
HETATM    4  C   UNK N   1      28.248  26.675  -3.839  0.00  0.00    -0.024 A 
HETATM    5  C   UNK N   1      26.855  27.241  -3.884  0.00  0.00     0.051 C 
HETATM    6  C   UNK N   1      26.809  28.658  -3.320  0.00  0.00     0.079 C 
HETATM    7  S   UNK N   1      30.706  26.494  -3.688  0.00  0.00    -0.074 SA
HETATM    8  C   UNK N   1      29.938  25.022  -3.802  0.00  0.00     0.095 A 
HETATM    9  C   UNK N   1      28.554  25.270  -3.877  0.00  0.00     0.079 A 
ENDROOT
BRANCH   8  10
HETATM   10  N   UNK N   1      30.553  23.735  -3.817  0.00  0.00    -0.311 N 
HETATM   11  C   UNK N   1      30.773  22.959  -2.720  0.00  0.00     0.320 C 
HETATM   12  O   UNK N   1      30.445  23.337  -1.605  0.00  0.00    -0.261 OA
HETATM   13  H   UNK N   1      30.842  23.381  -4.689  0.00  0.00     0.170 HD
BRANCH  11  14
HETATM   14  C   UNK N   1      31.428  21.648  -2.868  0.00  0.00     0.237 C 
HETATM   15  O   UNK N   1      31.012  20.838  -3.681  0.00  0.00    -0.643 OA
BRANCH  14  16
HETATM   16  O   UNK N   1      32.494  21.338  -2.104  0.00  0.00    -0.769 OA
HETATM   17  H   UNK N   1      32.545  21.650  -1.222  0.00  0.00     0.168 HD
ENDBRANCH  14  16
ENDBRANCH  11  14
ENDBRANCH   8  10
BRANCH   9  18
HETATM   18  C   UNK N   1      27.533  24.192  -3.968  0.00  0.00     0.179 C 
HETATM   19  O   UNK N   1      27.394  23.554  -4.999  0.00  0.00    -0.646 OA
BRANCH  18  20
HETATM   20  O   UNK N   1      26.740  23.915  -2.914  0.00  0.00    -0.773 OA
HETATM   21  H   UNK N   1      25.856  23.636  -3.053  0.00  0.00     0.167 HD
ENDBRANCH  18  20
ENDBRANCH   9  18
TORSDOF 5
ENDMDL
MODEL 4
REMARK VINA RESULT:      -5.7     19.635     21.562
REMARK  5 active torsions:
REMARK  status: ('A' for Active; 'I' for Inactive)
REMARK    1  A    between atoms: C_8  and  N_13 
REMARK    2  A    between atoms: C_9  and  C_10 
REMARK    3  A    between atoms: C_10  and  O_11 
REMARK       I    between atoms: N_13  and  C_14 
REMARK    4  A    between atoms: C_14  and  C_15 
REMARK    5  A    between atoms: C_15  and  O_16 
ROOT
HETATM    1  S   UNK N   1      27.208  23.729  -5.994  0.00  0.00    -0.164 SA
HETATM    2  C   UNK N   1      28.408  22.624  -6.817  0.00  0.00     0.120 C 
HETATM    3  C   UNK N   1      29.382  22.038  -5.843  0.00  0.00     0.001 A 
HETATM    4  C   UNK N   1      29.718  22.541  -4.574  0.00  0.00    -0.024 A 
HETATM    5  C   UNK N   1      29.095  23.788  -4.009  0.00  0.00     0.051 C 
HETATM    6  C   UNK N   1      28.494  24.659  -5.106  0.00  0.00     0.079 C 
HETATM    7  S   UNK N   1      30.296  20.689  -6.102  0.00  0.00    -0.074 SA
HETATM    8  C   UNK N   1      31.138  20.652  -4.666  0.00  0.00     0.095 A 
HETATM    9  C   UNK N   1      30.718  21.755  -3.900  0.00  0.00     0.079 A 
ENDROOT
BRANCH   8  10
HETATM   10  N   UNK N   1      32.113  19.689  -4.272  0.00  0.00    -0.311 N 
HETATM   11  C   UNK N   1      33.392  19.633  -4.737  0.00  0.00     0.320 C 
HETATM   12  O   UNK N   1      33.798  20.440  -5.560  0.00  0.00    -0.261 OA
HETATM   13  H   UNK N   1      31.840  19.012  -3.612  0.00  0.00     0.170 HD
BRANCH  11  14
HETATM   14  C   UNK N   1      34.303  18.581  -4.254  0.00  0.00     0.237 C 
HETATM   15  O   UNK N   1      35.488  18.611  -4.542  0.00  0.00    -0.643 OA
BRANCH  14  16
HETATM   16  O   UNK N   1      33.828  17.579  -3.489  0.00  0.00    -0.769 OA
HETATM   17  H   UNK N   1      32.909  17.520  -3.311  0.00  0.00     0.168 HD
ENDBRANCH  14  16
ENDBRANCH  11  14
ENDBRANCH   8  10
BRANCH   9  18
HETATM   18  C   UNK N   1      31.264  22.072  -2.552  0.00  0.00     0.179 C 
HETATM   19  O   UNK N   1      30.717  22.897  -1.839  0.00  0.00    -0.646 OA
BRANCH  18  20
HETATM   20  O   UNK N   1      32.378  21.457  -2.109  0.00  0.00    -0.773 OA
HETATM   21  H   UNK N   1      33.219  21.733  -2.416  0.00  0.00     0.167 HD
ENDBRANCH  18  20
ENDBRANCH   9  18
TORSDOF 5
ENDMDL
MODEL 5
REMARK VINA RESULT:      -5.7      3.648      4.976
REMARK  5 active torsions:
REMARK  status: ('A' for Active; 'I' for Inactive)
REMARK    1  A    between atoms: C_8  and  N_13 
REMARK    2  A    between atoms: C_9  and  C_10 
REMARK    3  A    between atoms: C_10  and  O_11 
REMARK       I    between atoms: N_13  and  C_14 
REMARK    4  A    between atoms: C_14  and  C_15 
REMARK    5  A    between atoms: C_15  and  O_16 
ROOT
HETATM    1  S   UNK N   1      35.162   9.718  11.011  0.00  0.00    -0.164 SA
HETATM    2  C   UNK N   1      33.895  10.882  10.396  0.00  0.00     0.120 C 
HETATM    3  C   UNK N   1      34.496  12.188   9.978  0.00  0.00     0.001 A 
HETATM    4  C   UNK N   1      35.733  12.719  10.382  0.00  0.00    -0.024 A 
HETATM    5  C   UNK N   1      36.654  11.994  11.325  0.00  0.00     0.051 C 
HETATM    6  C   UNK N   1      35.908  10.938  12.134  0.00  0.00     0.079 C 
HETATM    7  S   UNK N   1      33.784  13.290   8.978  0.00  0.00    -0.074 SA
HETATM    8  C   UNK N   1      34.963  14.465   8.985  0.00  0.00     0.095 A 
HETATM    9  C   UNK N   1      36.004  14.016   9.820  0.00  0.00     0.079 A 
ENDROOT
BRANCH   8  10
HETATM   10  N   UNK N   1      34.936  15.707   8.285  0.00  0.00    -0.311 N 
HETATM   11  C   UNK N   1      34.671  16.918   8.847  0.00  0.00     0.320 C 
HETATM   12  O   UNK N   1      34.424  17.018  10.040  0.00  0.00    -0.261 OA
HETATM   13  H   UNK N   1      35.125  15.686   7.319  0.00  0.00     0.170 HD
BRANCH  11  14
HETATM   14  C   UNK N   1      34.666  18.131   8.010  0.00  0.00     0.237 C 
HETATM   15  O   UNK N   1      35.039  19.198   8.467  0.00  0.00    -0.643 OA
BRANCH  14  16
HETATM   16  O   UNK N   1      34.250  18.062   6.730  0.00  0.00    -0.769 OA
HETATM   17  H   UNK N   1      33.532  17.507   6.499  0.00  0.00     0.168 HD
ENDBRANCH  14  16
ENDBRANCH  11  14
ENDBRANCH   8  10
BRANCH   9  18
HETATM   18  C   UNK N   1      37.232  14.809  10.095  0.00  0.00     0.179 C 
HETATM   19  O   UNK N   1      38.316  14.441   9.672  0.00  0.00    -0.646 OA
BRANCH  18  20
HETATM   20  O   UNK N   1      37.163  15.939  10.825  0.00  0.00    -0.773 OA
HETATM   21  H   UNK N   1      37.111  16.771  10.396  0.00  0.00     0.167 HD
ENDBRANCH  18  20
ENDBRANCH   9  18
TORSDOF 5
ENDMDL
MODEL 6
REMARK VINA RESULT:      -5.6      7.188     10.488
REMARK  5 active torsions:
REMARK  status: ('A' for Active; 'I' for Inactive)
REMARK    1  A    between atoms: C_8  and  N_13 
REMARK    2  A    between atoms: C_9  and  C_10 
REMARK    3  A    between atoms: C_10  and  O_11 
REMARK       I    between atoms: N_13  and  C_14 
REMARK    4  A    between atoms: C_14  and  C_15 
REMARK    5  A    between atoms: C_15  and  O_16 
ROOT
HETATM    1  S   UNK N   1      28.044  17.255   4.194  0.00  0.00    -0.164 SA
HETATM    2  C   UNK N   1      29.865  17.177   4.323  0.00  0.00     0.120 C 
HETATM    3  C   UNK N   1      30.319  17.110   5.748  0.00  0.00     0.001 A 
HETATM    4  C   UNK N   1      29.598  17.510   6.887  0.00  0.00    -0.024 A 
HETATM    5  C   UNK N   1      28.205  18.071   6.805  0.00  0.00     0.051 C 
HETATM    6  C   UNK N   1      27.898  18.601   5.408  0.00  0.00     0.079 C 
HETATM    7  S   UNK N   1      31.798  16.583   6.255  0.00  0.00    -0.074 SA
HETATM    8  C   UNK N   1      31.620  16.811   7.894  0.00  0.00     0.095 A 
HETATM    9  C   UNK N   1      30.335  17.342   8.112  0.00  0.00     0.079 A 
ENDROOT
BRANCH   8  10
HETATM   10  N   UNK N   1      32.586  16.531   8.906  0.00  0.00    -0.311 N 
HETATM   11  C   UNK N   1      33.780  17.170   9.048  0.00  0.00     0.320 C 
HETATM   12  O   UNK N   1      34.113  18.060   8.281  0.00  0.00    -0.261 OA
HETATM   13  H   UNK N   1      32.371  15.820   9.552  0.00  0.00     0.170 HD
BRANCH  11  14
HETATM   14  C   UNK N   1      34.696  16.780  10.134  0.00  0.00     0.237 C 
HETATM   15  O   UNK N   1      35.714  17.419  10.343  0.00  0.00    -0.643 OA
BRANCH  14  16
HETATM   16  O   UNK N   1      34.409  15.713  10.905  0.00  0.00    -0.769 OA
HETATM   17  H   UNK N   1      35.100  15.171  11.233  0.00  0.00     0.168 HD
ENDBRANCH  14  16
ENDBRANCH  11  14
ENDBRANCH   8  10
BRANCH   9  18
HETATM   18  C   UNK N   1      29.814  17.700   9.458  0.00  0.00     0.179 C 
HETATM   19  O   UNK N   1      29.179  16.890  10.114  0.00  0.00    -0.646 OA
BRANCH  18  20
HETATM   20  O   UNK N   1      30.028  18.930   9.966  0.00  0.00    -0.773 OA
HETATM   21  H   UNK N   1      29.756  19.130  10.840  0.00  0.00     0.167 HD
ENDBRANCH  18  20
ENDBRANCH   9  18
TORSDOF 5
ENDMDL
MODEL 7
REMARK VINA RESULT:      -5.6      2.288      2.999
REMARK  5 active torsions:
REMARK  status: ('A' for Active; 'I' for Inactive)
REMARK    1  A    between atoms: C_8  and  N_13 
REMARK    2  A    between atoms: C_9  and  C_10 
REMARK    3  A    between atoms: C_10  and  O_11 
REMARK       I    between atoms: N_13  and  C_14 
REMARK    4  A    between atoms: C_14  and  C_15 
REMARK    5  A    between atoms: C_15  and  O_16 
ROOT
HETATM    1  S   UNK N   1      36.658   9.752  15.701  0.00  0.00    -0.164 SA
HETATM    2  C   UNK N   1      36.385  11.543  15.930  0.00  0.00     0.120 C 
HETATM    3  C   UNK N   1      36.517  12.295  14.642  0.00  0.00     0.001 A 
HETATM    4  C   UNK N   1      37.197  11.880  13.484  0.00  0.00    -0.024 A 
HETATM    5  C   UNK N   1      37.900  10.553  13.393  0.00  0.00     0.051 C 
HETATM    6  C   UNK N   1      38.206   9.986  14.775  0.00  0.00     0.079 C 
HETATM    7  S   UNK N   1      35.914  13.803  14.351  0.00  0.00    -0.074 SA
HETATM    8  C   UNK N   1      36.449  14.013  12.789  0.00  0.00     0.095 A 
HETATM    9  C   UNK N   1      37.162  12.854  12.426  0.00  0.00     0.079 A 
ENDROOT
BRANCH   8  10
HETATM   10  N   UNK N   1      36.238  15.153  11.959  0.00  0.00    -0.311 N 
HETATM   11  C   UNK N   1      35.073  15.455  11.323  0.00  0.00     0.320 C 
HETATM   12  O   UNK N   1      34.093  14.732  11.428  0.00  0.00    -0.261 OA
HETATM   13  H   UNK N   1      36.996  15.770  11.836  0.00  0.00     0.170 HD
BRANCH  11  14
HETATM   14  C   UNK N   1      34.986  16.663  10.484  0.00  0.00     0.237 C 
HETATM   15  O   UNK N   1      35.929  17.433  10.411  0.00  0.00    -0.643 OA
BRANCH  14  16
HETATM   16  O   UNK N   1      33.860  16.920   9.791  0.00  0.00    -0.769 OA
HETATM   17  H   UNK N   1      33.899  17.432   9.006  0.00  0.00     0.168 HD
ENDBRANCH  14  16
ENDBRANCH  11  14
ENDBRANCH   8  10
BRANCH   9  18
HETATM   18  C   UNK N   1      37.813  12.676  11.100  0.00  0.00     0.179 C 
HETATM   19  O   UNK N   1      37.351  11.899  10.281  0.00  0.00    -0.646 OA
BRANCH  18  20
HETATM   20  O   UNK N   1      38.931  13.363  10.794  0.00  0.00    -0.773 OA
HETATM   21  H   UNK N   1      38.866  14.220  10.421  0.00  0.00     0.167 HD
ENDBRANCH  18  20
ENDBRANCH   9  18
TORSDOF 5
ENDMDL
MODEL 8
REMARK VINA RESULT:      -5.5      3.645      6.450
REMARK  5 active torsions:
REMARK  status: ('A' for Active; 'I' for Inactive)
REMARK    1  A    between atoms: C_8  and  N_13 
REMARK    2  A    between atoms: C_9  and  C_10 
REMARK    3  A    between atoms: C_10  and  O_11 
REMARK       I    between atoms: N_13  and  C_14 
REMARK    4  A    between atoms: C_14  and  C_15 
REMARK    5  A    between atoms: C_15  and  O_16 
ROOT
HETATM    1  S   UNK N   1      34.911  15.618   6.710  0.00  0.00    -0.164 SA
HETATM    2  C   UNK N   1      34.200  15.908   8.367  0.00  0.00     0.120 C 
HETATM    3  C   UNK N   1      35.078  15.365   9.451  0.00  0.00     0.001 A 
HETATM    4  C   UNK N   1      36.062  14.369   9.326  0.00  0.00    -0.024 A 
HETATM    5  C   UNK N   1      36.374  13.703   8.014  0.00  0.00     0.051 C 
HETATM    6  C   UNK N   1      35.225  13.854   7.023  0.00  0.00     0.079 C 
HETATM    7  S   UNK N   1      35.023  15.814  11.038  0.00  0.00    -0.074 SA
HETATM    8  C   UNK N   1      36.209  14.815  11.644  0.00  0.00     0.095 A 
HETATM    9  C   UNK N   1      36.709  14.052  10.572  0.00  0.00     0.079 A 
ENDROOT
BRANCH   8  10
HETATM   10  N   UNK N   1      36.647  14.731  12.999  0.00  0.00    -0.311 N 
HETATM   11  C   UNK N   1      36.027  14.020  13.980  0.00  0.00     0.320 C 
HETATM   12  O   UNK N   1      35.009  13.384  13.750  0.00  0.00    -0.261 OA
HETATM   13  H   UNK N   1      37.461  15.227  13.243  0.00  0.00     0.170 HD
BRANCH  11  14
HETATM   14  C   UNK N   1      36.577  14.021  15.347  0.00  0.00     0.237 C 
HETATM   15  O   UNK N   1      36.041  13.371  16.229  0.00  0.00    -0.643 OA
BRANCH  14  16
HETATM   16  O   UNK N   1      37.680  14.742  15.627  0.00  0.00    -0.769 OA
HETATM   17  H   UNK N   1      37.602  15.640  15.883  0.00  0.00     0.168 HD
ENDBRANCH  14  16
ENDBRANCH  11  14
ENDBRANCH   8  10
BRANCH   9  18
HETATM   18  C   UNK N   1      37.774  13.025  10.725  0.00  0.00     0.179 C 
HETATM   19  O   UNK N   1      37.486  11.847  10.860  0.00  0.00    -0.646 OA
BRANCH  18  20
HETATM   20  O   UNK N   1      39.072  13.386  10.726  0.00  0.00    -0.773 OA
HETATM   21  H   UNK N   1      39.321  14.239  11.027  0.00  0.00     0.167 HD
ENDBRANCH  18  20
ENDBRANCH   9  18
TORSDOF 5
ENDMDL
MODEL 9
REMARK VINA RESULT:      -5.5      5.504      9.140
REMARK  5 active torsions:
REMARK  status: ('A' for Active; 'I' for Inactive)
REMARK    1  A    between atoms: C_8  and  N_13 
REMARK    2  A    between atoms: C_9  and  C_10 
REMARK    3  A    between atoms: C_10  and  O_11 
REMARK       I    between atoms: N_13  and  C_14 
REMARK    4  A    between atoms: C_14  and  C_15 
REMARK    5  A    between atoms: C_15  and  O_16 
ROOT
HETATM    1  S   UNK N   1      32.222  15.606   3.264  0.00  0.00    -0.164 SA
HETATM    2  C   UNK N   1      33.626  14.739   4.048  0.00  0.00     0.120 C 
HETATM    3  C   UNK N   1      33.946  15.304   5.396  0.00  0.00     0.001 A 
HETATM    4  C   UNK N   1      33.612  16.581   5.881  0.00  0.00    -0.024 A 
HETATM    5  C   UNK N   1      32.842  17.580   5.062  0.00  0.00     0.051 C 
HETATM    6  C   UNK N   1      32.918  17.258   3.572  0.00  0.00     0.079 C 
HETATM    7  S   UNK N   1      34.806  14.534   6.575  0.00  0.00    -0.074 SA
HETATM    8  C   UNK N   1      34.801  15.725   7.737  0.00  0.00     0.095 A 
HETATM    9  C   UNK N   1      34.097  16.826   7.214  0.00  0.00     0.079 A 
ENDROOT
BRANCH   8  10
HETATM   10  N   UNK N   1      35.400  15.660   9.030  0.00  0.00    -0.311 N 
HETATM   11  C   UNK N   1      34.758  15.293  10.174  0.00  0.00     0.320 C 
HETATM   12  O   UNK N   1      33.576  14.986  10.161  0.00  0.00    -0.261 OA
HETATM   13  H   UNK N   1      36.352  15.900   9.100  0.00  0.00     0.170 HD
BRANCH  11  14
HETATM   14  C   UNK N   1      35.490  15.275  11.452  0.00  0.00     0.237 C 
HETATM   15  O   UNK N   1      35.052  14.654  12.406  0.00  0.00    -0.643 OA
BRANCH  14  16
HETATM   16  O   UNK N   1      36.653  15.946  11.571  0.00  0.00    -0.769 OA
HETATM   17  H   UNK N   1      36.773  16.555  12.274  0.00  0.00     0.168 HD
ENDBRANCH  14  16
ENDBRANCH  11  14
ENDBRANCH   8  10
BRANCH   9  18
HETATM   18  C   UNK N   1      33.897  18.099   7.957  0.00  0.00     0.179 C 
HETATM   19  O   UNK N   1      32.783  18.437   8.321  0.00  0.00    -0.646 OA
BRANCH  18  20
HETATM   20  O   UNK N   1      34.946  18.900   8.228  0.00  0.00    -0.773 OA
HETATM   21  H   UNK N   1      35.752  18.790   7.762  0.00  0.00     0.167 HD
ENDBRANCH  18  20
ENDBRANCH   9  18
TORSDOF 5
ENDMDL
