MODEL 1
REMARK VINA RESULT:      -7.1      0.000      0.000
REMARK  3 active torsions:
REMARK  status: ('A' for Active; 'I' for Inactive)
REMARK    1  A    between atoms: C_13  and  C_10 
REMARK    2  A    between atoms: N_16  and  C_18 
REMARK    3  A    between atoms: C_18  and  C_20 
ROOT
HETATM    1  C   UNK N   1      26.512  22.392  -7.976  0.00  0.00     0.173 C 
HETATM    2  C   UNK N   1      25.593  23.620  -7.961  0.00  0.00     0.163 C 
HETATM    3  O   UNK N   1      26.881  22.082  -9.305  0.00  0.00    -0.370 OA
HETATM    4  N   UNK N   1      26.135  24.710  -8.748  0.00  0.00    -0.343 N 
HETATM    5  C   UNK N   1      27.676  23.103  -9.875  0.00  0.00     0.271 C 
HETATM    6  C   UNK N   1      27.118  24.486  -9.668  0.00  0.00     0.243 C 
HETATM    7  O   UNK N   1      27.589  25.415 -10.311  0.00  0.00    -0.271 OA
ENDROOT
BRANCH   1   8
HETATM    8  C   UNK N   1      27.687  22.489  -7.020  0.00  0.00    -0.027 A 
HETATM    9  C   UNK N   1      27.724  23.479  -6.016  0.00  0.00     0.020 A 
HETATM   10  C   UNK N   1      28.748  23.454  -5.072  0.00  0.00    -0.014 A 
HETATM   11  C   UNK N   1      29.713  22.496  -5.104  0.00  0.00     0.051 A 
HETATM   12  C   UNK N   1      28.860  24.381  -3.906  0.00  0.00     0.204 A 
HETATM   13  N   UNK N   1      30.623  22.569  -4.042  0.00  0.00    -0.279 N 
HETATM   14  C   UNK N   1      29.731  21.520  -6.107  0.00  0.00     0.031 A 
HETATM   15  S   UNK N   1      30.341  23.878  -2.881  0.00  0.00     0.236 S 
HETATM   16  C   UNK N   1      31.773  21.702  -3.952  0.00  0.00     0.169 C 
HETATM   17  O   UNK N   1      30.552  22.882  -1.727  0.00  0.00    -0.205 OA
HETATM   18  O   UNK N   1      28.947  23.418  -2.410  0.00  0.00    -0.205 OA
HETATM   19  C   UNK N   1      28.703  21.514  -7.062  0.00  0.00     0.012 A 
ENDBRANCH   1   8
BRANCH   4  20
HETATM   20  C   UNK N   1      25.646  26.047  -8.488  0.00  0.00     0.164 C 
BRANCH  20  21
HETATM   21  C   UNK N   1      26.074  26.592  -7.157  0.00  0.00    -0.040 A 
HETATM   22  C   UNK N   1      27.389  27.048  -7.012  0.00  0.00     0.009 A 
HETATM   23  C   UNK N   1      27.830  27.545  -5.783  0.00  0.00     0.001 A 
HETATM   24  C   UNK N   1      26.959  27.583  -4.691  0.00  0.00     0.000 A 
HETATM   25  C   UNK N   1      25.646  27.126  -4.828  0.00  0.00     0.001 A 
HETATM   26  C   UNK N   1      25.203  26.631  -6.057  0.00  0.00     0.009 A 
ENDBRANCH  20  21
ENDBRANCH   4  20
TORSDOF 3
ENDMDL
MODEL 2
REMARK VINA RESULT:      -6.8     12.722     15.439
REMARK  3 active torsions:
REMARK  status: ('A' for Active; 'I' for Inactive)
REMARK    1  A    between atoms: C_13  and  C_10 
REMARK    2  A    between atoms: N_16  and  C_18 
REMARK    3  A    between atoms: C_18  and  C_20 
ROOT
HETATM    1  C   UNK N   1      31.204  16.563   8.316  0.00  0.00     0.173 C 
HETATM    2  C   UNK N   1      31.708  15.529   7.301  0.00  0.00     0.163 C 
HETATM    3  O   UNK N   1      32.302  17.203   8.937  0.00  0.00    -0.370 OA
HETATM    4  N   UNK N   1      32.711  16.085   6.416  0.00  0.00    -0.343 N 
HETATM    5  C   UNK N   1      33.045  17.973   8.013  0.00  0.00     0.271 C 
HETATM    6  C   UNK N   1      33.364  17.240   6.737  0.00  0.00     0.243 C 
HETATM    7  O   UNK N   1      34.193  17.717   5.973  0.00  0.00    -0.271 OA
ENDROOT
BRANCH   1   8
HETATM    8  C   UNK N   1      30.171  17.524   7.757  0.00  0.00    -0.027 A 
HETATM    9  C   UNK N   1      29.675  17.371   6.446  0.00  0.00     0.020 A 
HETATM   10  C   UNK N   1      28.629  18.184   6.014  0.00  0.00    -0.014 A 
HETATM   11  C   UNK N   1      28.083  19.124   6.832  0.00  0.00     0.051 A 
HETATM   12  C   UNK N   1      27.949  18.072   4.689  0.00  0.00     0.204 A 
HETATM   13  N   UNK N   1      26.994  19.803   6.272  0.00  0.00    -0.279 N 
HETATM   14  C   UNK N   1      28.573  19.329   8.127  0.00  0.00     0.031 A 
HETATM   15  S   UNK N   1      26.549  19.311   4.628  0.00  0.00     0.236 S 
HETATM   16  C   UNK N   1      26.341  20.900   6.944  0.00  0.00     0.169 C 
HETATM   17  O   UNK N   1      25.071  19.273   5.054  0.00  0.00    -0.205 OA
HETATM   18  O   UNK N   1      26.202  17.845   4.955  0.00  0.00    -0.205 OA
HETATM   19  C   UNK N   1      29.617  18.514   8.592  0.00  0.00     0.012 A 
ENDBRANCH   1   8
BRANCH   4  20
HETATM   20  C   UNK N   1      32.958  15.414   5.157  0.00  0.00     0.164 C 
BRANCH  20  21
HETATM   21  C   UNK N   1      31.762  15.386   4.250  0.00  0.00    -0.040 A 
HETATM   22  C   UNK N   1      31.506  16.502   3.447  0.00  0.00     0.009 A 
HETATM   23  C   UNK N   1      30.392  16.522   2.603  0.00  0.00     0.001 A 
HETATM   24  C   UNK N   1      29.526  15.426   2.564  0.00  0.00     0.000 A 
HETATM   25  C   UNK N   1      29.773  14.310   3.367  0.00  0.00     0.001 A 
HETATM   26  C   UNK N   1      30.888  14.289   4.209  0.00  0.00     0.009 A 
ENDBRANCH  20  21
ENDBRANCH   4  20
TORSDOF 3
ENDMDL
MODEL 3
REMARK VINA RESULT:      -6.6     18.897     23.505
REMARK  3 active torsions:
REMARK  status: ('A' for Active; 'I' for Inactive)
REMARK    1  A    between atoms: C_13  and  C_10 
REMARK    2  A    between atoms: N_16  and  C_18 
REMARK    3  A    between atoms: C_18  and  C_20 
ROOT
HETATM    1  C   UNK N   1      37.297  12.945  12.233  0.00  0.00     0.173 C 
HETATM    2  C   UNK N   1      36.531  13.073  13.555  0.00  0.00     0.163 C 
HETATM    3  O   UNK N   1      37.664  11.597  12.017  0.00  0.00    -0.370 OA
HETATM    4  N   UNK N   1      35.468  12.094  13.661  0.00  0.00    -0.343 N 
HETATM    5  C   UNK N   1      36.530  10.773  11.829  0.00  0.00     0.271 C 
HETATM    6  C   UNK N   1      35.452  10.991  12.857  0.00  0.00     0.243 C 
HETATM    7  O   UNK N   1      34.538  10.180  12.934  0.00  0.00    -0.271 OA
ENDROOT
BRANCH   1   8
HETATM    8  C   UNK N   1      36.597  13.587  11.049  0.00  0.00    -0.027 A 
HETATM    9  C   UNK N   1      35.728  14.683  11.228  0.00  0.00     0.020 A 
HETATM   10  C   UNK N   1      35.211  15.333  10.110  0.00  0.00    -0.014 A 
HETATM   11  C   UNK N   1      35.526  14.927   8.850  0.00  0.00     0.051 A 
HETATM   12  C   UNK N   1      34.356  16.557  10.151  0.00  0.00     0.204 A 
HETATM   13  N   UNK N   1      34.985  15.732   7.841  0.00  0.00    -0.279 N 
HETATM   14  C   UNK N   1      36.355  13.821   8.633  0.00  0.00     0.031 A 
HETATM   15  S   UNK N   1      34.008  17.104   8.396  0.00  0.00     0.236 S 
HETATM   16  C   UNK N   1      35.124  15.412   6.441  0.00  0.00     0.169 C 
HETATM   17  O   UNK N   1      34.743  18.014   7.397  0.00  0.00    -0.205 OA
HETATM   18  O   UNK N   1      35.125  17.831   9.172  0.00  0.00    -0.205 OA
HETATM   19  C   UNK N   1      36.900  13.156   9.742  0.00  0.00     0.012 A 
ENDBRANCH   1   8
BRANCH   4  20
HETATM   20  C   UNK N   1      34.396  12.349  14.599  0.00  0.00     0.164 C 
BRANCH  20  21
HETATM   21  C   UNK N   1      34.798  12.161  16.032  0.00  0.00    -0.040 A 
HETATM   22  C   UNK N   1      35.119  10.873  16.474  0.00  0.00     0.009 A 
HETATM   23  C   UNK N   1      35.481  10.654  17.806  0.00  0.00     0.001 A 
HETATM   24  C   UNK N   1      35.517  11.724  18.704  0.00  0.00     0.000 A 
HETATM   25  C   UNK N   1      35.195  13.012  18.271  0.00  0.00     0.001 A 
HETATM   26  C   UNK N   1      34.835  13.232  16.939  0.00  0.00     0.009 A 
ENDBRANCH  20  21
ENDBRANCH   4  20
TORSDOF 3
ENDMDL
MODEL 4
REMARK VINA RESULT:      -6.3     12.484     15.951
REMARK  3 active torsions:
REMARK  status: ('A' for Active; 'I' for Inactive)
REMARK    1  A    between atoms: C_13  and  C_10 
REMARK    2  A    between atoms: N_16  and  C_18 
REMARK    3  A    between atoms: C_18  and  C_20 
ROOT
HETATM    1  C   UNK N   1      31.631  16.459   8.642  0.00  0.00     0.173 C 
HETATM    2  C   UNK N   1      32.616  15.423   8.083  0.00  0.00     0.163 C 
HETATM    3  O   UNK N   1      32.337  17.589   9.115  0.00  0.00    -0.370 OA
HETATM    4  N   UNK N   1      33.563  16.021   7.163  0.00  0.00    -0.343 N 
HETATM    5  C   UNK N   1      32.985  18.276   8.063  0.00  0.00     0.271 C 
HETATM    6  C   UNK N   1      33.760  17.372   7.141  0.00  0.00     0.243 C 
HETATM    7  O   UNK N   1      34.543  17.872   6.345  0.00  0.00    -0.271 OA
ENDROOT
BRANCH   1   8
HETATM    8  C   UNK N   1      30.492  16.799   7.699  0.00  0.00    -0.027 A 
HETATM    9  C   UNK N   1      29.644  17.896   7.954  0.00  0.00     0.020 A 
HETATM   10  C   UNK N   1      28.698  18.262   7.000  0.00  0.00    -0.014 A 
HETATM   11  C   UNK N   1      28.575  17.579   5.829  0.00  0.00     0.051 A 
HETATM   12  C   UNK N   1      27.799  19.452   7.097  0.00  0.00     0.204 A 
HETATM   13  N   UNK N   1      27.630  18.120   4.950  0.00  0.00    -0.279 N 
HETATM   14  C   UNK N   1      29.374  16.462   5.557  0.00  0.00     0.031 A 
HETATM   15  S   UNK N   1      26.790  19.571   5.527  0.00  0.00     0.236 S 
HETATM   16  C   UNK N   1      27.286  17.485   3.701  0.00  0.00     0.169 C 
HETATM   17  O   UNK N   1      27.022  20.233   4.157  0.00  0.00    -0.205 OA
HETATM   18  O   UNK N   1      28.035  20.472   5.657  0.00  0.00    -0.205 OA
HETATM   19  C   UNK N   1      30.345  16.080   6.496  0.00  0.00     0.012 A 
ENDBRANCH   1   8
BRANCH   4  20
HETATM   20  C   UNK N   1      34.248  15.152   6.229  0.00  0.00     0.164 C 
BRANCH  20  21
HETATM   21  C   UNK N   1      33.382  14.693   5.093  0.00  0.00    -0.040 A 
HETATM   22  C   UNK N   1      33.064  15.607   4.083  0.00  0.00     0.009 A 
HETATM   23  C   UNK N   1      32.245  15.224   3.018  0.00  0.00     0.001 A 
HETATM   24  C   UNK N   1      31.734  13.924   2.962  0.00  0.00     0.000 A 
HETATM   25  C   UNK N   1      32.044  13.007   3.969  0.00  0.00     0.001 A 
HETATM   26  C   UNK N   1      32.865  13.390   5.034  0.00  0.00     0.009 A 
ENDBRANCH  20  21
ENDBRANCH   4  20
TORSDOF 3
ENDMDL
MODEL 5
REMARK VINA RESULT:      -6.3      2.007      4.762
REMARK  3 active torsions:
REMARK  status: ('A' for Active; 'I' for Inactive)
REMARK    1  A    between atoms: C_13  and  C_10 
REMARK    2  A    between atoms: N_16  and  C_18 
REMARK    3  A    between atoms: C_18  and  C_20 
ROOT
HETATM    1  C   UNK N   1      27.969  24.934  -7.907  0.00  0.00     0.173 C 
HETATM    2  C   UNK N   1      27.954  23.993  -9.119  0.00  0.00     0.163 C 
HETATM    3  O   UNK N   1      26.754  25.655  -7.842  0.00  0.00    -0.370 OA
HETATM    4  N   UNK N   1      26.737  23.208  -9.178  0.00  0.00    -0.343 N 
HETATM    5  C   UNK N   1      25.655  24.802  -7.591  0.00  0.00     0.271 C 
HETATM    6  C   UNK N   1      25.632  23.578  -8.468  0.00  0.00     0.243 C 
HETATM    7  O   UNK N   1      24.615  22.897  -8.503  0.00  0.00    -0.271 OA
ENDROOT
BRANCH   1   8
HETATM    8  C   UNK N   1      28.349  24.256  -6.604  0.00  0.00    -0.027 A 
HETATM    9  C   UNK N   1      29.199  23.131  -6.594  0.00  0.00     0.020 A 
HETATM   10  C   UNK N   1      29.638  22.618  -5.375  0.00  0.00    -0.014 A 
HETATM   11  C   UNK N   1      29.257  23.181  -4.196  0.00  0.00     0.051 A 
HETATM   12  C   UNK N   1      30.608  21.493  -5.219  0.00  0.00     0.204 A 
HETATM   13  N   UNK N   1      29.845  22.594  -3.070  0.00  0.00    -0.279 N 
HETATM   14  C   UNK N   1      28.386  24.276  -4.165  0.00  0.00     0.031 A 
HETATM   15  S   UNK N   1      30.954  21.250  -3.397  0.00  0.00     0.236 S 
HETATM   16  C   UNK N   1      29.496  22.985  -1.725  0.00  0.00     0.169 C 
HETATM   17  O   UNK N   1      31.966  21.863  -2.412  0.00  0.00    -0.205 OA
HETATM   18  O   UNK N   1      31.979  22.047  -4.227  0.00  0.00    -0.205 OA
HETATM   19  C   UNK N   1      27.940  24.820  -5.379  0.00  0.00     0.012 A 
ENDBRANCH   1   8
BRANCH   4  20
HETATM   20  C   UNK N   1      26.747  21.993  -9.964  0.00  0.00     0.164 C 
BRANCH  20  21
HETATM   21  C   UNK N   1      27.801  21.013  -9.536  0.00  0.00    -0.040 A 
HETATM   22  C   UNK N   1      27.737  20.485  -8.242  0.00  0.00     0.009 A 
HETATM   23  C   UNK N   1      28.710  19.584  -7.801  0.00  0.00     0.001 A 
HETATM   24  C   UNK N   1      29.755  19.212  -8.650  0.00  0.00     0.000 A 
HETATM   25  C   UNK N   1      29.827  19.739  -9.942  0.00  0.00     0.001 A 
HETATM   26  C   UNK N   1      28.853  20.638 -10.385  0.00  0.00     0.009 A 
ENDBRANCH  20  21
ENDBRANCH   4  20
TORSDOF 3
ENDMDL
MODEL 6
REMARK VINA RESULT:      -6.3     15.827     18.863
REMARK  3 active torsions:
REMARK  status: ('A' for Active; 'I' for Inactive)
REMARK    1  A    between atoms: C_13  and  C_10 
REMARK    2  A    between atoms: N_16  and  C_18 
REMARK    3  A    between atoms: C_18  and  C_20 
ROOT
HETATM    1  C   UNK N   1      33.256  14.190   7.382  0.00  0.00     0.173 C 
HETATM    2  C   UNK N   1      32.275  15.312   7.746  0.00  0.00     0.163 C 
HETATM    3  O   UNK N   1      33.840  14.451   6.121  0.00  0.00    -0.370 OA
HETATM    4  N   UNK N   1      32.866  16.624   7.572  0.00  0.00    -0.343 N 
HETATM    5  C   UNK N   1      34.651  15.609   6.153  0.00  0.00     0.271 C 
HETATM    6  C   UNK N   1      33.989  16.789   6.814  0.00  0.00     0.243 C 
HETATM    7  O   UNK N   1      34.497  17.896   6.691  0.00  0.00    -0.271 OA
ENDROOT
BRANCH   1   8
HETATM    8  C   UNK N   1      34.265  13.874   8.471  0.00  0.00    -0.027 A 
HETATM    9  C   UNK N   1      34.252  14.573   9.695  0.00  0.00     0.020 A 
HETATM   10  C   UNK N   1      35.100  14.166  10.722  0.00  0.00    -0.014 A 
HETATM   11  C   UNK N   1      35.943  13.110  10.563  0.00  0.00     0.051 A 
HETATM   12  C   UNK N   1      35.127  14.755  12.095  0.00  0.00     0.204 A 
HETATM   13  N   UNK N   1      36.671  12.785  11.713  0.00  0.00    -0.279 N 
HETATM   14  C   UNK N   1      36.010  12.415   9.350  0.00  0.00     0.031 A 
HETATM   15  S   UNK N   1      36.357  13.800  13.132  0.00  0.00     0.236 S 
HETATM   16  C   UNK N   1      37.686  11.758  11.719  0.00  0.00     0.169 C 
HETATM   17  O   UNK N   1      36.264  12.534  14.001  0.00  0.00    -0.205 OA
HETATM   18  O   UNK N   1      34.862  13.456  13.285  0.00  0.00    -0.205 OA
HETATM   19  C   UNK N   1      35.157  12.796   8.304  0.00  0.00     0.012 A 
ENDBRANCH   1   8
BRANCH   4  20
HETATM   20  C   UNK N   1      32.266  17.740   8.271  0.00  0.00     0.164 C 
BRANCH  20  21
HETATM   21  C   UNK N   1      30.768  17.757   8.197  0.00  0.00    -0.040 A 
HETATM   22  C   UNK N   1      30.044  18.070   9.353  0.00  0.00     0.009 A 
HETATM   23  C   UNK N   1      28.647  18.078   9.329  0.00  0.00     0.001 A 
HETATM   24  C   UNK N   1      27.966  17.767   8.149  0.00  0.00     0.000 A 
HETATM   25  C   UNK N   1      28.683  17.449   6.992  0.00  0.00     0.001 A 
HETATM   26  C   UNK N   1      30.080  17.443   7.015  0.00  0.00     0.009 A 
ENDBRANCH  20  21
ENDBRANCH   4  20
TORSDOF 3
ENDMDL
MODEL 7
REMARK VINA RESULT:      -6.1     12.788     16.055
REMARK  3 active torsions:
REMARK  status: ('A' for Active; 'I' for Inactive)
REMARK    1  A    between atoms: C_13  and  C_10 
REMARK    2  A    between atoms: N_16  and  C_18 
REMARK    3  A    between atoms: C_18  and  C_20 
ROOT
HETATM    1  C   UNK N   1      31.324  16.467   8.466  0.00  0.00     0.173 C 
HETATM    2  C   UNK N   1      32.401  15.449   8.069  0.00  0.00     0.163 C 
HETATM    3  O   UNK N   1      31.927  17.598   9.063  0.00  0.00    -0.370 OA
HETATM    4  N   UNK N   1      33.482  16.067   7.327  0.00  0.00    -0.343 N 
HETATM    5  C   UNK N   1      32.734  18.304   8.141  0.00  0.00     0.271 C 
HETATM    6  C   UNK N   1      33.663  17.420   7.353  0.00  0.00     0.243 C 
HETATM    7  O   UNK N   1      34.563  17.938   6.704  0.00  0.00    -0.271 OA
ENDROOT
BRANCH   1   8
HETATM    8  C   UNK N   1      30.355  16.807   7.349  0.00  0.00    -0.027 A 
HETATM    9  C   UNK N   1      30.342  16.065   6.150  0.00  0.00     0.020 A 
HETATM   10  C   UNK N   1      29.351  16.315   5.204  0.00  0.00    -0.014 A 
HETATM   11  C   UNK N   1      28.398  17.263   5.415  0.00  0.00     0.051 A 
HETATM   12  C   UNK N   1      29.164  15.547   3.936  0.00  0.00     0.204 A 
HETATM   13  N   UNK N   1      27.434  17.336   4.403  0.00  0.00    -0.279 N 
HETATM   14  C   UNK N   1      28.400  18.044   6.576  0.00  0.00     0.031 A 
HETATM   15  S   UNK N   1      27.641  16.194   3.063  0.00  0.00     0.236 S 
HETATM   16  C   UNK N   1      26.398  18.341   4.396  0.00  0.00     0.169 C 
HETATM   17  O   UNK N   1      26.142  15.854   3.138  0.00  0.00    -0.205 OA
HETATM   18  O   UNK N   1      27.505  14.902   3.892  0.00  0.00    -0.205 OA
HETATM   19  C   UNK N   1      29.380  17.804   7.551  0.00  0.00     0.012 A 
ENDBRANCH   1   8
BRANCH   4  20
HETATM   20  C   UNK N   1      34.324  15.217   6.512  0.00  0.00     0.164 C 
BRANCH  20  21
HETATM   21  C   UNK N   1      33.671  14.777   5.234  0.00  0.00    -0.040 A 
HETATM   22  C   UNK N   1      33.570  15.696   4.184  0.00  0.00     0.009 A 
HETATM   23  C   UNK N   1      32.953  15.330   2.985  0.00  0.00     0.001 A 
HETATM   24  C   UNK N   1      32.428  14.044   2.833  0.00  0.00     0.000 A 
HETATM   25  C   UNK N   1      32.522  13.123   3.879  0.00  0.00     0.001 A 
HETATM   26  C   UNK N   1      33.141  13.487   5.078  0.00  0.00     0.009 A 
ENDBRANCH  20  21
ENDBRANCH   4  20
TORSDOF 3
ENDMDL
MODEL 8
REMARK VINA RESULT:      -6.1      3.385      5.657
REMARK  3 active torsions:
REMARK  status: ('A' for Active; 'I' for Inactive)
REMARK    1  A    between atoms: C_13  and  C_10 
REMARK    2  A    between atoms: N_16  and  C_18 
REMARK    3  A    between atoms: C_18  and  C_20 
ROOT
HETATM    1  C   UNK N   1      27.681  26.498  -7.769  0.00  0.00     0.173 C 
HETATM    2  C   UNK N   1      28.156  25.040  -7.716  0.00  0.00     0.163 C 
HETATM    3  O   UNK N   1      26.289  26.543  -8.016  0.00  0.00    -0.370 OA
HETATM    4  N   UNK N   1      27.323  24.232  -6.848  0.00  0.00    -0.343 N 
HETATM    5  C   UNK N   1      25.553  25.989  -6.944  0.00  0.00     0.271 C 
HETATM    6  C   UNK N   1      26.082  24.659  -6.475  0.00  0.00     0.243 C 
HETATM    7  O   UNK N   1      25.394  23.983  -5.721  0.00  0.00    -0.271 OA
ENDROOT
BRANCH   1   8
HETATM    8  C   UNK N   1      28.120  27.334  -6.580  0.00  0.00    -0.027 A 
HETATM    9  C   UNK N   1      27.386  28.471  -6.184  0.00  0.00     0.020 A 
HETATM   10  C   UNK N   1      27.736  29.133  -5.010  0.00  0.00    -0.014 A 
HETATM   11  C   UNK N   1      28.775  28.704  -4.242  0.00  0.00     0.051 A 
HETATM   12  C   UNK N   1      26.994  30.290  -4.425  0.00  0.00     0.204 A 
HETATM   13  N   UNK N   1      28.946  29.433  -3.059  0.00  0.00    -0.279 N 
HETATM   14  C   UNK N   1      29.549  27.602  -4.622  0.00  0.00     0.031 A 
HETATM   15  S   UNK N   1      27.792  30.754  -2.798  0.00  0.00     0.236 S 
HETATM   16  C   UNK N   1      30.050  29.195  -2.160  0.00  0.00     0.169 C 
HETATM   17  O   UNK N   1      27.604  30.284  -1.345  0.00  0.00    -0.205 OA
HETATM   18  O   UNK N   1      26.518  29.887  -2.757  0.00  0.00    -0.205 OA
HETATM   19  C   UNK N   1      29.209  26.909  -5.794  0.00  0.00     0.012 A 
ENDBRANCH   1   8
BRANCH   4  20
HETATM   20  C   UNK N   1      27.869  22.991  -6.341  0.00  0.00     0.164 C 
BRANCH  20  21
HETATM   21  C   UNK N   1      28.935  23.186  -5.303  0.00  0.00    -0.040 A 
HETATM   22  C   UNK N   1      28.570  23.712  -4.059  0.00  0.00     0.009 A 
HETATM   23  C   UNK N   1      29.536  23.925  -3.073  0.00  0.00     0.001 A 
HETATM   24  C   UNK N   1      30.875  23.619  -3.329  0.00  0.00     0.000 A 
HETATM   25  C   UNK N   1      31.248  23.098  -4.571  0.00  0.00     0.001 A 
HETATM   26  C   UNK N   1      30.282  22.882  -5.557  0.00  0.00     0.009 A 
ENDBRANCH  20  21
ENDBRANCH   4  20
TORSDOF 3
ENDMDL
MODEL 9
REMARK VINA RESULT:      -6.0     16.731     21.499
REMARK  3 active torsions:
REMARK  status: ('A' for Active; 'I' for Inactive)
REMARK    1  A    between atoms: C_13  and  C_10 
REMARK    2  A    between atoms: N_16  and  C_18 
REMARK    3  A    between atoms: C_18  and  C_20 
ROOT
HETATM    1  C   UNK N   1      35.067  15.364  11.391  0.00  0.00     0.173 C 
HETATM    2  C   UNK N   1      34.933  14.006  12.091  0.00  0.00     0.163 C 
HETATM    3  O   UNK N   1      36.434  15.690  11.230  0.00  0.00    -0.370 OA
HETATM    4  N   UNK N   1      35.765  12.994  11.472  0.00  0.00    -0.343 N 
HETATM    5  C   UNK N   1      37.082  14.793  10.350  0.00  0.00     0.271 C 
HETATM    6  C   UNK N   1      36.796  13.345  10.648  0.00  0.00     0.243 C 
HETATM    7  O   UNK N   1      37.480  12.485  10.109  0.00  0.00    -0.271 OA
ENDROOT
BRANCH   1   8
HETATM    8  C   UNK N   1      34.254  15.484  10.115  0.00  0.00    -0.027 A 
HETATM    9  C   UNK N   1      34.269  16.671   9.355  0.00  0.00     0.020 A 
HETATM   10  C   UNK N   1      33.623  16.700   8.121  0.00  0.00    -0.014 A 
HETATM   11  C   UNK N   1      32.976  15.604   7.639  0.00  0.00     0.051 A 
HETATM   12  C   UNK N   1      33.634  17.856   7.175  0.00  0.00     0.204 A 
HETATM   13  N   UNK N   1      32.445  15.776   6.355  0.00  0.00    -0.279 N 
HETATM   14  C   UNK N   1      32.909  14.419   8.381  0.00  0.00     0.031 A 
HETATM   15  S   UNK N   1      32.717  17.366   5.620  0.00  0.00     0.236 S 
HETATM   16  C   UNK N   1      31.642  14.764   5.711  0.00  0.00     0.169 C 
HETATM   17  O   UNK N   1      33.132  16.675   4.309  0.00  0.00    -0.205 OA
HETATM   18  O   UNK N   1      34.257  17.306   5.600  0.00  0.00    -0.205 OA
HETATM   19  C   UNK N   1      33.562  14.360   9.621  0.00  0.00     0.012 A 
ENDBRANCH   1   8
BRANCH   4  20
HETATM   20  C   UNK N   1      35.437  11.604  11.705  0.00  0.00     0.164 C 
BRANCH  20  21
HETATM   21  C   UNK N   1      35.293  11.259  13.158  0.00  0.00    -0.040 A 
HETATM   22  C   UNK N   1      34.033  10.880  13.634  0.00  0.00     0.009 A 
HETATM   23  C   UNK N   1      33.855  10.568  14.985  0.00  0.00     0.001 A 
HETATM   24  C   UNK N   1      34.936  10.641  15.867  0.00  0.00     0.000 A 
HETATM   25  C   UNK N   1      36.196  11.023  15.400  0.00  0.00     0.001 A 
HETATM   26  C   UNK N   1      36.375  11.332  14.049  0.00  0.00     0.009 A 
ENDBRANCH  20  21
ENDBRANCH   4  20
TORSDOF 3
ENDMDL
