MODEL 1
REMARK VINA RESULT:      -7.5      0.000      0.000
REMARK  6 active torsions:
REMARK  status: ('A' for Active; 'I' for Inactive)
REMARK    1  A    between atoms: C_1  and  C_7 
REMARK    2  A    between atoms: C_7  and  N_8 
REMARK    3  A    between atoms: C_12  and  C_13 
REMARK    4  A    between atoms: C_17  and  O_18 
REMARK    5  A    between atoms: O_18  and  C_23 
REMARK    6  A    between atoms: C_19  and  O_20 
ROOT
HETATM    1  C   UNK N   1      33.092  16.659   4.818  0.00  0.00     0.008 A 
HETATM    2  C   UNK N   1      32.392  17.505   5.722  0.00  0.00     0.017 A 
HETATM    3  C   UNK N   1      32.670  17.466   7.109  0.00  0.00     0.031 A 
HETATM    4  C   UNK N   1      33.640  16.568   7.547  0.00  0.00     0.043 A 
HETATM    5  C   UNK N   1      34.309  15.767   6.671  0.00  0.00    -0.006 A 
HETATM    6  C   UNK N   1      34.073  15.784   5.309  0.00  0.00     0.029 A 
HETATM    7  N   UNK N   1      34.028  16.317   8.815  0.00  0.00    -0.355 N 
HETATM    8  C   UNK N   1      35.149  14.972   7.375  0.00  0.00     0.044 A 
HETATM    9  C   UNK N   1      34.950  15.324   8.708  0.00  0.00     0.046 A 
HETATM   10  H   UNK N   1      33.712  16.756   9.638  0.00  0.00     0.166 HD
ENDROOT
BRANCH   9  11
HETATM   11  C   UNK N   1      35.594  14.627   9.853  0.00  0.00     0.027 A 
HETATM   12  C   UNK N   1      36.934  14.236   9.772  0.00  0.00     0.017 A 
HETATM   13  C   UNK N   1      37.551  13.609  10.857  0.00  0.00     0.004 A 
HETATM   14  C   UNK N   1      36.838  13.379  12.035  0.00  0.00     0.040 A 
HETATM   15  C   UNK N   1      35.496  13.761  12.154  0.00  0.00     0.103 A 
HETATM   16  C   UNK N   1      34.872  14.389  11.048  0.00  0.00     0.111 A 
BRANCH  15  17
HETATM   17  O   UNK N   1      34.868  13.503  13.343  0.00  0.00    -0.343 OA
BRANCH  17  18
HETATM   18  C   UNK N   1      35.172  12.578  14.337  0.00  0.00     0.129 C 
HETATM   19  C   UNK N   1      34.363  11.297  14.246  0.00  0.00     0.032 C 
HETATM   20  C   UNK N   1      34.187  10.821  15.681  0.00  0.00     0.002 C 
HETATM   21  C   UNK N   1      34.837  11.859  16.589  0.00  0.00     0.002 C 
HETATM   22  C   UNK N   1      35.040  13.106  15.749  0.00  0.00     0.032 C 
ENDBRANCH  17  18
ENDBRANCH  15  17
BRANCH  16  23
HETATM   23  O   UNK N   1      33.595  14.783  11.129  0.00  0.00    -0.357 OA
ATOM     24  HO  UNK N   1      33.327  15.338  11.851  1.00  0.00     0.217 HD
ENDBRANCH  16  23
ENDBRANCH   9  11
BRANCH   1  25
HETATM   25  C   UNK N   1      32.780  16.657   3.373  0.00  0.00     0.102 C 
HETATM   26  N   UNK N   1      33.458  15.926   2.565  0.00  0.00    -0.385 N 
HETATM   27  H   UNK N   1      33.352  16.031   1.592  0.00  0.00     0.157 HD
HETATM   28  H   UNK N   1      34.088  15.258   2.920  0.00  0.00     0.157 HD
BRANCH  25  29
HETATM   29  N   UNK N   1      31.692  17.410   2.878  0.00  0.00    -0.385 N 
HETATM   30  H   UNK N   1      31.292  17.213   2.001  0.00  0.00     0.157 HD
HETATM   31  H   UNK N   1      31.327  18.145   3.421  0.00  0.00     0.157 HD
ENDBRANCH  25  29
ENDBRANCH   1  25
TORSDOF 6
ENDMDL
MODEL 2
REMARK VINA RESULT:      -7.4      3.483      9.041
REMARK  6 active torsions:
REMARK  status: ('A' for Active; 'I' for Inactive)
REMARK    1  A    between atoms: C_1  and  C_7 
REMARK    2  A    between atoms: C_7  and  N_8 
REMARK    3  A    between atoms: C_12  and  C_13 
REMARK    4  A    between atoms: C_17  and  O_18 
REMARK    5  A    between atoms: O_18  and  C_23 
REMARK    6  A    between atoms: C_19  and  O_20 
ROOT
HETATM    1  C   UNK N   1      35.673  12.739  15.724  0.00  0.00     0.008 A 
HETATM    2  C   UNK N   1      36.570  13.830  15.885  0.00  0.00     0.017 A 
HETATM    3  C   UNK N   1      36.842  14.705  14.806  0.00  0.00     0.031 A 
HETATM    4  C   UNK N   1      36.208  14.449  13.593  0.00  0.00     0.043 A 
HETATM    5  C   UNK N   1      35.345  13.405  13.453  0.00  0.00    -0.006 A 
HETATM    6  C   UNK N   1      35.046  12.535  14.485  0.00  0.00     0.029 A 
HETATM    7  N   UNK N   1      36.356  15.106  12.423  0.00  0.00    -0.355 N 
HETATM    8  C   UNK N   1      34.920  13.370  12.168  0.00  0.00     0.044 A 
HETATM    9  C   UNK N   1      35.569  14.432  11.543  0.00  0.00     0.046 A 
HETATM   10  H   UNK N   1      36.912  15.899  12.246  0.00  0.00     0.166 HD
ENDROOT
BRANCH   9  11
HETATM   11  C   UNK N   1      35.482  14.713  10.085  0.00  0.00     0.027 A 
HETATM   12  C   UNK N   1      35.785  13.709   9.159  0.00  0.00     0.017 A 
HETATM   13  C   UNK N   1      35.673  13.960   7.789  0.00  0.00     0.004 A 
HETATM   14  C   UNK N   1      35.245  15.209   7.334  0.00  0.00     0.040 A 
HETATM   15  C   UNK N   1      34.928  16.235   8.233  0.00  0.00     0.103 A 
HETATM   16  C   UNK N   1      35.052  15.980   9.620  0.00  0.00     0.111 A 
BRANCH  15  17
HETATM   17  O   UNK N   1      34.514  17.430   7.708  0.00  0.00    -0.343 OA
BRANCH  17  18
HETATM   18  C   UNK N   1      33.344  17.756   7.028  0.00  0.00     0.129 C 
HETATM   19  C   UNK N   1      32.105  17.088   7.594  0.00  0.00     0.032 C 
HETATM   20  C   UNK N   1      31.183  16.862   6.405  0.00  0.00     0.002 C 
HETATM   21  C   UNK N   1      31.920  17.340   5.159  0.00  0.00     0.002 C 
HETATM   22  C   UNK N   1      33.381  17.475   5.542  0.00  0.00     0.032 C 
ENDBRANCH  17  18
ENDBRANCH  15  17
BRANCH  16  23
HETATM   23  O   UNK N   1      34.743  16.930  10.511  0.00  0.00    -0.357 OA
ATOM     24  HO  UNK N   1      34.136  16.727  11.214  1.00  0.00     0.217 HD
ENDBRANCH  16  23
ENDBRANCH   9  11
BRANCH   1  25
HETATM   25  C   UNK N   1      35.415  11.791  16.829  0.00  0.00     0.102 C 
HETATM   26  N   UNK N   1      35.238  12.224  18.025  0.00  0.00    -0.385 N 
HETATM   27  H   UNK N   1      35.212  11.594  18.782  0.00  0.00     0.157 HD
HETATM   28  H   UNK N   1      35.128  13.189  18.186  0.00  0.00     0.157 HD
BRANCH  25  29
HETATM   29  N   UNK N   1      35.297  10.408  16.569  0.00  0.00    -0.385 N 
HETATM   30  H   UNK N   1      36.086   9.819  16.571  0.00  0.00     0.157 HD
HETATM   31  H   UNK N   1      34.410  10.026  16.382  0.00  0.00     0.157 HD
ENDBRANCH  25  29
ENDBRANCH   1  25
TORSDOF 6
ENDMDL
MODEL 3
REMARK VINA RESULT:      -7.2      2.930      4.022
REMARK  6 active torsions:
REMARK  status: ('A' for Active; 'I' for Inactive)
REMARK    1  A    between atoms: C_1  and  C_7 
REMARK    2  A    between atoms: C_7  and  N_8 
REMARK    3  A    between atoms: C_12  and  C_13 
REMARK    4  A    between atoms: C_17  and  O_18 
REMARK    5  A    between atoms: O_18  and  C_23 
REMARK    6  A    between atoms: C_19  and  O_20 
ROOT
HETATM    1  C   UNK N   1      28.334  18.395   6.825  0.00  0.00     0.008 A 
HETATM    2  C   UNK N   1      28.335  18.886   8.160  0.00  0.00     0.017 A 
HETATM    3  C   UNK N   1      29.389  18.562   9.047  0.00  0.00     0.031 A 
HETATM    4  C   UNK N   1      30.409  17.745   8.564  0.00  0.00     0.043 A 
HETATM    5  C   UNK N   1      30.400  17.286   7.282  0.00  0.00    -0.006 A 
HETATM    6  C   UNK N   1      29.394  17.589   6.383  0.00  0.00     0.029 A 
HETATM    7  N   UNK N   1      31.475  17.263   9.237  0.00  0.00    -0.355 N 
HETATM    8  C   UNK N   1      31.478  16.485   7.107  0.00  0.00     0.044 A 
HETATM    9  C   UNK N   1      32.127  16.477   8.339  0.00  0.00     0.046 A 
HETATM   10  H   UNK N   1      31.727  17.441  10.172  0.00  0.00     0.166 HD
ENDROOT
BRANCH   9  11
HETATM   11  C   UNK N   1      33.315  15.635   8.643  0.00  0.00     0.027 A 
HETATM   12  C   UNK N   1      34.390  15.591   7.750  0.00  0.00     0.017 A 
HETATM   13  C   UNK N   1      35.520  14.826   8.047  0.00  0.00     0.004 A 
HETATM   14  C   UNK N   1      35.591  14.109   9.243  0.00  0.00     0.040 A 
HETATM   15  C   UNK N   1      34.536  14.133  10.163  0.00  0.00     0.103 A 
HETATM   16  C   UNK N   1      33.388  14.903   9.854  0.00  0.00     0.111 A 
BRANCH  15  17
HETATM   17  O   UNK N   1      34.683  13.405  11.314  0.00  0.00    -0.343 OA
BRANCH  17  18
HETATM   18  C   UNK N   1      35.659  13.476  12.302  0.00  0.00     0.129 C 
HETATM   19  C   UNK N   1      35.349  12.635  13.527  0.00  0.00     0.032 C 
HETATM   20  C   UNK N   1      35.960  13.383  14.702  0.00  0.00     0.002 C 
HETATM   21  C   UNK N   1      36.561  14.674  14.159  0.00  0.00     0.002 C 
HETATM   22  C   UNK N   1      35.976  14.878  12.775  0.00  0.00     0.032 C 
ENDBRANCH  17  18
ENDBRANCH  15  17
BRANCH  16  23
HETATM   23  O   UNK N   1      32.364  14.964  10.715  0.00  0.00    -0.357 OA
ATOM     24  HO  UNK N   1      32.521  15.277  11.598  1.00  0.00     0.217 HD
ENDBRANCH  16  23
ENDBRANCH   9  11
BRANCH   1  25
HETATM   25  C   UNK N   1      27.216  18.688   5.903  0.00  0.00     0.102 C 
HETATM   26  N   UNK N   1      26.964  17.901   4.921  0.00  0.00    -0.385 N 
HETATM   27  H   UNK N   1      26.320  18.167   4.225  0.00  0.00     0.157 HD
HETATM   28  H   UNK N   1      27.417  17.029   4.862  0.00  0.00     0.157 HD
BRANCH  25  29
HETATM   29  N   UNK N   1      26.376  19.800   6.133  0.00  0.00    -0.385 N 
HETATM   30  H   UNK N   1      25.961  20.289   5.386  0.00  0.00     0.157 HD
HETATM   31  H   UNK N   1      26.202  20.092   7.057  0.00  0.00     0.157 HD
ENDBRANCH  25  29
ENDBRANCH   1  25
TORSDOF 6
ENDMDL
MODEL 4
REMARK VINA RESULT:      -7.2      3.601      9.396
REMARK  6 active torsions:
REMARK  status: ('A' for Active; 'I' for Inactive)
REMARK    1  A    between atoms: C_1  and  C_7 
REMARK    2  A    between atoms: C_7  and  N_8 
REMARK    3  A    between atoms: C_12  and  C_13 
REMARK    4  A    between atoms: C_17  and  O_18 
REMARK    5  A    between atoms: O_18  and  C_23 
REMARK    6  A    between atoms: C_19  and  O_20 
ROOT
HETATM    1  C   UNK N   1      35.110  12.559  16.838  0.00  0.00     0.008 A 
HETATM    2  C   UNK N   1      34.349  11.458  16.355  0.00  0.00     0.017 A 
HETATM    3  C   UNK N   1      34.151  11.272  14.966  0.00  0.00     0.031 A 
HETATM    4  C   UNK N   1      34.719  12.205  14.103  0.00  0.00     0.043 A 
HETATM    5  C   UNK N   1      35.451  13.252  14.577  0.00  0.00    -0.006 A 
HETATM    6  C   UNK N   1      35.675  13.463  15.925  0.00  0.00     0.029 A 
HETATM    7  N   UNK N   1      34.617  12.264  12.759  0.00  0.00    -0.355 N 
HETATM    8  C   UNK N   1      35.835  14.016  13.526  0.00  0.00     0.044 A 
HETATM    9  C   UNK N   1      35.297  13.387  12.406  0.00  0.00     0.046 A 
HETATM   10  H   UNK N   1      34.152  11.632  12.163  0.00  0.00     0.166 HD
ENDROOT
BRANCH   9  11
HETATM   11  C   UNK N   1      35.377  13.941  11.028  0.00  0.00     0.027 A 
HETATM   12  C   UNK N   1      36.509  13.703  10.241  0.00  0.00     0.017 A 
HETATM   13  C   UNK N   1      36.575  14.195   8.936  0.00  0.00     0.004 A 
HETATM   14  C   UNK N   1      35.506  14.917   8.401  0.00  0.00     0.040 A 
HETATM   15  C   UNK N   1      34.355  15.171   9.157  0.00  0.00     0.103 A 
HETATM   16  C   UNK N   1      34.297  14.678  10.483  0.00  0.00     0.111 A 
BRANCH  15  17
HETATM   17  O   UNK N   1      33.351  15.885   8.560  0.00  0.00    -0.343 OA
BRANCH  17  18
HETATM   18  C   UNK N   1      32.910  15.883   7.240  0.00  0.00     0.129 C 
HETATM   19  C   UNK N   1      32.750  17.271   6.649  0.00  0.00     0.032 C 
HETATM   20  C   UNK N   1      31.599  17.166   5.661  0.00  0.00     0.002 C 
HETATM   21  C   UNK N   1      31.064  15.740   5.734  0.00  0.00     0.002 C 
HETATM   22  C   UNK N   1      31.616  15.133   7.010  0.00  0.00     0.032 C 
ENDBRANCH  17  18
ENDBRANCH  15  17
BRANCH  16  23
HETATM   23  O   UNK N   1      33.207  14.886  11.233  0.00  0.00    -0.357 OA
ATOM     24  HO  UNK N   1      33.244  14.703  12.164  1.00  0.00     0.217 HD
ENDBRANCH  16  23
ENDBRANCH   9  11
BRANCH   1  25
HETATM   25  C   UNK N   1      35.285  12.791  18.287  0.00  0.00     0.102 C 
HETATM   26  N   UNK N   1      35.283  13.986  18.756  0.00  0.00    -0.385 N 
HETATM   27  H   UNK N   1      35.544  14.153  19.691  0.00  0.00     0.157 HD
HETATM   28  H   UNK N   1      35.020  14.739  18.179  0.00  0.00     0.157 HD
BRANCH  25  29
HETATM   29  N   UNK N   1      35.392  11.698  19.176  0.00  0.00    -0.385 N 
HETATM   30  H   UNK N   1      34.620  11.393  19.705  0.00  0.00     0.157 HD
HETATM   31  H   UNK N   1      36.255  11.234  19.268  0.00  0.00     0.157 HD
ENDBRANCH  25  29
ENDBRANCH   1  25
TORSDOF 6
ENDMDL
MODEL 5
REMARK VINA RESULT:      -7.2      1.613      1.994
REMARK  6 active torsions:
REMARK  status: ('A' for Active; 'I' for Inactive)
REMARK    1  A    between atoms: C_1  and  C_7 
REMARK    2  A    between atoms: C_7  and  N_8 
REMARK    3  A    between atoms: C_12  and  C_13 
REMARK    4  A    between atoms: C_17  and  O_18 
REMARK    5  A    between atoms: O_18  and  C_23 
REMARK    6  A    between atoms: C_19  and  O_20 
ROOT
HETATM    1  C   UNK N   1      30.397  16.878   5.547  0.00  0.00     0.008 A 
HETATM    2  C   UNK N   1      29.875  17.564   6.678  0.00  0.00     0.017 A 
HETATM    3  C   UNK N   1      30.552  17.526   7.920  0.00  0.00     0.031 A 
HETATM    4  C   UNK N   1      31.731  16.790   7.990  0.00  0.00     0.043 A 
HETATM    5  C   UNK N   1      32.225  16.142   6.898  0.00  0.00    -0.006 A 
HETATM    6  C   UNK N   1      31.600  16.163   5.665  0.00  0.00     0.029 A 
HETATM    7  N   UNK N   1      32.508  16.565   9.070  0.00  0.00    -0.355 N 
HETATM    8  C   UNK N   1      33.345  15.475   7.267  0.00  0.00     0.044 A 
HETATM    9  C   UNK N   1      33.497  15.745   8.625  0.00  0.00     0.046 A 
HETATM   10  H   UNK N   1      32.387  16.917   9.982  0.00  0.00     0.166 HD
ENDROOT
BRANCH   9  11
HETATM   11  C   UNK N   1      34.546  15.127   9.478  0.00  0.00     0.027 A 
HETATM   12  C   UNK N   1      35.840  14.947   8.978  0.00  0.00     0.017 A 
HETATM   13  C   UNK N   1      36.836  14.396   9.788  0.00  0.00     0.004 A 
HETATM   14  C   UNK N   1      36.552  14.034  11.106  0.00  0.00     0.040 A 
HETATM   15  C   UNK N   1      35.270  14.205  11.642  0.00  0.00     0.103 A 
HETATM   16  C   UNK N   1      34.261  14.755  10.815  0.00  0.00     0.111 A 
BRANCH  15  17
HETATM   17  O   UNK N   1      35.072  13.827  12.943  0.00  0.00    -0.343 OA
BRANCH  17  18
HETATM   18  C   UNK N   1      35.145  12.569  13.534  0.00  0.00     0.129 C 
HETATM   19  C   UNK N   1      34.489  11.472  12.716  0.00  0.00     0.032 C 
HETATM   20  C   UNK N   1      33.945  10.476  13.728  0.00  0.00     0.002 C 
HETATM   21  C   UNK N   1      34.233  11.033  15.118  0.00  0.00     0.002 C 
HETATM   22  C   UNK N   1      34.578  12.499  14.936  0.00  0.00     0.032 C 
ENDBRANCH  17  18
ENDBRANCH  15  17
BRANCH  16  23
HETATM   23  O   UNK N   1      33.026  14.949  11.295  0.00  0.00    -0.357 OA
ATOM     24  HO  UNK N   1      32.372  15.357  10.740  1.00  0.00     0.217 HD
ENDBRANCH  16  23
ENDBRANCH   9  11
BRANCH   1  25
HETATM   25  C   UNK N   1      29.677  16.872   4.256  0.00  0.00     0.102 C 
HETATM   26  N   UNK N   1      30.330  16.861   3.151  0.00  0.00    -0.385 N 
HETATM   27  H   UNK N   1      29.862  17.004   2.296  0.00  0.00     0.157 HD
HETATM   28  H   UNK N   1      31.303  16.710   3.157  0.00  0.00     0.157 HD
BRANCH  25  29
HETATM   29  N   UNK N   1      28.266  16.813   4.227  0.00  0.00    -0.385 N 
HETATM   30  H   UNK N   1      27.788  15.962   4.358  0.00  0.00     0.157 HD
HETATM   31  H   UNK N   1      27.752  17.638   4.074  0.00  0.00     0.157 HD
ENDBRANCH  25  29
ENDBRANCH   1  25
TORSDOF 6
ENDMDL
MODEL 6
REMARK VINA RESULT:      -7.2      3.714      8.864
REMARK  6 active torsions:
REMARK  status: ('A' for Active; 'I' for Inactive)
REMARK    1  A    between atoms: C_1  and  C_7 
REMARK    2  A    between atoms: C_7  and  N_8 
REMARK    3  A    between atoms: C_12  and  C_13 
REMARK    4  A    between atoms: C_17  and  O_18 
REMARK    5  A    between atoms: O_18  and  C_23 
REMARK    6  A    between atoms: C_19  and  O_20 
ROOT
HETATM    1  C   UNK N   1      36.512  14.709  10.481  0.00  0.00     0.008 A 
HETATM    2  C   UNK N   1      36.090  15.828  11.251  0.00  0.00     0.017 A 
HETATM    3  C   UNK N   1      35.072  16.688  10.775  0.00  0.00     0.031 A 
HETATM    4  C   UNK N   1      34.514  16.400   9.532  0.00  0.00     0.043 A 
HETATM    5  C   UNK N   1      34.921  15.322   8.807  0.00  0.00    -0.006 A 
HETATM    6  C   UNK N   1      35.905  14.453   9.241  0.00  0.00     0.029 A 
HETATM    7  N   UNK N   1      33.580  17.104   8.857  0.00  0.00    -0.355 N 
HETATM    8  C   UNK N   1      34.248  15.317   7.632  0.00  0.00     0.044 A 
HETATM    9  C   UNK N   1      33.426  16.440   7.681  0.00  0.00     0.046 A 
HETATM   10  H   UNK N   1      33.113  17.919   9.152  0.00  0.00     0.166 HD
ENDROOT
BRANCH   9  11
HETATM   11  C   UNK N   1      32.576  16.894   6.548  0.00  0.00     0.027 A 
HETATM   12  C   UNK N   1      33.169  17.347   5.365  0.00  0.00     0.017 A 
HETATM   13  C   UNK N   1      32.375  17.744   4.287  0.00  0.00     0.004 A 
HETATM   14  C   UNK N   1      30.982  17.679   4.377  0.00  0.00     0.040 A 
HETATM   15  C   UNK N   1      30.354  17.226   5.544  0.00  0.00     0.103 A 
HETATM   16  C   UNK N   1      31.164  16.833   6.637  0.00  0.00     0.111 A 
BRANCH  15  17
HETATM   17  O   UNK N   1      28.986  17.190   5.552  0.00  0.00    -0.343 OA
BRANCH  17  18
HETATM   18  C   UNK N   1      28.061  18.211   5.748  0.00  0.00     0.129 C 
HETATM   19  C   UNK N   1      28.034  19.233   4.626  0.00  0.00     0.032 C 
HETATM   20  C   UNK N   1      27.675  20.556   5.286  0.00  0.00     0.002 C 
HETATM   21  C   UNK N   1      27.561  20.302   6.785  0.00  0.00     0.002 C 
HETATM   22  C   UNK N   1      28.221  18.963   7.051  0.00  0.00     0.032 C 
ENDBRANCH  17  18
ENDBRANCH  15  17
BRANCH  16  23
HETATM   23  O   UNK N   1      30.601  16.379   7.764  0.00  0.00    -0.357 OA
ATOM     24  HO  UNK N   1      29.887  16.868   8.155  1.00  0.00     0.217 HD
ENDBRANCH  16  23
ENDBRANCH   9  11
BRANCH   1  25
HETATM   25  C   UNK N   1      37.606  13.830  10.945  0.00  0.00     0.102 C 
HETATM   26  N   UNK N   1      37.480  13.159  12.033  0.00  0.00    -0.385 N 
HETATM   27  H   UNK N   1      38.255  12.690  12.419  0.00  0.00     0.157 HD
HETATM   28  H   UNK N   1      36.606  13.115  12.483  0.00  0.00     0.157 HD
BRANCH  25  29
HETATM   29  N   UNK N   1      38.772  13.670  10.164  0.00  0.00    -0.385 N 
HETATM   30  H   UNK N   1      38.854  14.090   9.278  0.00  0.00     0.157 HD
HETATM   31  H   UNK N   1      39.516  13.128  10.513  0.00  0.00     0.157 HD
ENDBRANCH  25  29
ENDBRANCH   1  25
TORSDOF 6
ENDMDL
MODEL 7
REMARK VINA RESULT:      -7.1      3.977      9.709
REMARK  6 active torsions:
REMARK  status: ('A' for Active; 'I' for Inactive)
REMARK    1  A    between atoms: C_1  and  C_7 
REMARK    2  A    between atoms: C_7  and  N_8 
REMARK    3  A    between atoms: C_12  and  C_13 
REMARK    4  A    between atoms: C_17  and  O_18 
REMARK    5  A    between atoms: O_18  and  C_23 
REMARK    6  A    between atoms: C_19  and  O_20 
ROOT
HETATM    1  C   UNK N   1      35.252  11.143  17.520  0.00  0.00     0.008 A 
HETATM    2  C   UNK N   1      35.193  12.525  17.851  0.00  0.00     0.017 A 
HETATM    3  C   UNK N   1      35.299  13.513  16.844  0.00  0.00     0.031 A 
HETATM    4  C   UNK N   1      35.470  13.080  15.532  0.00  0.00     0.043 A 
HETATM    5  C   UNK N   1      35.517  11.754  15.225  0.00  0.00    -0.006 A 
HETATM    6  C   UNK N   1      35.408  10.759  16.179  0.00  0.00     0.029 A 
HETATM    7  N   UNK N   1      35.649  13.832  14.425  0.00  0.00    -0.355 N 
HETATM    8  C   UNK N   1      35.736  11.630  13.894  0.00  0.00     0.044 A 
HETATM    9  C   UNK N   1      35.825  12.936  13.419  0.00  0.00     0.046 A 
HETATM   10  H   UNK N   1      35.653  14.815  14.361  0.00  0.00     0.166 HD
ENDROOT
BRANCH   9  11
HETATM   11  C   UNK N   1      36.168  13.283  12.014  0.00  0.00     0.027 A 
HETATM   12  C   UNK N   1      37.419  12.936  11.492  0.00  0.00     0.017 A 
HETATM   13  C   UNK N   1      37.733  13.232  10.163  0.00  0.00     0.004 A 
HETATM   14  C   UNK N   1      36.796  13.865   9.343  0.00  0.00     0.040 A 
HETATM   15  C   UNK N   1      35.533  14.222   9.830  0.00  0.00     0.103 A 
HETATM   16  C   UNK N   1      35.222  13.928  11.180  0.00  0.00     0.111 A 
BRANCH  15  17
HETATM   17  O   UNK N   1      34.671  14.837   8.962  0.00  0.00    -0.343 OA
BRANCH  17  18
HETATM   18  C   UNK N   1      34.787  16.049   8.288  0.00  0.00     0.129 C 
HETATM   19  C   UNK N   1      34.250  17.234   9.068  0.00  0.00     0.032 C 
HETATM   20  C   UNK N   1      33.712  18.201   8.024  0.00  0.00     0.002 C 
HETATM   21  C   UNK N   1      33.883  17.542   6.660  0.00  0.00     0.002 C 
HETATM   22  C   UNK N   1      34.146  16.071   6.917  0.00  0.00     0.032 C 
ENDBRANCH  17  18
ENDBRANCH  15  17
BRANCH  16  23
HETATM   23  O   UNK N   1      34.019  14.239  11.678  0.00  0.00    -0.357 OA
ATOM     24  HO  UNK N   1      33.240  13.996  11.193  1.00  0.00     0.217 HD
ENDBRANCH  16  23
ENDBRANCH   9  11
BRANCH   1  25
HETATM   25  C   UNK N   1      35.188  10.101  18.567  0.00  0.00     0.102 C 
HETATM   26  N   UNK N   1      34.286   9.189  18.520  0.00  0.00    -0.385 N 
HETATM   27  H   UNK N   1      34.149   8.586  19.285  0.00  0.00     0.157 HD
HETATM   28  H   UNK N   1      33.727   9.094  17.714  0.00  0.00     0.157 HD
BRANCH  25  29
HETATM   29  N   UNK N   1      36.159  10.062  19.592  0.00  0.00    -0.385 N 
HETATM   30  H   UNK N   1      36.191  10.754  20.292  0.00  0.00     0.157 HD
HETATM   31  H   UNK N   1      36.816   9.329  19.608  0.00  0.00     0.157 HD
ENDBRANCH  25  29
ENDBRANCH   1  25
TORSDOF 6
ENDMDL
MODEL 8
REMARK VINA RESULT:      -7.0      7.817     12.488
REMARK  6 active torsions:
REMARK  status: ('A' for Active; 'I' for Inactive)
REMARK    1  A    between atoms: C_1  and  C_7 
REMARK    2  A    between atoms: C_7  and  N_8 
REMARK    3  A    between atoms: C_12  and  C_13 
REMARK    4  A    between atoms: C_17  and  O_18 
REMARK    5  A    between atoms: O_18  and  C_23 
REMARK    6  A    between atoms: C_19  and  O_20 
ROOT
HETATM    1  C   UNK N   1      30.991  17.044   7.599  0.00  0.00     0.008 A 
HETATM    2  C   UNK N   1      30.290  17.567   8.720  0.00  0.00     0.017 A 
HETATM    3  C   UNK N   1      29.029  18.188   8.556  0.00  0.00     0.031 A 
HETATM    4  C   UNK N   1      28.514  18.270   7.266  0.00  0.00     0.043 A 
HETATM    5  C   UNK N   1      29.191  17.759   6.200  0.00  0.00    -0.006 A 
HETATM    6  C   UNK N   1      30.420  17.137   6.321  0.00  0.00     0.029 A 
HETATM    7  N   UNK N   1      27.369  18.862   6.863  0.00  0.00    -0.355 N 
HETATM    8  C   UNK N   1      28.483  18.022   5.076  0.00  0.00     0.044 A 
HETATM    9  C   UNK N   1      27.358  18.717   5.512  0.00  0.00     0.046 A 
HETATM   10  H   UNK N   1      26.691  19.302   7.425  0.00  0.00     0.166 HD
ENDROOT
BRANCH   9  11
HETATM   11  C   UNK N   1      26.343  19.304   4.597  0.00  0.00     0.027 A 
HETATM   12  C   UNK N   1      26.741  20.164   3.568  0.00  0.00     0.017 A 
HETATM   13  C   UNK N   1      25.794  20.693   2.687  0.00  0.00     0.004 A 
HETATM   14  C   UNK N   1      24.445  20.356   2.819  0.00  0.00     0.040 A 
HETATM   15  C   UNK N   1      24.011  19.495   3.834  0.00  0.00     0.103 A 
HETATM   16  C   UNK N   1      24.973  18.969   4.730  0.00  0.00     0.111 A 
BRANCH  15  17
HETATM   17  O   UNK N   1      22.673  19.213   3.894  0.00  0.00    -0.343 OA
BRANCH  17  18
HETATM   18  C   UNK N   1      21.911  18.309   3.160  0.00  0.00     0.129 C 
HETATM   19  C   UNK N   1      20.500  18.789   2.876  0.00  0.00     0.032 C 
HETATM   20  C   UNK N   1      19.639  17.536   2.844  0.00  0.00     0.002 C 
HETATM   21  C   UNK N   1      20.543  16.353   3.171  0.00  0.00     0.002 C 
HETATM   22  C   UNK N   1      21.812  16.927   3.770  0.00  0.00     0.032 C 
ENDBRANCH  17  18
ENDBRANCH  15  17
BRANCH  16  23
HETATM   23  O   UNK N   1      24.600  18.129   5.704  0.00  0.00    -0.357 OA
ATOM     24  HO  UNK N   1      24.383  17.231   5.483  1.00  0.00     0.217 HD
ENDBRANCH  16  23
ENDBRANCH   9  11
BRANCH   1  25
HETATM   25  C   UNK N   1      32.330  16.434   7.750  0.00  0.00     0.102 C 
HETATM   26  N   UNK N   1      33.049  16.186   6.716  0.00  0.00    -0.385 N 
HETATM   27  H   UNK N   1      33.871  15.652   6.800  0.00  0.00     0.157 HD
HETATM   28  H   UNK N   1      32.776  16.531   5.835  0.00  0.00     0.157 HD
BRANCH  25  29
HETATM   29  N   UNK N   1      32.856  16.180   9.036  0.00  0.00    -0.385 N 
HETATM   30  H   UNK N   1      32.278  16.182   9.834  0.00  0.00     0.157 HD
HETATM   31  H   UNK N   1      33.818  15.997   9.137  0.00  0.00     0.157 HD
ENDBRANCH  25  29
ENDBRANCH   1  25
TORSDOF 6
ENDMDL
MODEL 9
REMARK VINA RESULT:      -7.0     10.669     13.473
REMARK  6 active torsions:
REMARK  status: ('A' for Active; 'I' for Inactive)
REMARK    1  A    between atoms: C_1  and  C_7 
REMARK    2  A    between atoms: C_7  and  N_8 
REMARK    3  A    between atoms: C_12  and  C_13 
REMARK    4  A    between atoms: C_17  and  O_18 
REMARK    5  A    between atoms: O_18  and  C_23 
REMARK    6  A    between atoms: C_19  and  O_20 
ROOT
HETATM    1  C   UNK N   1      21.844  13.072   9.963  0.00  0.00     0.008 A 
HETATM    2  C   UNK N   1      20.912  14.128   9.766  0.00  0.00     0.017 A 
HETATM    3  C   UNK N   1      21.029  14.994   8.653  0.00  0.00     0.031 A 
HETATM    4  C   UNK N   1      22.086  14.776   7.774  0.00  0.00     0.043 A 
HETATM    5  C   UNK N   1      22.969  13.757   7.969  0.00  0.00    -0.006 A 
HETATM    6  C   UNK N   1      22.883  12.884   9.038  0.00  0.00     0.029 A 
HETATM    7  N   UNK N   1      22.427  15.501   6.688  0.00  0.00    -0.355 N 
HETATM    8  C   UNK N   1      23.910  13.814   6.997  0.00  0.00     0.044 A 
HETATM    9  C   UNK N   1      23.559  14.913   6.217  0.00  0.00     0.046 A 
HETATM   10  H   UNK N   1      21.960  16.285   6.317  0.00  0.00     0.166 HD
ENDROOT
BRANCH   9  11
HETATM   11  C   UNK N   1      24.380  15.421   5.086  0.00  0.00     0.027 A 
HETATM   12  C   UNK N   1      24.998  14.523   4.210  0.00  0.00     0.017 A 
HETATM   13  C   UNK N   1      25.744  14.996   3.128  0.00  0.00     0.004 A 
HETATM   14  C   UNK N   1      25.868  16.369   2.905  0.00  0.00     0.040 A 
HETATM   15  C   UNK N   1      25.258  17.297   3.758  0.00  0.00     0.103 A 
HETATM   16  C   UNK N   1      24.510  16.813   4.858  0.00  0.00     0.111 A 
BRANCH  15  17
HETATM   17  O   UNK N   1      25.424  18.626   3.469  0.00  0.00    -0.343 OA
BRANCH  17  18
HETATM   18  C   UNK N   1      26.356  19.540   3.951  0.00  0.00     0.129 C 
HETATM   19  C   UNK N   1      27.559  18.893   4.614  0.00  0.00     0.032 C 
HETATM   20  C   UNK N   1      27.992  19.857   5.707  0.00  0.00     0.002 C 
HETATM   21  C   UNK N   1      27.004  21.018   5.710  0.00  0.00     0.002 C 
HETATM   22  C   UNK N   1      25.795  20.562   4.915  0.00  0.00     0.032 C 
ENDBRANCH  17  18
ENDBRANCH  15  17
BRANCH  16  23
HETATM   23  O   UNK N   1      23.899  17.669   5.687  0.00  0.00    -0.357 OA
ATOM     24  HO  UNK N   1      23.543  18.477   5.339  1.00  0.00     0.217 HD
ENDBRANCH  16  23
ENDBRANCH   9  11
BRANCH   1  25
HETATM   25  C   UNK N   1      21.762  12.189  11.145  0.00  0.00     0.102 C 
HETATM   26  N   UNK N   1      20.625  11.938  11.687  0.00  0.00    -0.385 N 
HETATM   27  H   UNK N   1      20.581  11.473  12.555  0.00  0.00     0.157 HD
HETATM   28  H   UNK N   1      19.795  12.211  11.235  0.00  0.00     0.157 HD
BRANCH  25  29
HETATM   29  N   UNK N   1      22.923  11.563  11.650  0.00  0.00    -0.385 N 
HETATM   30  H   UNK N   1      23.812  11.757  11.274  0.00  0.00     0.157 HD
HETATM   31  H   UNK N   1      22.841  10.920  12.391  0.00  0.00     0.157 HD
ENDBRANCH  25  29
ENDBRANCH   1  25
TORSDOF 6
ENDMDL
