REMARK  6 active torsions:
REMARK  status: ('A' for Active; 'I' for Inactive)
REMARK    1  A    between atoms: C_1  and  C_7 
REMARK    2  A    between atoms: C_7  and  N_8 
REMARK    3  A    between atoms: C_12  and  C_13 
REMARK    4  A    between atoms: C_17  and  O_18 
REMARK    5  A    between atoms: O_18  and  C_23 
REMARK    6  A    between atoms: C_19  and  O_20 
ROOT
HETATM    1  C   UNK N   1       4.721  -0.690   0.037  0.00  0.00     0.008 A 
HETATM    2  C   UNK N   1       4.762  -2.105   0.174  0.00  0.00     0.017 A 
HETATM    3  C   UNK N   1       3.571  -2.868   0.138  0.00  0.00     0.031 A 
HETATM    4  C   UNK N   1       2.371  -2.182  -0.027  0.00  0.00     0.043 A 
HETATM    5  C   UNK N   1       2.344  -0.827  -0.164  0.00  0.00    -0.006 A 
HETATM    6  C   UNK N   1       3.486  -0.048  -0.144  0.00  0.00     0.029 A 
HETATM    7  N   UNK N   1       1.119  -2.687  -0.034  0.00  0.00    -0.355 N 
HETATM    8  C   UNK N   1       1.052  -0.432  -0.259  0.00  0.00     0.044 A 
HETATM    9  C   UNK N   1       0.307  -1.605  -0.166  0.00  0.00     0.046 A 
HETATM   10  H   UNK N   1       0.852  -3.632   0.040  0.00  0.00     0.166 HD
ENDROOT
BRANCH   9  11
HETATM   11  C   UNK N   1      -1.179  -1.639  -0.116  0.00  0.00     0.027 A 
HETATM   12  C   UNK N   1      -1.851  -2.865  -0.067  0.00  0.00     0.017 A 
HETATM   13  C   UNK N   1      -3.245  -2.900   0.012  0.00  0.00     0.004 A 
HETATM   14  C   UNK N   1      -3.978  -1.712   0.056  0.00  0.00     0.040 A 
HETATM   15  C   UNK N   1      -3.339  -0.467   0.014  0.00  0.00     0.103 A 
HETATM   16  C   UNK N   1      -1.926  -0.436  -0.075  0.00  0.00     0.111 A 
BRANCH  15  17
HETATM   17  O   UNK N   1      -4.128   0.651   0.064  0.00  0.00    -0.343 OA
BRANCH  17  18
HETATM   18  C   UNK N   1      -3.785   1.997  -0.020  0.00  0.00     0.129 C 
HETATM   19  C   UNK N   1      -3.102   2.372  -1.322  0.00  0.00     0.032 C 
HETATM   20  C   UNK N   1      -2.138   3.495  -0.970  0.00  0.00     0.002 C 
HETATM   21  C   UNK N   1      -2.225   3.716   0.536  0.00  0.00     0.002 C 
HETATM   22  C   UNK N   1      -2.919   2.498   1.115  0.00  0.00     0.032 C 
ENDBRANCH  17  18
ENDBRANCH  15  17
BRANCH  16  23
HETATM   23  O   UNK N   1      -1.277   0.735  -0.101  0.00  0.00    -0.357 OA
ATOM     24  HO  UNK N   1      -1.777   1.542  -0.073  1.00  0.00     0.217 HD
ENDBRANCH  16  23
ENDBRANCH   9  11
BRANCH   1  25
HETATM   25  C   UNK N   1       5.953   0.123   0.119  0.00  0.00     0.102 C 
HETATM   26  N   UNK N   1       5.895   1.400  -0.000  0.00  0.00    -0.385 N 
HETATM   27  H   UNK N   1       6.721   1.928  -0.092  0.00  0.00     0.157 HD
HETATM   28  H   UNK N   1       5.021   1.853  -0.000  0.00  0.00     0.157 HD
BRANCH  25  29
HETATM   29  N   UNK N   1       7.195  -0.491   0.393  0.00  0.00    -0.385 N 
HETATM   30  H   UNK N   1       7.257  -1.455   0.584  0.00  0.00     0.157 HD
HETATM   31  H   UNK N   1       8.014   0.055   0.393  0.00  0.00     0.157 HD
ENDBRANCH  25  29
ENDBRANCH   1  25
TORSDOF 6
