MODEL 1
REMARK VINA RESULT:      -5.9      0.000      0.000
REMARK  5 active torsions:
REMARK  status: ('A' for Active; 'I' for Inactive)
REMARK    1  A    between atoms: S_1  and  O_2 
REMARK    2  A    between atoms: S_1  and  O_5 
REMARK    3  A    between atoms: O_2  and  C_12 
REMARK    4  A    between atoms: O_6  and  C_14 
REMARK    5  A    between atoms: N_10  and  C_15 
ROOT
HETATM    1  C   UNK N   1      32.423  17.678   8.528  0.00  0.00     0.077 A 
HETATM    2  C   UNK N   1      32.679  17.266   5.779  0.00  0.00     0.042 A 
HETATM    3  C   UNK N   1      31.318  17.235   7.795  0.00  0.00     0.126 A 
HETATM    4  C   UNK N   1      33.780  17.686   6.527  0.00  0.00     0.039 A 
HETATM    5  C   UNK N   1      31.450  17.031   6.402  0.00  0.00     0.100 A 
HETATM    6  C   UNK N   1      33.660  17.894   7.908  0.00  0.00     0.105 A 
ENDROOT
BRANCH   3   7
HETATM    7  O   UNK N   1      30.158  17.006   8.464  0.00  0.00    -0.218 OA
BRANCH   7   8
HETATM    8  S   UNK N   1      29.072  18.235   8.929  0.00  0.00     0.245 S 
HETATM    9  O   UNK N   1      27.790  17.685   9.569  0.00  0.00    -0.579 OA
HETATM   10  O   UNK N   1      28.418  17.439   7.788  0.00  0.00    -0.579 OA
BRANCH   8  11
HETATM   11  O   UNK N   1      29.506  17.238  10.257  0.00  0.00    -0.273 OA
HETATM   12  H   UNK N   1      29.555  16.527  10.916  0.00  0.00     0.234 HD
ENDBRANCH   8  11
ENDBRANCH   7   8
ENDBRANCH   3   7
BRANCH   5  13
HETATM   13  O   UNK N   1      30.408  16.632   5.654  0.00  0.00    -0.358 OA
HETATM   14  H   UNK N   1      29.960  15.835   5.862  0.00  0.00     0.217 HD
ENDBRANCH   5  13
BRANCH   6  15
HETATM   15  N   UNK N   1      34.785  18.292   8.682  0.00  0.00    -0.116 N 
HETATM   16  O   UNK N   1      35.359  19.311   8.433  0.00  0.00    -0.532 OA
HETATM   17  O   UNK N   1      35.230  17.520   9.649  0.00  0.00    -0.532 OA
ENDBRANCH   6  15
TORSDOF 5
ENDMDL
MODEL 2
REMARK VINA RESULT:      -5.6     10.491     11.376
REMARK  5 active torsions:
REMARK  status: ('A' for Active; 'I' for Inactive)
REMARK    1  A    between atoms: S_1  and  O_2 
REMARK    2  A    between atoms: S_1  and  O_5 
REMARK    3  A    between atoms: O_2  and  C_12 
REMARK    4  A    between atoms: O_6  and  C_14 
REMARK    5  A    between atoms: N_10  and  C_15 
ROOT
HETATM    1  C   UNK N   1      21.851  12.917  10.184  0.00  0.00     0.077 A 
HETATM    2  C   UNK N   1      22.998  11.546   8.040  0.00  0.00     0.042 A 
HETATM    3  C   UNK N   1      21.270  13.017   8.916  0.00  0.00     0.126 A 
HETATM    4  C   UNK N   1      23.555  11.437   9.316  0.00  0.00     0.039 A 
HETATM    5  C   UNK N   1      21.856  12.324   7.832  0.00  0.00     0.100 A 
HETATM    6  C   UNK N   1      22.984  12.122  10.398  0.00  0.00     0.105 A 
ENDROOT
BRANCH   3   7
HETATM    7  O   UNK N   1      20.149  13.773   8.786  0.00  0.00    -0.218 OA
BRANCH   7   8
HETATM    8  S   UNK N   1      20.156  15.477   8.718  0.00  0.00     0.245 S 
HETATM    9  O   UNK N   1      18.805  16.060   8.284  0.00  0.00    -0.579 OA
HETATM   10  O   UNK N   1      19.987  14.952   7.284  0.00  0.00    -0.579 OA
BRANCH   8  11
HETATM   11  O   UNK N   1      18.940  14.890   9.778  0.00  0.00    -0.273 OA
HETATM   12  H   UNK N   1      18.458  14.523  10.536  0.00  0.00     0.234 HD
ENDBRANCH   8  11
ENDBRANCH   7   8
ENDBRANCH   3   7
BRANCH   5  13
HETATM   13  O   UNK N   1      21.347  12.412   6.592  0.00  0.00    -0.358 OA
HETATM   14  H   UNK N   1      20.418  12.420   6.466  0.00  0.00     0.217 HD
ENDBRANCH   5  13
BRANCH   6  15
HETATM   15  N   UNK N   1      23.526  11.991  11.706  0.00  0.00    -0.116 N 
HETATM   16  O   UNK N   1      24.711  11.987  11.871  0.00  0.00    -0.532 OA
HETATM   17  O   UNK N   1      22.730  11.830  12.741  0.00  0.00    -0.532 OA
ENDBRANCH   6  15
TORSDOF 5
ENDMDL
MODEL 3
REMARK VINA RESULT:      -5.4      9.468     11.166
REMARK  5 active torsions:
REMARK  status: ('A' for Active; 'I' for Inactive)
REMARK    1  A    between atoms: S_1  and  O_2 
REMARK    2  A    between atoms: S_1  and  O_5 
REMARK    3  A    between atoms: O_2  and  C_12 
REMARK    4  A    between atoms: O_6  and  C_14 
REMARK    5  A    between atoms: N_10  and  C_15 
ROOT
HETATM    1  C   UNK N   1      22.420  13.606   9.062  0.00  0.00     0.077 A 
HETATM    2  C   UNK N   1      21.992  12.101  11.373  0.00  0.00     0.042 A 
HETATM    3  C   UNK N   1      21.115  13.426   9.531  0.00  0.00     0.126 A 
HETATM    4  C   UNK N   1      23.291  12.307  10.906  0.00  0.00     0.039 A 
HETATM    5  C   UNK N   1      20.902  12.659  10.700  0.00  0.00     0.100 A 
HETATM    6  C   UNK N   1      23.514  13.064   9.747  0.00  0.00     0.105 A 
ENDROOT
BRANCH   3   7
HETATM    7  O   UNK N   1      20.102  14.013   8.841  0.00  0.00    -0.218 OA
BRANCH   7   8
HETATM    8  S   UNK N   1      19.980  15.694   8.582  0.00  0.00     0.245 S 
HETATM    9  O   UNK N   1      18.601  16.115   8.057  0.00  0.00    -0.579 OA
HETATM   10  O   UNK N   1      19.894  15.000   7.212  0.00  0.00    -0.579 OA
BRANCH   8  11
HETATM   11  O   UNK N   1      18.782  15.133   9.676  0.00  0.00    -0.273 OA
HETATM   12  H   UNK N   1      17.988  15.040  10.226  0.00  0.00     0.234 HD
ENDBRANCH   8  11
ENDBRANCH   7   8
ENDBRANCH   3   7
BRANCH   5  13
HETATM   13  O   UNK N   1      19.664  12.438  11.172  0.00  0.00    -0.358 OA
HETATM   14  H   UNK N   1      18.918  12.601  10.627  0.00  0.00     0.217 HD
ENDBRANCH   5  13
BRANCH   6  15
HETATM   15  N   UNK N   1      24.837  13.305   9.282  0.00  0.00    -0.116 N 
HETATM   16  O   UNK N   1      25.122  13.101   8.139  0.00  0.00    -0.532 OA
HETATM   17  O   UNK N   1      25.767  13.714  10.117  0.00  0.00    -0.532 OA
ENDBRANCH   6  15
TORSDOF 5
ENDMDL
MODEL 4
REMARK VINA RESULT:      -5.4      4.339      5.581
REMARK  5 active torsions:
REMARK  status: ('A' for Active; 'I' for Inactive)
REMARK    1  A    between atoms: S_1  and  O_2 
REMARK    2  A    between atoms: S_1  and  O_5 
REMARK    3  A    between atoms: O_2  and  C_12 
REMARK    4  A    between atoms: O_6  and  C_14 
REMARK    5  A    between atoms: N_10  and  C_15 
ROOT
HETATM    1  C   UNK N   1      34.564  16.396   9.903  0.00  0.00     0.077 A 
HETATM    2  C   UNK N   1      33.572  14.426   8.193  0.00  0.00     0.042 A 
HETATM    3  C   UNK N   1      34.305  15.118  10.407  0.00  0.00     0.126 A 
HETATM    4  C   UNK N   1      33.856  15.700   7.698  0.00  0.00     0.039 A 
HETATM    5  C   UNK N   1      33.799  14.123   9.538  0.00  0.00     0.100 A 
HETATM    6  C   UNK N   1      34.356  16.695   8.551  0.00  0.00     0.105 A 
ENDROOT
BRANCH   3   7
HETATM    7  O   UNK N   1      34.567  14.884  11.719  0.00  0.00    -0.218 OA
BRANCH   7   8
HETATM    8  S   UNK N   1      35.903  13.984  12.275  0.00  0.00     0.245 S 
HETATM    9  O   UNK N   1      35.939  13.854  13.804  0.00  0.00    -0.579 OA
HETATM   10  O   UNK N   1      36.085  15.434  12.750  0.00  0.00    -0.579 OA
BRANCH   8  11
HETATM   11  O   UNK N   1      34.418  13.303  12.802  0.00  0.00    -0.273 OA
HETATM   12  H   UNK N   1      33.524  12.930  12.844  0.00  0.00     0.234 HD
ENDBRANCH   8  11
ENDBRANCH   7   8
ENDBRANCH   3   7
BRANCH   5  13
HETATM   13  O   UNK N   1      33.511  12.889   9.984  0.00  0.00    -0.358 OA
HETATM   14  H   UNK N   1      33.837  12.138   9.527  0.00  0.00     0.217 HD
ENDBRANCH   5  13
BRANCH   6  15
HETATM   15  N   UNK N   1      34.678  17.986   8.048  0.00  0.00    -0.116 N 
HETATM   16  O   UNK N   1      34.433  18.269   6.913  0.00  0.00    -0.532 OA
HETATM   17  O   UNK N   1      35.285  18.864   8.817  0.00  0.00    -0.532 OA
ENDBRANCH   6  15
TORSDOF 5
ENDMDL
MODEL 5
REMARK VINA RESULT:      -5.3     12.542     13.306
REMARK  5 active torsions:
REMARK  status: ('A' for Active; 'I' for Inactive)
REMARK    1  A    between atoms: S_1  and  O_2 
REMARK    2  A    between atoms: S_1  and  O_5 
REMARK    3  A    between atoms: O_2  and  C_12 
REMARK    4  A    between atoms: O_6  and  C_14 
REMARK    5  A    between atoms: N_10  and  C_15 
ROOT
HETATM    1  C   UNK N   1      19.937  17.135   3.395  0.00  0.00     0.077 A 
HETATM    2  C   UNK N   1      19.975  15.831   0.928  0.00  0.00     0.042 A 
HETATM    3  C   UNK N   1      20.125  17.881   2.228  0.00  0.00     0.126 A 
HETATM    4  C   UNK N   1      19.765  15.101   2.099  0.00  0.00     0.039 A 
HETATM    5  C   UNK N   1      20.148  17.217   0.980  0.00  0.00     0.100 A 
HETATM    6  C   UNK N   1      19.743  15.749   3.342  0.00  0.00     0.105 A 
ENDROOT
BRANCH   3   7
HETATM    7  O   UNK N   1      20.266  19.228   2.347  0.00  0.00    -0.218 OA
BRANCH   7   8
HETATM    8  S   UNK N   1      21.726  19.994   2.779  0.00  0.00     0.245 S 
HETATM    9  O   UNK N   1      21.614  21.525   2.788  0.00  0.00    -0.579 OA
HETATM   10  O   UNK N   1      21.435  20.337   1.310  0.00  0.00    -0.579 OA
BRANCH   8  11
HETATM   11  O   UNK N   1      20.441  20.444   3.824  0.00  0.00    -0.273 OA
HETATM   12  H   UNK N   1      19.823  20.936   4.389  0.00  0.00     0.234 HD
ENDBRANCH   8  11
ENDBRANCH   7   8
ENDBRANCH   3   7
BRANCH   5  13
HETATM   13  O   UNK N   1      20.352  17.890  -0.164  0.00  0.00    -0.358 OA
HETATM   14  H   UNK N   1      19.623  18.137  -0.699  0.00  0.00     0.217 HD
ENDBRANCH   5  13
BRANCH   6  15
HETATM   15  N   UNK N   1      19.499  15.017   4.537  0.00  0.00    -0.116 N 
HETATM   16  O   UNK N   1      18.378  14.782   4.883  0.00  0.00    -0.532 OA
HETATM   17  O   UNK N   1      20.503  14.630   5.294  0.00  0.00    -0.532 OA
ENDBRANCH   6  15
TORSDOF 5
ENDMDL
MODEL 6
REMARK VINA RESULT:      -5.2      9.039     10.458
REMARK  5 active torsions:
REMARK  status: ('A' for Active; 'I' for Inactive)
REMARK    1  A    between atoms: S_1  and  O_2 
REMARK    2  A    between atoms: S_1  and  O_5 
REMARK    3  A    between atoms: O_2  and  C_12 
REMARK    4  A    between atoms: O_6  and  C_14 
REMARK    5  A    between atoms: N_10  and  C_15 
ROOT
HETATM    1  C   UNK N   1      35.003  13.243  16.127  0.00  0.00     0.077 A 
HETATM    2  C   UNK N   1      34.992  10.509  16.691  0.00  0.00     0.042 A 
HETATM    3  C   UNK N   1      34.831  12.328  15.084  0.00  0.00     0.126 A 
HETATM    4  C   UNK N   1      35.140  11.434  17.726  0.00  0.00     0.039 A 
HETATM    5  C   UNK N   1      34.831  10.943  15.372  0.00  0.00     0.100 A 
HETATM    6  C   UNK N   1      35.145  12.809  17.451  0.00  0.00     0.105 A 
ENDROOT
BRANCH   3   7
HETATM    7  O   UNK N   1      34.659  12.817  13.828  0.00  0.00    -0.218 OA
BRANCH   7   8
HETATM    8  S   UNK N   1      35.805  13.788  13.022  0.00  0.00     0.245 S 
HETATM    9  O   UNK N   1      35.943  13.435  11.535  0.00  0.00    -0.579 OA
HETATM   10  O   UNK N   1      36.346  12.350  13.048  0.00  0.00    -0.579 OA
BRANCH   8  11
HETATM   11  O   UNK N   1      34.257  13.893  12.287  0.00  0.00    -0.273 OA
HETATM   12  H   UNK N   1      33.417  14.208  11.916  0.00  0.00     0.234 HD
ENDBRANCH   8  11
ENDBRANCH   7   8
ENDBRANCH   3   7
BRANCH   5  13
HETATM   13  O   UNK N   1      34.695  10.028  14.399  0.00  0.00    -0.358 OA
HETATM   14  H   UNK N   1      35.456   9.660  13.993  0.00  0.00     0.217 HD
ENDBRANCH   5  13
BRANCH   6  15
HETATM   15  N   UNK N   1      35.263  13.758  18.503  0.00  0.00    -0.116 N 
HETATM   16  O   UNK N   1      35.702  14.849  18.285  0.00  0.00    -0.532 OA
HETATM   17  O   UNK N   1      34.931  13.429  19.732  0.00  0.00    -0.532 OA
ENDBRANCH   6  15
TORSDOF 5
ENDMDL
MODEL 7
REMARK VINA RESULT:      -5.2      2.612      4.917
REMARK  5 active torsions:
REMARK  status: ('A' for Active; 'I' for Inactive)
REMARK    1  A    between atoms: S_1  and  O_2 
REMARK    2  A    between atoms: S_1  and  O_5 
REMARK    3  A    between atoms: O_2  and  C_12 
REMARK    4  A    between atoms: O_6  and  C_14 
REMARK    5  A    between atoms: N_10  and  C_15 
ROOT
HETATM    1  C   UNK N   1      32.273  17.264   6.412  0.00  0.00     0.077 A 
HETATM    2  C   UNK N   1      29.768  17.114   7.634  0.00  0.00     0.042 A 
HETATM    3  C   UNK N   1      32.106  17.781   7.700  0.00  0.00     0.126 A 
HETATM    4  C   UNK N   1      29.954  16.581   6.357  0.00  0.00     0.039 A 
HETATM    5  C   UNK N   1      30.835  17.708   8.314  0.00  0.00     0.100 A 
HETATM    6  C   UNK N   1      31.210  16.651   5.737  0.00  0.00     0.105 A 
ENDROOT
BRANCH   3   7
HETATM    7  O   UNK N   1      33.189  18.326   8.313  0.00  0.00    -0.218 OA
BRANCH   7   8
HETATM    8  S   UNK N   1      34.699  17.545   8.446  0.00  0.00     0.245 S 
HETATM    9  O   UNK N   1      35.413  17.853   9.768  0.00  0.00    -0.579 OA
HETATM   10  O   UNK N   1      34.960  19.058   8.365  0.00  0.00    -0.579 OA
BRANCH   8  11
HETATM   11  O   UNK N   1      33.654  17.129   9.743  0.00  0.00    -0.273 OA
HETATM   12  H   UNK N   1      33.260  16.993  10.619  0.00  0.00     0.234 HD
ENDBRANCH   8  11
ENDBRANCH   7   8
ENDBRANCH   3   7
BRANCH   5  13
HETATM   13  O   UNK N   1      30.623  18.215   9.540  0.00  0.00    -0.358 OA
HETATM   14  H   UNK N   1      30.874  19.097   9.732  0.00  0.00     0.217 HD
ENDBRANCH   5  13
BRANCH   6  15
HETATM   15  N   UNK N   1      31.415  16.082   4.449  0.00  0.00    -0.116 N 
HETATM   16  O   UNK N   1      31.183  16.719   3.464  0.00  0.00    -0.532 OA
HETATM   17  O   UNK N   1      31.822  14.837   4.333  0.00  0.00    -0.532 OA
ENDBRANCH   6  15
TORSDOF 5
ENDMDL
MODEL 8
REMARK VINA RESULT:      -5.1     12.398     13.979
REMARK  5 active torsions:
REMARK  status: ('A' for Active; 'I' for Inactive)
REMARK    1  A    between atoms: S_1  and  O_2 
REMARK    2  A    between atoms: S_1  and  O_5 
REMARK    3  A    between atoms: O_2  and  C_12 
REMARK    4  A    between atoms: O_6  and  C_14 
REMARK    5  A    between atoms: N_10  and  C_15 
ROOT
HETATM    1  C   UNK N   1      29.328  22.537  -4.904  0.00  0.00     0.077 A 
HETATM    2  C   UNK N   1      31.128  21.440  -3.075  0.00  0.00     0.042 A 
HETATM    3  C   UNK N   1      29.469  23.125  -3.643  0.00  0.00     0.126 A 
HETATM    4  C   UNK N   1      30.994  20.876  -4.345  0.00  0.00     0.039 A 
HETATM    5  C   UNK N   1      30.379  22.564  -2.717  0.00  0.00     0.100 A 
HETATM    6  C   UNK N   1      30.093  21.423  -5.270  0.00  0.00     0.105 A 
ENDROOT
BRANCH   3   7
HETATM    7  O   UNK N   1      28.725  24.228  -3.367  0.00  0.00    -0.218 OA
BRANCH   7   8
HETATM    8  S   UNK N   1      27.116  24.443  -3.886  0.00  0.00     0.245 S 
HETATM    9  O   UNK N   1      26.373  25.524  -3.090  0.00  0.00    -0.579 OA
HETATM   10  O   UNK N   1      27.075  23.868  -2.461  0.00  0.00    -0.579 OA
BRANCH   8  11
HETATM   11  O   UNK N   1      28.012  25.904  -3.978  0.00  0.00    -0.273 OA
HETATM   12  H   UNK N   1      28.290  26.823  -4.122  0.00  0.00     0.234 HD
ENDBRANCH   8  11
ENDBRANCH   7   8
ENDBRANCH   3   7
BRANCH   5  13
HETATM   13  O   UNK N   1      30.528  23.080  -1.486  0.00  0.00    -0.358 OA
HETATM   14  H   UNK N   1      29.777  23.221  -0.943  0.00  0.00     0.217 HD
ENDBRANCH   5  13
BRANCH   6  15
HETATM   15  N   UNK N   1      29.973  20.874  -6.577  0.00  0.00    -0.116 N 
HETATM   16  O   UNK N   1      29.100  21.239  -7.307  0.00  0.00    -0.532 OA
HETATM   17  O   UNK N   1      30.797  19.930  -6.976  0.00  0.00    -0.532 OA
ENDBRANCH   6  15
TORSDOF 5
ENDMDL
MODEL 9
REMARK VINA RESULT:      -5.1      3.389      5.278
REMARK  5 active torsions:
REMARK  status: ('A' for Active; 'I' for Inactive)
REMARK    1  A    between atoms: S_1  and  O_2 
REMARK    2  A    between atoms: S_1  and  O_5 
REMARK    3  A    between atoms: O_2  and  C_12 
REMARK    4  A    between atoms: O_6  and  C_14 
REMARK    5  A    between atoms: N_10  and  C_15 
ROOT
HETATM    1  C   UNK N   1      33.031  15.757   8.186  0.00  0.00     0.077 A 
HETATM    2  C   UNK N   1      33.663  17.917   6.535  0.00  0.00     0.042 A 
HETATM    3  C   UNK N   1      33.832  16.789   8.683  0.00  0.00     0.126 A 
HETATM    4  C   UNK N   1      32.845  16.891   6.058  0.00  0.00     0.039 A 
HETATM    5  C   UNK N   1      34.154  17.879   7.843  0.00  0.00     0.100 A 
HETATM    6  C   UNK N   1      32.521  15.803   6.882  0.00  0.00     0.105 A 
ENDROOT
BRANCH   3   7
HETATM    7  O   UNK N   1      34.260  16.701   9.970  0.00  0.00    -0.218 OA
BRANCH   7   8
HETATM    8  S   UNK N   1      35.551  15.709  10.476  0.00  0.00     0.245 S 
HETATM    9  O   UNK N   1      35.852  15.843  11.974  0.00  0.00    -0.579 OA
HETATM   10  O   UNK N   1      36.000  17.173  10.618  0.00  0.00    -0.579 OA
BRANCH   8  11
HETATM   11  O   UNK N   1      34.115  15.377  11.355  0.00  0.00    -0.273 OA
HETATM   12  H   UNK N   1      33.457  15.249  12.056  0.00  0.00     0.234 HD
ENDBRANCH   8  11
ENDBRANCH   7   8
ENDBRANCH   3   7
BRANCH   5  13
HETATM   13  O   UNK N   1      34.942  18.880   8.270  0.00  0.00    -0.358 OA
HETATM   14  H   UNK N   1      34.611  19.508   8.882  0.00  0.00     0.217 HD
ENDBRANCH   5  13
BRANCH   6  15
HETATM   15  N   UNK N   1      31.663  14.769   6.414  0.00  0.00    -0.116 N 
HETATM   16  O   UNK N   1      31.906  13.625   6.663  0.00  0.00    -0.532 OA
HETATM   17  O   UNK N   1      30.620  15.062   5.668  0.00  0.00    -0.532 OA
ENDBRANCH   6  15
TORSDOF 5
ENDMDL
