MODEL 1
REMARK VINA RESULT:      -7.6      0.000      0.000
REMARK  3 active torsions:
REMARK  status: ('A' for Active; 'I' for Inactive)
REMARK    1  A    between atoms: S_2  and  C_4 
REMARK    2  A    between atoms: C_9  and  N_10 
REMARK    3  A    between atoms: N_10  and  C_11 
ROOT
HETATM    1  C   UNK N   1      36.159  13.382  13.172  0.00  0.00     0.132 A 
HETATM    2  N   UNK N   1      36.447  13.951  14.369  0.00  0.00    -0.224 N 
HETATM    3  C   UNK N   1      35.865  13.566  15.505  0.00  0.00     0.131 A 
HETATM    4  N   UNK N   1      34.950  12.568  15.540  0.00  0.00    -0.331 N 
ATOM      5  HN  UNK N   1      34.514  12.291  16.419  1.00  0.00     0.168 HD
HETATM    6  C   UNK N   1      37.238  15.202  15.939  0.00  0.00     0.111 A 
HETATM    7  N   UNK N   1      37.282  14.941  14.607  0.00  0.00    -0.302 N 
ATOM      8  HN  UNK N   1      37.858  15.423  13.918  1.00  0.00     0.186 HD
HETATM    9  C   UNK N   1      35.220  12.334  13.163  0.00  0.00     0.092 A 
HETATM   10  C   UNK N   1      34.622  11.939  14.372  0.00  0.00     0.108 A 
HETATM   11 Cl   UNK N   1      33.438  10.650  14.371  0.00  0.00    -0.064 Cl
HETATM   12  C   UNK N   1      36.327  14.330  16.549  0.00  0.00     0.069 A 
ENDROOT
BRANCH   1  13
HETATM   13  N   UNK N   1      36.782  13.856  11.979  0.00  0.00    -0.341 N 
HETATM   14  H   UNK N   1      37.685  13.523  11.771  0.00  0.00     0.167 HD
BRANCH  13  15
HETATM   15  C   UNK N   1      36.189  14.777  11.069  0.00  0.00     0.033 A 
HETATM   16  C   UNK N   1      35.878  16.087  11.463  0.00  0.00     0.031 A 
HETATM   17  C   UNK N   1      35.297  16.979  10.571  0.00  0.00     0.025 A 
HETATM   18  C   UNK N   1      35.028  16.580   9.264  0.00  0.00     0.059 A 
HETATM   19  C   UNK N   1      35.353  15.284   8.847  0.00  0.00     0.025 A 
HETATM   20  C   UNK N   1      35.942  14.386   9.748  0.00  0.00     0.031 A 
BRANCH  18  21
HETATM   21  S   UNK N   1      34.188  17.709   8.168  0.00  0.00     0.171 S 
HETATM   22  O   UNK N   1      34.645  17.415   6.731  0.00  0.00    -0.223 OA
HETATM   23  O   UNK N   1      34.889  19.061   8.364  0.00  0.00    -0.223 OA
HETATM   24  C   UNK N   1      32.411  18.063   8.146  0.00  0.00     0.167 C 
ENDBRANCH  18  21
ENDBRANCH  13  15
ENDBRANCH   1  13
TORSDOF 3
ENDMDL
MODEL 2
REMARK VINA RESULT:      -7.2      1.522      2.646
REMARK  3 active torsions:
REMARK  status: ('A' for Active; 'I' for Inactive)
REMARK    1  A    between atoms: S_2  and  C_4 
REMARK    2  A    between atoms: C_9  and  N_10 
REMARK    3  A    between atoms: N_10  and  C_11 
ROOT
HETATM    1  C   UNK N   1      35.974  13.232  13.125  0.00  0.00     0.132 A 
HETATM    2  N   UNK N   1      35.190  12.141  12.940  0.00  0.00    -0.224 N 
HETATM    3  C   UNK N   1      34.540  11.547  13.940  0.00  0.00     0.131 A 
HETATM    4  N   UNK N   1      34.612  12.003  15.214  0.00  0.00    -0.331 N 
ATOM      5  HN  UNK N   1      34.110  11.531  15.965  1.00  0.00     0.168 HD
HETATM    6  C   UNK N   1      34.141  10.453  12.098  0.00  0.00     0.111 A 
HETATM    7  N   UNK N   1      34.963  11.496  11.814  0.00  0.00    -0.302 N 
ATOM      8  HN  UNK N   1      35.336  11.736  10.896  1.00  0.00     0.186 HD
HETATM    9  C   UNK N   1      36.069  13.747  14.431  0.00  0.00     0.092 A 
HETATM   10  C   UNK N   1      35.372  13.109  15.471  0.00  0.00     0.108 A 
HETATM   11 Cl   UNK N   1      35.499  13.727  17.103  0.00  0.00    -0.064 Cl
HETATM   12  C   UNK N   1      33.850  10.456  13.468  0.00  0.00     0.069 A 
ENDROOT
BRANCH   1  13
HETATM   13  N   UNK N   1      36.678  13.809  12.026  0.00  0.00    -0.341 N 
HETATM   14  H   UNK N   1      37.615  13.539  11.890  0.00  0.00     0.167 HD
BRANCH  13  15
HETATM   15  C   UNK N   1      36.120  14.748  11.112  0.00  0.00     0.033 A 
HETATM   16  C   UNK N   1      35.838  16.064  11.507  0.00  0.00     0.031 A 
HETATM   17  C   UNK N   1      35.291  16.974  10.611  0.00  0.00     0.025 A 
HETATM   18  C   UNK N   1      35.028  16.586   9.300  0.00  0.00     0.059 A 
HETATM   19  C   UNK N   1      35.325  15.283   8.882  0.00  0.00     0.025 A 
HETATM   20  C   UNK N   1      35.879  14.367   9.786  0.00  0.00     0.031 A 
BRANCH  18  21
HETATM   21  S   UNK N   1      34.231  17.739   8.197  0.00  0.00     0.171 S 
HETATM   22  O   UNK N   1      34.686  17.428   6.763  0.00  0.00    -0.223 OA
HETATM   23  O   UNK N   1      34.975  19.068   8.394  0.00  0.00    -0.223 OA
HETATM   24  C   UNK N   1      32.467  18.151   8.165  0.00  0.00     0.167 C 
ENDBRANCH  18  21
ENDBRANCH  13  15
ENDBRANCH   1  13
TORSDOF 3
ENDMDL
MODEL 3
REMARK VINA RESULT:      -6.9      7.926     11.432
REMARK  3 active torsions:
REMARK  status: ('A' for Active; 'I' for Inactive)
REMARK    1  A    between atoms: S_2  and  C_4 
REMARK    2  A    between atoms: C_9  and  N_10 
REMARK    3  A    between atoms: N_10  and  C_11 
ROOT
HETATM    1  C   UNK N   1      27.901  18.335   4.404  0.00  0.00     0.132 A 
HETATM    2  N   UNK N   1      26.699  17.719   4.277  0.00  0.00    -0.224 N 
HETATM    3  C   UNK N   1      25.569  18.246   4.748  0.00  0.00     0.131 A 
HETATM    4  N   UNK N   1      25.545  19.446   5.378  0.00  0.00    -0.331 N 
ATOM      5  HN  UNK N   1      24.670  19.829   5.734  1.00  0.00     0.168 HD
HETATM    6  C   UNK N   1      25.118  16.317   3.841  0.00  0.00     0.111 A 
HETATM    7  N   UNK N   1      26.451  16.551   3.723  0.00  0.00    -0.302 N 
ATOM      8  HN  UNK N   1      27.134  15.933   3.286  1.00  0.00     0.186 HD
HETATM    9  C   UNK N   1      27.921  19.588   5.044  0.00  0.00     0.092 A 
HETATM   10  C   UNK N   1      26.717  20.130   5.528  0.00  0.00     0.108 A 
HETATM   11 Cl   UNK N   1      26.733  21.678   6.344  0.00  0.00    -0.064 Cl
HETATM   12  C   UNK N   1      24.518  17.396   4.502  0.00  0.00     0.069 A 
ENDROOT
BRANCH   1  13
HETATM   13  N   UNK N   1      29.087  17.711   3.915  0.00  0.00    -0.341 N 
HETATM   14  H   UNK N   1      29.089  17.401   2.980  0.00  0.00     0.167 HD
BRANCH  13  15
HETATM   15  C   UNK N   1      30.267  17.506   4.685  0.00  0.00     0.033 A 
HETATM   16  C   UNK N   1      30.196  17.090   6.023  0.00  0.00     0.031 A 
HETATM   17  C   UNK N   1      31.351  16.895   6.769  0.00  0.00     0.025 A 
HETATM   18  C   UNK N   1      32.599  17.098   6.185  0.00  0.00     0.059 A 
HETATM   19  C   UNK N   1      32.689  17.489   4.844  0.00  0.00     0.025 A 
HETATM   20  C   UNK N   1      31.523  17.684   4.092  0.00  0.00     0.031 A 
BRANCH  18  21
HETATM   21  S   UNK N   1      34.064  16.941   7.191  0.00  0.00     0.171 S 
HETATM   22  O   UNK N   1      34.691  18.335   7.350  0.00  0.00    -0.223 OA
HETATM   23  O   UNK N   1      35.122  16.313   6.271  0.00  0.00    -0.223 OA
HETATM   24  C   UNK N   1      34.192  16.068   8.773  0.00  0.00     0.167 C 
ENDBRANCH  18  21
ENDBRANCH  13  15
ENDBRANCH   1  13
TORSDOF 3
ENDMDL
MODEL 4
REMARK VINA RESULT:      -6.6      5.422      7.966
REMARK  3 active torsions:
REMARK  status: ('A' for Active; 'I' for Inactive)
REMARK    1  A    between atoms: S_2  and  C_4 
REMARK    2  A    between atoms: C_9  and  N_10 
REMARK    3  A    between atoms: N_10  and  C_11 
ROOT
HETATM    1  C   UNK N   1      33.359  17.438   7.397  0.00  0.00     0.132 A 
HETATM    2  N   UNK N   1      32.050  17.436   7.755  0.00  0.00    -0.224 N 
HETATM    3  C   UNK N   1      31.063  17.325   6.867  0.00  0.00     0.131 A 
HETATM    4  N   UNK N   1      31.304  17.196   5.539  0.00  0.00    -0.331 N 
ATOM      5  HN  UNK N   1      30.534  17.116   4.876  1.00  0.00     0.168 HD
HETATM    6  C   UNK N   1      30.197  17.530   8.856  0.00  0.00     0.111 A 
HETATM    7  N   UNK N   1      31.550  17.561   8.967  0.00  0.00    -0.302 N 
ATOM      8  HN  UNK N   1      32.081  17.663   9.831  1.00  0.00     0.186 HD
HETATM    9  C   UNK N   1      33.655  17.296   6.029  0.00  0.00     0.092 A 
HETATM   10  C   UNK N   1      32.599  17.174   5.108  0.00  0.00     0.108 A 
HETATM   11 Cl   UNK N   1      32.955  17.017   3.402  0.00  0.00    -0.064 Cl
HETATM   12  C   UNK N   1      29.849  17.380   7.507  0.00  0.00     0.069 A 
ENDROOT
BRANCH   1  13
HETATM   13  N   UNK N   1      34.377  17.597   8.383  0.00  0.00    -0.341 N 
HETATM   14  H   UNK N   1      34.886  18.441   8.384  0.00  0.00     0.167 HD
BRANCH  13  15
HETATM   15  C   UNK N   1      34.708  16.622   9.367  0.00  0.00     0.033 A 
HETATM   16  C   UNK N   1      35.331  16.988  10.569  0.00  0.00     0.031 A 
HETATM   17  C   UNK N   1      35.654  16.032  11.523  0.00  0.00     0.025 A 
HETATM   18  C   UNK N   1      35.348  14.692  11.296  0.00  0.00     0.059 A 
HETATM   19  C   UNK N   1      34.705  14.312  10.111  0.00  0.00     0.025 A 
HETATM   20  C   UNK N   1      34.378  15.279   9.151  0.00  0.00     0.031 A 
BRANCH  18  21
HETATM   21  S   UNK N   1      35.865  13.470  12.487  0.00  0.00     0.171 S 
HETATM   22  O   UNK N   1      34.616  12.943  13.210  0.00  0.00    -0.223 OA
HETATM   23  O   UNK N   1      36.484  14.269  13.644  0.00  0.00    -0.223 OA
HETATM   24  C   UNK N   1      36.984  12.078  12.182  0.00  0.00     0.167 C 
ENDBRANCH  18  21
ENDBRANCH  13  15
ENDBRANCH   1  13
TORSDOF 3
ENDMDL
MODEL 5
REMARK VINA RESULT:      -6.6      9.915     12.633
REMARK  3 active torsions:
REMARK  status: ('A' for Active; 'I' for Inactive)
REMARK    1  A    between atoms: S_2  and  C_4 
REMARK    2  A    between atoms: C_9  and  N_10 
REMARK    3  A    between atoms: N_10  and  C_11 
ROOT
HETATM    1  C   UNK N   1      28.480  18.358   5.072  0.00  0.00     0.132 A 
HETATM    2  N   UNK N   1      29.662  17.706   4.932  0.00  0.00    -0.224 N 
HETATM    3  C   UNK N   1      30.345  17.229   5.972  0.00  0.00     0.131 A 
HETATM    4  N   UNK N   1      29.897  17.356   7.245  0.00  0.00    -0.331 N 
ATOM      5  HN  UNK N   1      30.438  16.987   8.026  1.00  0.00     0.168 HD
HETATM    6  C   UNK N   1      31.460  16.810   4.147  0.00  0.00     0.111 A 
HETATM    7  N   UNK N   1      30.317  17.463   3.816  0.00  0.00    -0.302 N 
ATOM      8  HN  UNK N   1      30.021  17.719   2.875  1.00  0.00     0.186 HD
HETATM    9  C   UNK N   1      27.972  18.503   6.376  0.00  0.00     0.092 A 
HETATM   10  C   UNK N   1      28.706  17.988   7.459  0.00  0.00     0.108 A 
HETATM   11 Cl   UNK N   1      28.094  18.182   9.087  0.00  0.00    -0.064 Cl
HETATM   12  C   UNK N   1      31.510  16.644   5.537  0.00  0.00     0.069 A 
ENDROOT
BRANCH   1  13
HETATM   13  N   UNK N   1      27.805  18.881   3.929  0.00  0.00    -0.341 N 
HETATM   14  H   UNK N   1      28.355  19.161   3.161  0.00  0.00     0.167 HD
BRANCH  13  15
HETATM   15  C   UNK N   1      26.393  19.028   3.822  0.00  0.00     0.033 A 
HETATM   16  C   UNK N   1      25.531  17.954   4.089  0.00  0.00     0.031 A 
HETATM   17  C   UNK N   1      24.154  18.103   3.979  0.00  0.00     0.025 A 
HETATM   18  C   UNK N   1      23.615  19.333   3.612  0.00  0.00     0.059 A 
HETATM   19  C   UNK N   1      24.460  20.422   3.365  0.00  0.00     0.025 A 
HETATM   20  C   UNK N   1      25.848  20.271   3.479  0.00  0.00     0.031 A 
BRANCH  18  21
HETATM   21  S   UNK N   1      21.852  19.472   3.378  0.00  0.00     0.171 S 
HETATM   22  O   UNK N   1      21.522  20.941   3.067  0.00  0.00    -0.223 OA
HETATM   23  O   UNK N   1      21.248  19.391   4.788  0.00  0.00    -0.223 OA
HETATM   24  C   UNK N   1      20.821  18.416   2.328  0.00  0.00     0.167 C 
ENDBRANCH  18  21
ENDBRANCH  13  15
ENDBRANCH   1  13
TORSDOF 3
ENDMDL
MODEL 6
REMARK VINA RESULT:      -6.4      5.156      8.143
REMARK  3 active torsions:
REMARK  status: ('A' for Active; 'I' for Inactive)
REMARK    1  A    between atoms: S_2  and  C_4 
REMARK    2  A    between atoms: C_9  and  N_10 
REMARK    3  A    between atoms: N_10  and  C_11 
ROOT
HETATM    1  C   UNK N   1      32.604  17.568   7.874  0.00  0.00     0.132 A 
HETATM    2  N   UNK N   1      32.589  17.368   6.532  0.00  0.00    -0.224 N 
HETATM    3  C   UNK N   1      31.458  17.234   5.840  0.00  0.00     0.131 A 
HETATM    4  N   UNK N   1      30.241  17.299   6.433  0.00  0.00    -0.331 N 
ATOM      5  HN  UNK N   1      29.389  17.190   5.885  1.00  0.00     0.168 HD
HETATM    6  C   UNK N   1      33.144  17.038   4.473  0.00  0.00     0.111 A 
HETATM    7  N   UNK N   1      33.623  17.253   5.726  0.00  0.00    -0.302 N 
ATOM      8  HN  UNK N   1      34.605  17.315   5.992  1.00  0.00     0.186 HD
HETATM    9  C   UNK N   1      31.362  17.651   8.529  0.00  0.00     0.092 A 
HETATM   10  C   UNK N   1      30.181  17.513   7.780  0.00  0.00     0.108 A 
HETATM   11 Cl   UNK N   1      28.630  17.595   8.588  0.00  0.00    -0.064 Cl
HETATM   12  C   UNK N   1      31.744  17.018   4.514  0.00  0.00     0.069 A 
ENDROOT
BRANCH   1  13
HETATM   13  N   UNK N   1      33.843  17.668   8.574  0.00  0.00    -0.341 N 
HETATM   14  H   UNK N   1      34.403  18.460   8.403  0.00  0.00     0.167 HD
BRANCH  13  15
HETATM   15  C   UNK N   1      34.326  16.703   9.503  0.00  0.00     0.033 A 
HETATM   16  C   UNK N   1      33.826  15.392   9.512  0.00  0.00     0.031 A 
HETATM   17  C   UNK N   1      34.299  14.456  10.423  0.00  0.00     0.025 A 
HETATM   18  C   UNK N   1      35.291  14.812  11.334  0.00  0.00     0.059 A 
HETATM   19  C   UNK N   1      35.818  16.110  11.323  0.00  0.00     0.025 A 
HETATM   20  C   UNK N   1      35.341  17.052  10.402  0.00  0.00     0.031 A 
BRANCH  18  21
HETATM   21  S   UNK N   1      35.809  13.625  12.560  0.00  0.00     0.171 S 
HETATM   22  O   UNK N   1      34.562  13.128  13.307  0.00  0.00    -0.223 OA
HETATM   23  O   UNK N   1      36.440  14.457  13.687  0.00  0.00    -0.223 OA
HETATM   24  C   UNK N   1      36.919  12.219  12.292  0.00  0.00     0.167 C 
ENDBRANCH  18  21
ENDBRANCH  13  15
ENDBRANCH   1  13
TORSDOF 3
ENDMDL
MODEL 7
REMARK VINA RESULT:      -6.3      5.497      7.986
REMARK  3 active torsions:
REMARK  status: ('A' for Active; 'I' for Inactive)
REMARK    1  A    between atoms: S_2  and  C_4 
REMARK    2  A    between atoms: C_9  and  N_10 
REMARK    3  A    between atoms: N_10  and  C_11 
ROOT
HETATM    1  C   UNK N   1      31.320  16.993   7.317  0.00  0.00     0.132 A 
HETATM    2  N   UNK N   1      30.458  17.535   8.214  0.00  0.00    -0.224 N 
HETATM    3  C   UNK N   1      29.138  17.531   8.032  0.00  0.00     0.131 A 
HETATM    4  N   UNK N   1      28.565  16.972   6.938  0.00  0.00    -0.331 N 
ATOM      5  HN  UNK N   1      27.553  16.984   6.817  1.00  0.00     0.168 HD
HETATM    6  C   UNK N   1      29.585  18.551   9.906  0.00  0.00     0.111 A 
HETATM    7  N   UNK N   1      30.752  18.147   9.342  0.00  0.00    -0.302 N 
ATOM      8  HN  UNK N   1      31.687  18.292   9.723  1.00  0.00     0.186 HD
HETATM    9  C   UNK N   1      30.767  16.393   6.171  0.00  0.00     0.092 A 
HETATM   10  C   UNK N   1      29.372  16.394   6.001  0.00  0.00     0.108 A 
HETATM   11 Cl   UNK N   1      28.675  15.668   4.569  0.00  0.00    -0.064 Cl
HETATM   12  C   UNK N   1      28.519  18.169   9.080  0.00  0.00     0.069 A 
ENDROOT
BRANCH   1  13
HETATM   13  N   UNK N   1      32.727  17.056   7.541  0.00  0.00    -0.341 N 
HETATM   14  H   UNK N   1      33.267  17.591   6.914  0.00  0.00     0.167 HD
BRANCH  13  15
HETATM   15  C   UNK N   1      33.406  16.400   8.607  0.00  0.00     0.033 A 
HETATM   16  C   UNK N   1      34.414  17.052   9.334  0.00  0.00     0.031 A 
HETATM   17  C   UNK N   1      35.074  16.405  10.371  0.00  0.00     0.025 A 
HETATM   18  C   UNK N   1      34.729  15.099  10.708  0.00  0.00     0.059 A 
HETATM   19  C   UNK N   1      33.709  14.442  10.009  0.00  0.00     0.025 A 
HETATM   20  C   UNK N   1      33.042  15.096   8.964  0.00  0.00     0.031 A 
BRANCH  18  21
HETATM   21  S   UNK N   1      35.659  14.254  11.973  0.00  0.00     0.171 S 
HETATM   22  O   UNK N   1      34.668  13.537  12.903  0.00  0.00    -0.223 OA
HETATM   23  O   UNK N   1      36.127  15.356  12.936  0.00  0.00    -0.223 OA
HETATM   24  C   UNK N   1      37.090  13.174  11.714  0.00  0.00     0.167 C 
ENDBRANCH  18  21
ENDBRANCH  13  15
ENDBRANCH   1  13
TORSDOF 3
ENDMDL
MODEL 8
REMARK VINA RESULT:      -6.2     18.354     20.865
REMARK  3 active torsions:
REMARK  status: ('A' for Active; 'I' for Inactive)
REMARK    1  A    between atoms: S_2  and  C_4 
REMARK    2  A    between atoms: C_9  and  N_10 
REMARK    3  A    between atoms: N_10  and  C_11 
ROOT
HETATM    1  C   UNK N   1      27.290  24.846  -4.334  0.00  0.00     0.132 A 
HETATM    2  N   UNK N   1      26.524  25.957  -4.470  0.00  0.00    -0.224 N 
HETATM    3  C   UNK N   1      25.543  26.048  -5.367  0.00  0.00     0.131 A 
HETATM    4  N   UNK N   1      25.237  25.024  -6.201  0.00  0.00    -0.331 N 
ATOM      5  HN  UNK N   1      24.484  25.116  -6.882  1.00  0.00     0.168 HD
HETATM    6  C   UNK N   1      25.674  27.931  -4.279  0.00  0.00     0.111 A 
HETATM    7  N   UNK N   1      26.622  27.086  -3.799  0.00  0.00    -0.302 N 
ATOM      8  HN  UNK N   1      27.289  27.289  -3.054  1.00  0.00     0.186 HD
HETATM    9  C   UNK N   1      27.000  23.755  -5.174  0.00  0.00     0.092 A 
HETATM   10  C   UNK N   1      25.957  23.868  -6.109  0.00  0.00     0.108 A 
HETATM   11 Cl   UNK N   1      25.601  22.524  -7.173  0.00  0.00    -0.064 Cl
HETATM   12  C   UNK N   1      24.959  27.289  -5.298  0.00  0.00     0.069 A 
ENDROOT
BRANCH   1  13
HETATM   13  N   UNK N   1      28.353  24.813  -3.383  0.00  0.00    -0.341 N 
HETATM   14  H   UNK N   1      28.275  25.390  -2.589  0.00  0.00     0.167 HD
BRANCH  13  15
HETATM   15  C   UNK N   1      29.519  24.004  -3.503  0.00  0.00     0.033 A 
HETATM   16  C   UNK N   1      30.587  24.390  -4.326  0.00  0.00     0.031 A 
HETATM   17  C   UNK N   1      31.720  23.595  -4.441  0.00  0.00     0.025 A 
HETATM   18  C   UNK N   1      31.810  22.405  -3.722  0.00  0.00     0.059 A 
HETATM   19  C   UNK N   1      30.764  22.017  -2.876  0.00  0.00     0.025 A 
HETATM   20  C   UNK N   1      29.622  22.821  -2.761  0.00  0.00     0.031 A 
BRANCH  18  21
HETATM   21  S   UNK N   1      33.228  21.351  -3.963  0.00  0.00     0.171 S 
HETATM   22  O   UNK N   1      32.739  20.004  -4.519  0.00  0.00    -0.223 OA
HETATM   23  O   UNK N   1      33.634  20.888  -2.556  0.00  0.00    -0.223 OA
HETATM   24  C   UNK N   1      34.768  21.797  -4.808  0.00  0.00     0.167 C 
ENDBRANCH  18  21
ENDBRANCH  13  15
ENDBRANCH   1  13
TORSDOF 3
ENDMDL
MODEL 9
REMARK VINA RESULT:      -6.1      2.549      4.034
REMARK  3 active torsions:
REMARK  status: ('A' for Active; 'I' for Inactive)
REMARK    1  A    between atoms: S_2  and  C_4 
REMARK    2  A    between atoms: C_9  and  N_10 
REMARK    3  A    between atoms: N_10  and  C_11 
ROOT
HETATM    1  C   UNK N   1      36.231  15.192  11.267  0.00  0.00     0.132 A 
HETATM    2  N   UNK N   1      36.999  14.251  10.663  0.00  0.00    -0.224 N 
HETATM    3  C   UNK N   1      37.449  13.173  11.304  0.00  0.00     0.131 A 
HETATM    4  N   UNK N   1      37.158  12.938  12.606  0.00  0.00    -0.331 N 
ATOM      5  HN  UNK N   1      37.516  12.109  13.078  1.00  0.00     0.168 HD
HETATM    6  C   UNK N   1      38.186  13.129   9.253  0.00  0.00     0.111 A 
HETATM    7  N   UNK N   1      37.433  14.246   9.420  0.00  0.00    -0.302 N 
ATOM      8  HN  UNK N   1      37.238  14.952   8.710  1.00  0.00     0.186 HD
HETATM    9  C   UNK N   1      35.896  14.984  12.618  0.00  0.00     0.092 A 
HETATM   10  C   UNK N   1      36.376  13.837  13.274  0.00  0.00     0.108 A 
HETATM   11 Cl   UNK N   1      35.983  13.578  14.960  0.00  0.00    -0.064 Cl
HETATM   12  C   UNK N   1      38.219  12.413  10.457  0.00  0.00     0.069 A 
ENDROOT
BRANCH   1  13
HETATM   13  N   UNK N   1      35.806  16.348  10.547  0.00  0.00    -0.341 N 
HETATM   14  H   UNK N   1      36.348  17.166  10.632  0.00  0.00     0.167 HD
BRANCH  13  15
HETATM   15  C   UNK N   1      34.652  16.401   9.714  0.00  0.00     0.033 A 
HETATM   16  C   UNK N   1      33.711  15.360   9.712  0.00  0.00     0.031 A 
HETATM   17  C   UNK N   1      32.590  15.417   8.894  0.00  0.00     0.025 A 
HETATM   18  C   UNK N   1      32.382  16.523   8.073  0.00  0.00     0.059 A 
HETATM   19  C   UNK N   1      33.299  17.582   8.081  0.00  0.00     0.025 A 
HETATM   20  C   UNK N   1      34.429  17.524   8.908  0.00  0.00     0.031 A 
BRANCH  18  21
HETATM   21  S   UNK N   1      30.991  16.528   6.958  0.00  0.00     0.171 S 
HETATM   22  O   UNK N   1      30.851  15.120   6.357  0.00  0.00    -0.223 OA
HETATM   23  O   UNK N   1      31.479  17.269   5.704  0.00  0.00    -0.223 OA
HETATM   24  C   UNK N   1      29.334  17.171   7.309  0.00  0.00     0.167 C 
ENDBRANCH  18  21
ENDBRANCH  13  15
ENDBRANCH   1  13
TORSDOF 3
ENDMDL
