REMARK  3 active torsions:
REMARK  status: ('A' for Active; 'I' for Inactive)
REMARK    1  A    between atoms: S_2  and  C_4 
REMARK    2  A    between atoms: C_9  and  N_10 
REMARK    3  A    between atoms: N_10  and  C_11 
ROOT
HETATM    1  C   UNK N   1      -1.262   1.405  -0.123  0.00  0.00     0.132 A 
HETATM    2  N   UNK N   1      -2.435   2.046   0.108  0.00  0.00    -0.224 N 
HETATM    3  C   UNK N   1      -2.523   3.373   0.192  0.00  0.00     0.131 A 
HETATM    4  N   UNK N   1      -1.441   4.175   0.041  0.00  0.00    -0.331 N 
ATOM      5  HN  UNK N   1      -1.530   5.188   0.113  1.00  0.00     0.168 HD
HETATM    6  C   UNK N   1      -4.500   2.517   0.520  0.00  0.00     0.111 A 
HETATM    7  N   UNK N   1      -3.620   1.506   0.303  0.00  0.00    -0.302 N 
ATOM      8  HN  UNK N   1      -3.838   0.510   0.293  1.00  0.00     0.186 HD
HETATM    9  C   UNK N   1      -0.114   2.200  -0.296  0.00  0.00     0.092 A 
HETATM   10  C   UNK N   1      -0.229   3.598  -0.209  0.00  0.00     0.108 A 
HETATM   11 Cl   UNK N   1       1.196   4.596  -0.402  0.00  0.00    -0.064 Cl
HETATM   12  C   UNK N   1      -3.820   3.740   0.457  0.00  0.00     0.069 A 
ENDROOT
BRANCH   1  13
HETATM   13  N   UNK N   1      -1.215  -0.020  -0.167  0.00  0.00    -0.341 N 
HETATM   14  H   UNK N   1      -2.062  -0.502  -0.310  0.00  0.00     0.167 HD
BRANCH  13  15
HETATM   15  C   UNK N   1      -0.029  -0.794  -0.019  0.00  0.00     0.033 A 
HETATM   16  C   UNK N   1       1.168  -0.209   0.421  0.00  0.00     0.031 A 
HETATM   17  C   UNK N   1       2.322  -0.969   0.560  0.00  0.00     0.025 A 
HETATM   18  C   UNK N   1       2.296  -2.332   0.274  0.00  0.00     0.059 A 
HETATM   19  C   UNK N   1       1.104  -2.937  -0.143  0.00  0.00     0.025 A 
HETATM   20  C   UNK N   1      -0.060  -2.169  -0.281  0.00  0.00     0.031 A 
BRANCH  18  21
HETATM   21  S   UNK N   1       3.813  -3.266   0.361  0.00  0.00     0.171 S 
HETATM   22  O   UNK N   1       4.476  -2.983   1.718  0.00  0.00    -0.223 OA
HETATM   23  O   UNK N   1       4.803  -2.516  -0.543  0.00  0.00    -0.223 OA
HETATM   24  C   UNK N   1       4.015  -5.025  -0.023  0.00  0.00     0.167 C 
ENDBRANCH  18  21
ENDBRANCH  13  15
ENDBRANCH   1  13
TORSDOF 3
