MODEL 1
REMARK VINA RESULT:      -6.0      0.000      0.000
REMARK  7 active torsions:
REMARK  status: ('A' for Active; 'I' for Inactive)
REMARK    1  A    between atoms: C_1  and  C_7 
REMARK    2  A    between atoms: C_7  and  C_8 
REMARK    3  A    between atoms: C_8  and  C_9 
REMARK    4  A    between atoms: C_8  and  N_12 
REMARK    5  A    between atoms: C_9  and  O_10 
REMARK    6  A    between atoms: N_12  and  S_13 
REMARK    7  A    between atoms: S_13  and  N_14 
ROOT
HETATM    1  C   UNK N   1      33.617  17.021   8.564  0.00  0.00     0.196 C 
ENDROOT
BRANCH   1   2
HETATM    2  C   UNK N   1      32.425  16.480   7.756  0.00  0.00     0.075 C 
BRANCH   2   3
HETATM    3  C   UNK N   1      31.127  17.247   7.825  0.00  0.00    -0.056 A 
HETATM    4  C   UNK N   1      30.872  18.020   8.964  0.00  0.00     0.007 A 
HETATM    5  C   UNK N   1      29.663  18.711   9.094  0.00  0.00     0.001 A 
HETATM    6  C   UNK N   1      28.699  18.631   8.086  0.00  0.00     0.000 A 
HETATM    7  C   UNK N   1      28.947  17.867   6.943  0.00  0.00     0.001 A 
HETATM    8  C   UNK N   1      30.157  17.178   6.811  0.00  0.00     0.007 A 
ENDBRANCH   2   3
ENDBRANCH   1   2
BRANCH   1   9
HETATM    9  C   UNK N   1      34.376  18.082   7.788  0.00  0.00     0.164 C 
HETATM   10  O   UNK N   1      34.407  18.047   6.573  0.00  0.00    -0.648 OA
BRANCH   9  11
HETATM   11  O   UNK N   1      35.047  19.059   8.434  0.00  0.00    -0.775 OA
HETATM   12  H   UNK N   1      35.914  19.412   8.402  0.00  0.00     0.167 HD
ENDBRANCH   9  11
ENDBRANCH   1   9
BRANCH   1  13
HETATM   13  N   UNK N   1      34.489  15.873   8.841  0.00  0.00    -0.288 N 
HETATM   14  H   UNK N   1      34.653  15.128   8.165  0.00  0.00     0.174 HD
BRANCH  13  15
HETATM   15  S   UNK N   1      35.236  15.894  10.456  0.00  0.00     0.313 S 
HETATM   16  O   UNK N   1      34.316  15.111  11.405  0.00  0.00    -0.183 OA
HETATM   17  O   UNK N   1      35.273  17.319  11.027  0.00  0.00    -0.183 OA
BRANCH  15  18
HETATM   18  N   UNK N   1      36.834  15.152  10.539  0.00  0.00    -0.312 N 
HETATM   19  H   UNK N   1      37.689  15.672  10.342  0.00  0.00     0.170 HD
HETATM   20  H   UNK N   1      36.907  14.166  10.793  0.00  0.00     0.170 HD
ENDBRANCH  15  18
ENDBRANCH  13  15
ENDBRANCH   1  13
TORSDOF 7
ENDMDL
MODEL 2
REMARK VINA RESULT:      -5.9      0.964      1.676
REMARK  7 active torsions:
REMARK  status: ('A' for Active; 'I' for Inactive)
REMARK    1  A    between atoms: C_1  and  C_7 
REMARK    2  A    between atoms: C_7  and  C_8 
REMARK    3  A    between atoms: C_8  and  C_9 
REMARK    4  A    between atoms: C_8  and  N_12 
REMARK    5  A    between atoms: C_9  and  O_10 
REMARK    6  A    between atoms: N_12  and  S_13 
REMARK    7  A    between atoms: S_13  and  N_14 
ROOT
HETATM    1  C   UNK N   1      33.571  17.039   8.445  0.00  0.00     0.196 C 
ENDROOT
BRANCH   1   2
HETATM    2  C   UNK N   1      32.346  16.505   7.682  0.00  0.00     0.075 C 
BRANCH   2   3
HETATM    3  C   UNK N   1      31.026  17.204   7.901  0.00  0.00    -0.056 A 
HETATM    4  C   UNK N   1      30.013  17.021   6.952  0.00  0.00     0.007 A 
HETATM    5  C   UNK N   1      28.789  17.685   7.087  0.00  0.00     0.001 A 
HETATM    6  C   UNK N   1      28.572  18.538   8.171  0.00  0.00     0.000 A 
HETATM    7  C   UNK N   1      29.575  18.723   9.126  0.00  0.00     0.001 A 
HETATM    8  C   UNK N   1      30.798  18.057   8.994  0.00  0.00     0.007 A 
ENDBRANCH   2   3
ENDBRANCH   1   2
BRANCH   1   9
HETATM    9  C   UNK N   1      34.288  18.119   7.656  0.00  0.00     0.164 C 
HETATM   10  O   UNK N   1      34.296  18.085   6.440  0.00  0.00    -0.648 OA
BRANCH   9  11
HETATM   11  O   UNK N   1      34.946  19.112   8.289  0.00  0.00    -0.775 OA
HETATM   12  H   UNK N   1      35.032  20.039   8.177  0.00  0.00     0.167 HD
ENDBRANCH   9  11
ENDBRANCH   1   9
BRANCH   1  13
HETATM   13  N   UNK N   1      34.461  15.892   8.662  0.00  0.00    -0.288 N 
HETATM   14  H   UNK N   1      34.568  15.140   7.981  0.00  0.00     0.174 HD
BRANCH  13  15
HETATM   15  S   UNK N   1      35.337  15.927  10.209  0.00  0.00     0.313 S 
HETATM   16  O   UNK N   1      35.580  17.399  10.574  0.00  0.00    -0.183 OA
HETATM   17  O   UNK N   1      36.740  15.319  10.062  0.00  0.00    -0.183 OA
BRANCH  15  18
HETATM   18  N   UNK N   1      34.479  15.184  11.560  0.00  0.00    -0.312 N 
HETATM   19  H   UNK N   1      33.614  15.573  11.939  0.00  0.00     0.170 HD
HETATM   20  H   UNK N   1      34.860  14.336  11.979  0.00  0.00     0.170 HD
ENDBRANCH  15  18
ENDBRANCH  13  15
ENDBRANCH   1  13
TORSDOF 7
ENDMDL
MODEL 3
REMARK VINA RESULT:      -5.7      5.708      7.100
REMARK  7 active torsions:
REMARK  status: ('A' for Active; 'I' for Inactive)
REMARK    1  A    between atoms: C_1  and  C_7 
REMARK    2  A    between atoms: C_7  and  C_8 
REMARK    3  A    between atoms: C_8  and  C_9 
REMARK    4  A    between atoms: C_8  and  N_12 
REMARK    5  A    between atoms: C_9  and  O_10 
REMARK    6  A    between atoms: N_12  and  S_13 
REMARK    7  A    between atoms: S_13  and  N_14 
ROOT
HETATM    1  C   UNK N   1      28.715  18.535   7.316  0.00  0.00     0.196 C 
ENDROOT
BRANCH   1   2
HETATM    2  C   UNK N   1      29.312  17.220   6.785  0.00  0.00     0.075 C 
BRANCH   2   3
HETATM    3  C   UNK N   1      30.674  17.283   6.136  0.00  0.00    -0.056 A 
HETATM    4  C   UNK N   1      31.806  17.213   6.958  0.00  0.00     0.007 A 
HETATM    5  C   UNK N   1      33.087  17.313   6.407  0.00  0.00     0.001 A 
HETATM    6  C   UNK N   1      33.245  17.486   5.030  0.00  0.00     0.000 A 
HETATM    7  C   UNK N   1      32.123  17.551   4.201  0.00  0.00     0.001 A 
HETATM    8  C   UNK N   1      30.840  17.448   4.751  0.00  0.00     0.007 A 
ENDBRANCH   2   3
ENDBRANCH   1   2
BRANCH   1   9
HETATM    9  C   UNK N   1      28.557  18.502   8.826  0.00  0.00     0.164 C 
HETATM   10  O   UNK N   1      29.522  18.670   9.545  0.00  0.00    -0.648 OA
BRANCH   9  11
HETATM   11  O   UNK N   1      27.354  18.260   9.387  0.00  0.00    -0.775 OA
HETATM   12  H   UNK N   1      26.768  18.729   9.948  0.00  0.00     0.167 HD
ENDBRANCH   9  11
ENDBRANCH   1   9
BRANCH   1  13
HETATM   13  N   UNK N   1      27.405  18.688   6.671  0.00  0.00    -0.288 N 
HETATM   14  H   UNK N   1      26.874  17.899   6.303  0.00  0.00     0.174 HD
BRANCH  13  15
HETATM   15  S   UNK N   1      26.822  20.367   6.589  0.00  0.00     0.313 S 
HETATM   16  O   UNK N   1      25.852  20.465   5.402  0.00  0.00    -0.183 OA
HETATM   17  O   UNK N   1      27.966  21.332   6.246  0.00  0.00    -0.183 OA
BRANCH  15  18
HETATM   18  N   UNK N   1      25.955  20.918   8.024  0.00  0.00    -0.312 N 
HETATM   19  H   UNK N   1      26.429  21.358   8.813  0.00  0.00     0.170 HD
HETATM   20  H   UNK N   1      24.943  20.793   8.066  0.00  0.00     0.170 HD
ENDBRANCH  15  18
ENDBRANCH  13  15
ENDBRANCH   1  13
TORSDOF 7
ENDMDL
MODEL 4
REMARK VINA RESULT:      -5.6      5.563      7.107
REMARK  7 active torsions:
REMARK  status: ('A' for Active; 'I' for Inactive)
REMARK    1  A    between atoms: C_1  and  C_7 
REMARK    2  A    between atoms: C_7  and  C_8 
REMARK    3  A    between atoms: C_8  and  C_9 
REMARK    4  A    between atoms: C_8  and  N_12 
REMARK    5  A    between atoms: C_9  and  O_10 
REMARK    6  A    between atoms: N_12  and  S_13 
REMARK    7  A    between atoms: S_13  and  N_14 
ROOT
HETATM    1  C   UNK N   1      28.730  18.459   7.416  0.00  0.00     0.196 C 
ENDROOT
BRANCH   1   2
HETATM    2  C   UNK N   1      29.390  17.185   6.861  0.00  0.00     0.075 C 
BRANCH   2   3
HETATM    3  C   UNK N   1      30.780  17.310   6.288  0.00  0.00    -0.056 A 
HETATM    4  C   UNK N   1      30.920  17.401   4.897  0.00  0.00     0.007 A 
HETATM    5  C   UNK N   1      32.190  17.472   4.317  0.00  0.00     0.001 A 
HETATM    6  C   UNK N   1      33.330  17.450   5.123  0.00  0.00     0.000 A 
HETATM    7  C   UNK N   1      33.201  17.366   6.512  0.00  0.00     0.001 A 
HETATM    8  C   UNK N   1      31.931  17.297   7.094  0.00  0.00     0.007 A 
ENDBRANCH   2   3
ENDBRANCH   1   2
BRANCH   1   9
HETATM    9  C   UNK N   1      28.573  18.390   8.925  0.00  0.00     0.164 C 
HETATM   10  O   UNK N   1      29.508  18.671   9.650  0.00  0.00    -0.648 OA
BRANCH   9  11
HETATM   11  O   UNK N   1      27.410  17.991   9.479  0.00  0.00    -0.775 OA
HETATM   12  H   UNK N   1      26.611  17.616   9.165  0.00  0.00     0.167 HD
ENDBRANCH   9  11
ENDBRANCH   1   9
BRANCH   1  13
HETATM   13  N   UNK N   1      27.414  18.562   6.773  0.00  0.00    -0.288 N 
HETATM   14  H   UNK N   1      26.650  17.916   6.971  0.00  0.00     0.174 HD
BRANCH  13  15
HETATM   15  S   UNK N   1      27.266  19.910   5.621  0.00  0.00     0.313 S 
HETATM   16  O   UNK N   1      27.728  21.187   6.338  0.00  0.00    -0.183 OA
HETATM   17  O   UNK N   1      25.796  20.167   5.261  0.00  0.00    -0.183 OA
BRANCH  15  18
HETATM   18  N   UNK N   1      28.242  19.743   4.161  0.00  0.00    -0.312 N 
HETATM   19  H   UNK N   1      29.087  19.172   4.131  0.00  0.00     0.170 HD
HETATM   20  H   UNK N   1      27.951  20.235   3.316  0.00  0.00     0.170 HD
ENDBRANCH  15  18
ENDBRANCH  13  15
ENDBRANCH   1  13
TORSDOF 7
ENDMDL
MODEL 5
REMARK VINA RESULT:      -5.5      8.573     10.188
REMARK  7 active torsions:
REMARK  status: ('A' for Active; 'I' for Inactive)
REMARK    1  A    between atoms: C_1  and  C_7 
REMARK    2  A    between atoms: C_7  and  C_8 
REMARK    3  A    between atoms: C_8  and  C_9 
REMARK    4  A    between atoms: C_8  and  N_12 
REMARK    5  A    between atoms: C_9  and  O_10 
REMARK    6  A    between atoms: N_12  and  S_13 
REMARK    7  A    between atoms: S_13  and  N_14 
ROOT
HETATM    1  C   UNK N   1      35.705  12.834  14.834  0.00  0.00     0.196 C 
ENDROOT
BRANCH   1   2
HETATM    2  C   UNK N   1      34.750  13.041  16.022  0.00  0.00     0.075 C 
BRANCH   2   3
HETATM    3  C   UNK N   1      35.093  12.356  17.323  0.00  0.00    -0.056 A 
HETATM    4  C   UNK N   1      35.108  13.124  18.494  0.00  0.00     0.007 A 
HETATM    5  C   UNK N   1      35.466  12.544  19.715  0.00  0.00     0.001 A 
HETATM    6  C   UNK N   1      35.812  11.192  19.774  0.00  0.00     0.000 A 
HETATM    7  C   UNK N   1      35.794  10.416  18.612  0.00  0.00     0.001 A 
HETATM    8  C   UNK N   1      35.434  10.995  17.390  0.00  0.00     0.007 A 
ENDBRANCH   2   3
ENDBRANCH   1   2
BRANCH   1   9
HETATM    9  C   UNK N   1      36.566  14.061  14.596  0.00  0.00     0.164 C 
HETATM   10  O   UNK N   1      36.357  14.779  13.637  0.00  0.00    -0.648 OA
BRANCH   9  11
HETATM   11  O   UNK N   1      37.589  14.357  15.425  0.00  0.00    -0.775 OA
HETATM   12  H   UNK N   1      37.673  14.611  16.323  0.00  0.00     0.167 HD
ENDBRANCH   9  11
ENDBRANCH   1   9
BRANCH   1  13
HETATM   13  N   UNK N   1      34.862  12.570  13.662  0.00  0.00    -0.288 N 
HETATM   14  H   UNK N   1      34.632  13.286  12.973  0.00  0.00     0.174 HD
BRANCH  13  15
HETATM   15  S   UNK N   1      34.278  10.893  13.544  0.00  0.00     0.313 S 
HETATM   16  O   UNK N   1      33.132  10.728  14.553  0.00  0.00    -0.183 OA
HETATM   17  O   UNK N   1      35.356   9.900  14.003  0.00  0.00    -0.183 OA
BRANCH  15  18
HETATM   18  N   UNK N   1      33.652  10.440  11.958  0.00  0.00    -0.312 N 
HETATM   19  H   UNK N   1      32.867   9.798  11.843  0.00  0.00     0.170 HD
HETATM   20  H   UNK N   1      34.091  10.832  11.125  0.00  0.00     0.170 HD
ENDBRANCH  15  18
ENDBRANCH  13  15
ENDBRANCH   1  13
TORSDOF 7
ENDMDL
MODEL 6
REMARK VINA RESULT:      -5.5      6.335      8.231
REMARK  7 active torsions:
REMARK  status: ('A' for Active; 'I' for Inactive)
REMARK    1  A    between atoms: C_1  and  C_7 
REMARK    2  A    between atoms: C_7  and  C_8 
REMARK    3  A    between atoms: C_8  and  C_9 
REMARK    4  A    between atoms: C_8  and  N_12 
REMARK    5  A    between atoms: C_9  and  O_10 
REMARK    6  A    between atoms: N_12  and  S_13 
REMARK    7  A    between atoms: S_13  and  N_14 
ROOT
HETATM    1  C   UNK N   1      35.722  13.701  12.834  0.00  0.00     0.196 C 
ENDROOT
BRANCH   1   2
HETATM    2  C   UNK N   1      36.695  13.315  13.962  0.00  0.00     0.075 C 
BRANCH   2   3
HETATM    3  C   UNK N   1      36.439  13.889  15.334  0.00  0.00    -0.056 A 
HETATM    4  C   UNK N   1      37.174  15.012  15.733  0.00  0.00     0.007 A 
HETATM    5  C   UNK N   1      37.006  15.550  17.012  0.00  0.00     0.001 A 
HETATM    6  C   UNK N   1      36.101  14.968  17.903  0.00  0.00     0.000 A 
HETATM    7  C   UNK N   1      35.358  13.851  17.512  0.00  0.00     0.001 A 
HETATM    8  C   UNK N   1      35.524  13.313  16.232  0.00  0.00     0.007 A 
ENDBRANCH   2   3
ENDBRANCH   1   2
BRANCH   1   9
HETATM    9  C   UNK N   1      35.568  12.577  11.826  0.00  0.00     0.164 C 
HETATM   10  O   UNK N   1      36.550  12.087  11.302  0.00  0.00    -0.648 OA
BRANCH   9  11
HETATM   11  O   UNK N   1      34.345  12.127  11.478  0.00  0.00    -0.775 OA
HETATM   12  H   UNK N   1      33.993  11.615  10.776  0.00  0.00     0.167 HD
ENDBRANCH   9  11
ENDBRANCH   1   9
BRANCH   1  13
HETATM   13  N   UNK N   1      36.284  14.892  12.186  0.00  0.00    -0.288 N 
HETATM   14  H   UNK N   1      37.195  15.279  12.435  0.00  0.00     0.174 HD
BRANCH  13  15
HETATM   15  S   UNK N   1      35.245  15.601  10.929  0.00  0.00     0.313 S 
HETATM   16  O   UNK N   1      35.827  15.202   9.564  0.00  0.00    -0.183 OA
HETATM   17  O   UNK N   1      35.316  17.135  10.955  0.00  0.00    -0.183 OA
BRANCH  15  18
HETATM   18  N   UNK N   1      33.567  15.058  10.965  0.00  0.00    -0.312 N 
HETATM   19  H   UNK N   1      32.924  15.218  10.189  0.00  0.00     0.170 HD
HETATM   20  H   UNK N   1      33.226  14.566  11.792  0.00  0.00     0.170 HD
ENDBRANCH  15  18
ENDBRANCH  13  15
ENDBRANCH   1  13
TORSDOF 7
ENDMDL
MODEL 7
REMARK VINA RESULT:      -5.5      2.254      3.142
REMARK  7 active torsions:
REMARK  status: ('A' for Active; 'I' for Inactive)
REMARK    1  A    between atoms: C_1  and  C_7 
REMARK    2  A    between atoms: C_7  and  C_8 
REMARK    3  A    between atoms: C_8  and  C_9 
REMARK    4  A    between atoms: C_8  and  N_12 
REMARK    5  A    between atoms: C_9  and  O_10 
REMARK    6  A    between atoms: N_12  and  S_13 
REMARK    7  A    between atoms: S_13  and  N_14 
ROOT
HETATM    1  C   UNK N   1      34.057  16.924   8.025  0.00  0.00     0.196 C 
ENDROOT
BRANCH   1   2
HETATM    2  C   UNK N   1      34.133  17.328   6.542  0.00  0.00     0.075 C 
BRANCH   2   3
HETATM    3  C   UNK N   1      32.854  17.296   5.741  0.00  0.00    -0.056 A 
HETATM    4  C   UNK N   1      31.651  17.063   6.419  0.00  0.00     0.007 A 
HETATM    5  C   UNK N   1      30.447  16.977   5.714  0.00  0.00     0.001 A 
HETATM    6  C   UNK N   1      30.437  17.123   4.325  0.00  0.00     0.000 A 
HETATM    7  C   UNK N   1      31.631  17.362   3.640  0.00  0.00     0.001 A 
HETATM    8  C   UNK N   1      32.836  17.450   4.345  0.00  0.00     0.007 A 
ENDBRANCH   2   3
ENDBRANCH   1   2
BRANCH   1   9
HETATM    9  C   UNK N   1      34.894  17.844   8.894  0.00  0.00     0.164 C 
HETATM   10  O   UNK N   1      35.262  17.479   9.994  0.00  0.00    -0.648 OA
BRANCH   9  11
HETATM   11  O   UNK N   1      35.218  19.084   8.472  0.00  0.00    -0.775 OA
HETATM   12  H   UNK N   1      35.937  19.471   8.013  0.00  0.00     0.167 HD
ENDBRANCH   9  11
ENDBRANCH   1   9
BRANCH   1  13
HETATM   13  N   UNK N   1      34.560  15.548   8.109  0.00  0.00    -0.288 N 
HETATM   14  H   UNK N   1      35.415  15.242   7.644  0.00  0.00     0.174 HD
BRANCH  13  15
HETATM   15  S   UNK N   1      33.554  14.459   9.093  0.00  0.00     0.313 S 
HETATM   16  O   UNK N   1      34.354  13.169   9.326  0.00  0.00    -0.183 OA
HETATM   17  O   UNK N   1      32.304  14.015   8.319  0.00  0.00    -0.183 OA
BRANCH  15  18
HETATM   18  N   UNK N   1      33.108  15.097  10.677  0.00  0.00    -0.312 N 
HETATM   19  H   UNK N   1      32.196  15.516  10.860  0.00  0.00     0.170 HD
HETATM   20  H   UNK N   1      33.786  15.045  11.437  0.00  0.00     0.170 HD
ENDBRANCH  15  18
ENDBRANCH  13  15
ENDBRANCH   1  13
TORSDOF 7
ENDMDL
MODEL 8
REMARK VINA RESULT:      -5.3      1.412      1.870
REMARK  7 active torsions:
REMARK  status: ('A' for Active; 'I' for Inactive)
REMARK    1  A    between atoms: C_1  and  C_7 
REMARK    2  A    between atoms: C_7  and  C_8 
REMARK    3  A    between atoms: C_8  and  C_9 
REMARK    4  A    between atoms: C_8  and  N_12 
REMARK    5  A    between atoms: C_9  and  O_10 
REMARK    6  A    between atoms: N_12  and  S_13 
REMARK    7  A    between atoms: S_13  and  N_14 
ROOT
HETATM    1  C   UNK N   1      33.184  16.778   7.925  0.00  0.00     0.196 C 
ENDROOT
BRANCH   1   2
HETATM    2  C   UNK N   1      31.853  16.635   7.167  0.00  0.00     0.075 C 
BRANCH   2   3
HETATM    3  C   UNK N   1      30.628  17.269   7.777  0.00  0.00    -0.056 A 
HETATM    4  C   UNK N   1      30.790  18.067   8.917  0.00  0.00     0.007 A 
HETATM    5  C   UNK N   1      29.679  18.637   9.545  0.00  0.00     0.001 A 
HETATM    6  C   UNK N   1      28.396  18.413   9.038  0.00  0.00     0.000 A 
HETATM    7  C   UNK N   1      28.224  17.625   7.898  0.00  0.00     0.001 A 
HETATM    8  C   UNK N   1      29.336  17.055   7.268  0.00  0.00     0.007 A 
ENDBRANCH   2   3
ENDBRANCH   1   2
BRANCH   1   9
HETATM    9  C   UNK N   1      34.079  17.822   7.283  0.00  0.00     0.164 C 
HETATM   10  O   UNK N   1      34.705  18.601   7.976  0.00  0.00    -0.648 OA
BRANCH   9  11
HETATM   11  O   UNK N   1      34.170  17.919   5.940  0.00  0.00    -0.775 OA
HETATM   12  H   UNK N   1      33.580  18.120   5.240  0.00  0.00     0.167 HD
ENDBRANCH   9  11
ENDBRANCH   1   9
BRANCH   1  13
HETATM   13  N   UNK N   1      33.831  15.461   7.887  0.00  0.00    -0.288 N 
HETATM   14  H   UNK N   1      33.941  14.925   7.026  0.00  0.00     0.174 HD
BRANCH  13  15
HETATM   15  S   UNK N   1      34.408  14.882   9.467  0.00  0.00     0.313 S 
HETATM   16  O   UNK N   1      35.630  15.728   9.855  0.00  0.00    -0.183 OA
HETATM   17  O   UNK N   1      34.938  13.444   9.367  0.00  0.00    -0.183 OA
BRANCH  15  18
HETATM   18  N   UNK N   1      33.234  15.020  10.777  0.00  0.00    -0.312 N 
HETATM   19  H   UNK N   1      33.489  15.355  11.707  0.00  0.00     0.170 HD
HETATM   20  H   UNK N   1      32.265  14.756  10.600  0.00  0.00     0.170 HD
ENDBRANCH  15  18
ENDBRANCH  13  15
ENDBRANCH   1  13
TORSDOF 7
ENDMDL
MODEL 9
REMARK VINA RESULT:      -5.3      6.412      8.172
REMARK  7 active torsions:
REMARK  status: ('A' for Active; 'I' for Inactive)
REMARK    1  A    between atoms: C_1  and  C_7 
REMARK    2  A    between atoms: C_7  and  C_8 
REMARK    3  A    between atoms: C_8  and  C_9 
REMARK    4  A    between atoms: C_8  and  N_12 
REMARK    5  A    between atoms: C_9  and  O_10 
REMARK    6  A    between atoms: N_12  and  S_13 
REMARK    7  A    between atoms: S_13  and  N_14 
ROOT
HETATM    1  C   UNK N   1      36.317  13.670  12.351  0.00  0.00     0.196 C 
ENDROOT
BRANCH   1   2
HETATM    2  C   UNK N   1      36.442  13.566  13.881  0.00  0.00     0.075 C 
BRANCH   2   3
HETATM    3  C   UNK N   1      35.756  12.407  14.562  0.00  0.00    -0.056 A 
HETATM    4  C   UNK N   1      34.567  11.919  14.008  0.00  0.00     0.007 A 
HETATM    5  C   UNK N   1      33.871  10.878  14.630  0.00  0.00     0.001 A 
HETATM    6  C   UNK N   1      34.360  10.318  15.813  0.00  0.00     0.000 A 
HETATM    7  C   UNK N   1      35.549  10.794  16.370  0.00  0.00     0.001 A 
HETATM    8  C   UNK N   1      36.247  11.834  15.748  0.00  0.00     0.007 A 
ENDBRANCH   2   3
ENDBRANCH   1   2
BRANCH   1   9
HETATM    9  C   UNK N   1      37.368  12.828  11.651  0.00  0.00     0.164 C 
HETATM   10  O   UNK N   1      37.254  11.618  11.608  0.00  0.00    -0.648 OA
BRANCH   9  11
HETATM   11  O   UNK N   1      38.452  13.404  11.092  0.00  0.00    -0.775 OA
HETATM   12  H   UNK N   1      39.202  13.105  10.617  0.00  0.00     0.167 HD
ENDBRANCH   9  11
ENDBRANCH   1   9
BRANCH   1  13
HETATM   13  N   UNK N   1      36.492  15.087  12.012  0.00  0.00    -0.288 N 
HETATM   14  H   UNK N   1      37.185  15.682  12.467  0.00  0.00     0.174 HD
BRANCH  13  15
HETATM   15  S   UNK N   1      35.397  15.677  10.740  0.00  0.00     0.313 S 
HETATM   16  O   UNK N   1      35.887  15.104   9.402  0.00  0.00    -0.183 OA
HETATM   17  O   UNK N   1      35.506  17.201  10.582  0.00  0.00    -0.183 OA
BRANCH  15  18
HETATM   18  N   UNK N   1      33.712  15.194  10.935  0.00  0.00    -0.312 N 
HETATM   19  H   UNK N   1      33.020  15.793  11.385  0.00  0.00     0.170 HD
HETATM   20  H   UNK N   1      33.418  14.281  10.586  0.00  0.00     0.170 HD
ENDBRANCH  15  18
ENDBRANCH  13  15
ENDBRANCH   1  13
TORSDOF 7
ENDMDL
