REMARK  7 active torsions:
REMARK  status: ('A' for Active; 'I' for Inactive)
REMARK    1  A    between atoms: C_1  and  C_7 
REMARK    2  A    between atoms: C_7  and  C_8 
REMARK    3  A    between atoms: C_8  and  C_9 
REMARK    4  A    between atoms: C_8  and  N_12 
REMARK    5  A    between atoms: C_9  and  O_10 
REMARK    6  A    between atoms: N_12  and  S_13 
REMARK    7  A    between atoms: S_13  and  N_14 
ROOT
HETATM    1  C   UNK N   1       0.481  -0.571  -0.018  0.00  0.00     0.196 C 
ENDROOT
BRANCH   1   2
HETATM    2  C   UNK N   1      -0.787  -1.300  -0.495  0.00  0.00     0.075 C 
BRANCH   2   3
HETATM    3  C   UNK N   1      -2.121  -0.721  -0.091  0.00  0.00    -0.056 A 
HETATM    4  C   UNK N   1      -3.283  -1.298  -0.618  0.00  0.00     0.007 A 
HETATM    5  C   UNK N   1      -4.539  -0.767  -0.310  0.00  0.00     0.001 A 
HETATM    6  C   UNK N   1      -4.642   0.347   0.527  0.00  0.00     0.000 A 
HETATM    7  C   UNK N   1      -3.489   0.926   1.063  0.00  0.00     0.001 A 
HETATM    8  C   UNK N   1      -2.232   0.394   0.757  0.00  0.00     0.007 A 
ENDBRANCH   2   3
ENDBRANCH   1   2
BRANCH   1   9
HETATM    9  C   UNK N   1       0.530   0.854  -0.538  0.00  0.00     0.164 C 
HETATM   10  O   UNK N   1       1.384   1.622  -0.138  0.00  0.00    -0.648 OA
BRANCH   9  11
HETATM   11  O   UNK N   1      -0.385   1.295  -1.426  0.00  0.00    -0.775 OA
HETATM   12  H   UNK N   1      -0.437   1.998  -2.043  0.00  0.00     0.167 HD
ENDBRANCH   9  11
ENDBRANCH   1   9
BRANCH   1  13
HETATM   13  N   UNK N   1       1.622  -1.339  -0.531  0.00  0.00    -0.288 N 
HETATM   14  H   UNK N   1       1.533  -2.031  -1.275  0.00  0.00     0.174 HD
BRANCH  13  15
HETATM   15  S   UNK N   1       3.173  -0.958   0.253  0.00  0.00     0.313 S 
HETATM   16  O   UNK N   1       4.175  -2.054  -0.140  0.00  0.00    -0.183 OA
HETATM   17  O   UNK N   1       3.057  -1.057   1.781  0.00  0.00    -0.183 OA
BRANCH  15  18
HETATM   18  N   UNK N   1       3.876   0.591  -0.216  0.00  0.00    -0.312 N 
HETATM   19  H   UNK N   1       4.855   0.687  -0.487  0.00  0.00     0.170 HD
HETATM   20  H   UNK N   1       3.283   1.421  -0.216  0.00  0.00     0.170 HD
ENDBRANCH  15  18
ENDBRANCH  13  15
ENDBRANCH   1  13
TORSDOF 7
