MODEL 1
REMARK VINA RESULT:      -4.6      0.000      0.000
REMARK  7 active torsions:
REMARK  status: ('A' for Active; 'I' for Inactive)
REMARK    1  A    between atoms: C_2  and  N_1 
REMARK       I    between atoms: N_1  and  C_9 
REMARK    2  A    between atoms: C_2  and  C_3 
REMARK    3  A    between atoms: C_2  and  C_7 
REMARK    4  A    between atoms: C_3  and  C_4 
REMARK    5  A    between atoms: C_4  and  S_5 
REMARK    6  A    between atoms: C_7  and  O_12 
REMARK    7  A    between atoms: C_9  and  O_11 
ROOT
HETATM    1  C   UNK N   1      33.552  17.204   8.578  0.00  0.00     0.186 C 
ENDROOT
BRANCH   1   2
HETATM    2  N   UNK N   1      34.044  17.062   9.939  0.00  0.00    -0.323 N 
HETATM    3  C   UNK N   1      35.015  16.191  10.315  0.00  0.00     0.250 C 
HETATM    4  O   UNK N   1      35.315  16.102  11.497  0.00  0.00    -0.632 OA
HETATM    5  H   UNK N   1      33.647  17.635  10.634  0.00  0.00     0.166 HD
BRANCH   3   6
HETATM    6  O   UNK N   1      35.651  15.424   9.410  0.00  0.00    -0.760 OA
HETATM    7  H   UNK N   1      35.880  15.503   8.505  0.00  0.00     0.169 HD
ENDBRANCH   3   6
ENDBRANCH   1   2
BRANCH   1   8
HETATM    8  C   UNK N   1      32.109  17.706   8.663  0.00  0.00     0.046 C 
BRANCH   8   9
HETATM    9  C   UNK N   1      31.173  16.912   7.765  0.00  0.00     0.076 C 
BRANCH   9  10
HETATM   10  S   UNK N   1      29.462  17.459   8.020  0.00  0.00    -0.173 SA
HETATM   11  C   UNK N   1      29.954  18.627   9.317  0.00  0.00     0.089 C 
ENDBRANCH   9  10
ENDBRANCH   8   9
ENDBRANCH   1   8
BRANCH   1  12
HETATM   12  C   UNK N   1      34.390  18.154   7.744  0.00  0.00     0.163 C 
HETATM   13  O   UNK N   1      34.446  18.044   6.529  0.00  0.00    -0.648 OA
BRANCH  12  14
HETATM   14  O   UNK N   1      35.079  19.143   8.347  0.00  0.00    -0.775 OA
HETATM   15  H   UNK N   1      34.682  19.874   8.777  0.00  0.00     0.167 HD
ENDBRANCH  12  14
ENDBRANCH   1  12
TORSDOF 7
ENDMDL
MODEL 2
REMARK VINA RESULT:      -4.5     11.161     12.354
REMARK  7 active torsions:
REMARK  status: ('A' for Active; 'I' for Inactive)
REMARK    1  A    between atoms: C_2  and  N_1 
REMARK       I    between atoms: N_1  and  C_9 
REMARK    2  A    between atoms: C_2  and  C_3 
REMARK    3  A    between atoms: C_2  and  C_7 
REMARK    4  A    between atoms: C_3  and  C_4 
REMARK    5  A    between atoms: C_4  and  S_5 
REMARK    6  A    between atoms: C_7  and  O_12 
REMARK    7  A    between atoms: C_9  and  O_11 
ROOT
HETATM    1  C   UNK N   1      22.977  11.578  10.504  0.00  0.00     0.186 C 
ENDROOT
BRANCH   1   2
HETATM    2  N   UNK N   1      21.931  12.527  10.156  0.00  0.00    -0.323 N 
HETATM    3  C   UNK N   1      20.726  12.600  10.774  0.00  0.00     0.250 C 
HETATM    4  O   UNK N   1      19.889  13.391  10.366  0.00  0.00    -0.632 OA
HETATM    5  H   UNK N   1      22.110  13.159   9.422  0.00  0.00     0.166 HD
BRANCH   3   6
HETATM    6  O   UNK N   1      20.436  11.814  11.828  0.00  0.00    -0.760 OA
HETATM    7  H   UNK N   1      19.699  11.305  12.104  0.00  0.00     0.169 HD
ENDBRANCH   3   6
ENDBRANCH   1   2
BRANCH   1   8
HETATM    8  C   UNK N   1      23.874  11.413   9.276  0.00  0.00     0.046 C 
BRANCH   8   9
HETATM    9  C   UNK N   1      23.584  12.459   8.211  0.00  0.00     0.076 C 
BRANCH   9  10
HETATM   10  S   UNK N   1      25.003  13.574   8.037  0.00  0.00    -0.173 SA
HETATM   11  C   UNK N   1      25.352  12.984   6.358  0.00  0.00     0.089 C 
ENDBRANCH   9  10
ENDBRANCH   8   9
ENDBRANCH   1   8
BRANCH   1  12
HETATM   12  C   UNK N   1      23.799  12.019  11.700  0.00  0.00     0.163 C 
HETATM   13  O   UNK N   1      23.339  11.978  12.831  0.00  0.00    -0.648 OA
BRANCH  12  14
HETATM   14  O   UNK N   1      25.062  12.455  11.519  0.00  0.00    -0.775 OA
HETATM   15  H   UNK N   1      25.328  13.022  10.822  0.00  0.00     0.167 HD
ENDBRANCH  12  14
ENDBRANCH   1  12
TORSDOF 7
ENDMDL
MODEL 3
REMARK VINA RESULT:      -4.5      2.860      4.205
REMARK  7 active torsions:
REMARK  status: ('A' for Active; 'I' for Inactive)
REMARK    1  A    between atoms: C_2  and  N_1 
REMARK       I    between atoms: N_1  and  C_9 
REMARK    2  A    between atoms: C_2  and  C_3 
REMARK    3  A    between atoms: C_2  and  C_7 
REMARK    4  A    between atoms: C_3  and  C_4 
REMARK    5  A    between atoms: C_4  and  S_5 
REMARK    6  A    between atoms: C_7  and  O_12 
REMARK    7  A    between atoms: C_9  and  O_11 
ROOT
HETATM    1  C   UNK N   1      32.797  16.581   8.593  0.00  0.00     0.186 C 
ENDROOT
BRANCH   1   2
HETATM    2  N   UNK N   1      33.724  17.624   9.003  0.00  0.00    -0.323 N 
HETATM    3  C   UNK N   1      34.493  18.344   8.148  0.00  0.00     0.250 C 
HETATM    4  O   UNK N   1      35.289  19.156   8.596  0.00  0.00    -0.632 OA
HETATM    5  H   UNK N   1      33.799  17.820   9.965  0.00  0.00     0.166 HD
BRANCH   3   6
HETATM    6  O   UNK N   1      34.395  18.179   6.815  0.00  0.00    -0.760 OA
HETATM    7  H   UNK N   1      33.842  18.512   6.136  0.00  0.00     0.169 HD
ENDBRANCH   3   6
ENDBRANCH   1   2
BRANCH   1   8
HETATM    8  C   UNK N   1      32.865  15.468   9.641  0.00  0.00     0.046 C 
BRANCH   8   9
HETATM    9  C   UNK N   1      34.201  14.741   9.617  0.00  0.00     0.076 C 
BRANCH   9  10
HETATM   10  S   UNK N   1      34.818  14.528  11.310  0.00  0.00    -0.173 SA
HETATM   11  C   UNK N   1      35.954  15.932  11.148  0.00  0.00     0.089 C 
ENDBRANCH   9  10
ENDBRANCH   8   9
ENDBRANCH   1   8
BRANCH   1  12
HETATM   12  C   UNK N   1      31.372  17.081   8.451  0.00  0.00     0.163 C 
HETATM   13  O   UNK N   1      30.695  16.786   7.478  0.00  0.00    -0.648 OA
BRANCH  12  14
HETATM   14  O   UNK N   1      30.836  17.855   9.415  0.00  0.00    -0.775 OA
HETATM   15  H   UNK N   1      29.999  17.703   9.807  0.00  0.00     0.167 HD
ENDBRANCH  12  14
ENDBRANCH   1  12
TORSDOF 7
ENDMDL
MODEL 4
REMARK VINA RESULT:      -4.5      0.945      1.352
REMARK  7 active torsions:
REMARK  status: ('A' for Active; 'I' for Inactive)
REMARK    1  A    between atoms: C_2  and  N_1 
REMARK       I    between atoms: N_1  and  C_9 
REMARK    2  A    between atoms: C_2  and  C_3 
REMARK    3  A    between atoms: C_2  and  C_7 
REMARK    4  A    between atoms: C_3  and  C_4 
REMARK    5  A    between atoms: C_4  and  S_5 
REMARK    6  A    between atoms: C_7  and  O_12 
REMARK    7  A    between atoms: C_9  and  O_11 
ROOT
HETATM    1  C   UNK N   1      33.786  17.051   8.628  0.00  0.00     0.186 C 
ENDROOT
BRANCH   1   2
HETATM    2  N   UNK N   1      34.278  17.031   9.997  0.00  0.00    -0.323 N 
HETATM    3  C   UNK N   1      35.234  16.185  10.455  0.00  0.00     0.250 C 
HETATM    4  O   UNK N   1      35.534  16.204  11.639  0.00  0.00    -0.632 OA
HETATM    5  H   UNK N   1      33.890  17.674  10.634  0.00  0.00     0.166 HD
BRANCH   3   6
HETATM    6  O   UNK N   1      35.858  15.325   9.627  0.00  0.00    -0.760 OA
HETATM    7  H   UNK N   1      35.658  14.491   9.251  0.00  0.00     0.169 HD
ENDBRANCH   3   6
ENDBRANCH   1   2
BRANCH   1   8
HETATM    8  C   UNK N   1      32.272  17.261   8.687  0.00  0.00     0.046 C 
BRANCH   8   9
HETATM    9  C   UNK N   1      31.519  16.231   7.859  0.00  0.00     0.076 C 
BRANCH   9  10
HETATM   10  S   UNK N   1      30.178  17.039   6.941  0.00  0.00    -0.173 SA
HETATM   11  C   UNK N   1      31.174  17.131   5.428  0.00  0.00     0.089 C 
ENDBRANCH   9  10
ENDBRANCH   8   9
ENDBRANCH   1   8
BRANCH   1  12
HETATM   12  C   UNK N   1      34.434  18.133   7.784  0.00  0.00     0.163 C 
HETATM   13  O   UNK N   1      34.380  18.097   6.564  0.00  0.00    -0.648 OA
BRANCH  12  14
HETATM   14  O   UNK N   1      35.070  19.157   8.385  0.00  0.00    -0.775 OA
HETATM   15  H   UNK N   1      34.652  19.782   8.944  0.00  0.00     0.167 HD
ENDBRANCH  12  14
ENDBRANCH   1  12
TORSDOF 7
ENDMDL
MODEL 5
REMARK VINA RESULT:      -4.5      2.944      4.453
REMARK  7 active torsions:
REMARK  status: ('A' for Active; 'I' for Inactive)
REMARK    1  A    between atoms: C_2  and  N_1 
REMARK       I    between atoms: N_1  and  C_9 
REMARK    2  A    between atoms: C_2  and  C_3 
REMARK    3  A    between atoms: C_2  and  C_7 
REMARK    4  A    between atoms: C_3  and  C_4 
REMARK    5  A    between atoms: C_4  and  S_5 
REMARK    6  A    between atoms: C_7  and  O_12 
REMARK    7  A    between atoms: C_9  and  O_11 
ROOT
HETATM    1  C   UNK N   1      33.841  17.277   8.946  0.00  0.00     0.186 C 
ENDROOT
BRANCH   1   2
HETATM    2  N   UNK N   1      32.675  16.681   8.312  0.00  0.00    -0.323 N 
HETATM    3  C   UNK N   1      31.409  17.150   8.444  0.00  0.00     0.250 C 
HETATM    4  O   UNK N   1      30.487  16.541   7.922  0.00  0.00    -0.632 OA
HETATM    5  H   UNK N   1      32.814  15.884   7.751  0.00  0.00     0.166 HD
BRANCH   3   6
HETATM    6  O   UNK N   1      31.152  18.274   9.139  0.00  0.00    -0.760 OA
HETATM    7  H   UNK N   1      30.524  18.968   9.086  0.00  0.00     0.169 HD
ENDBRANCH   3   6
ENDBRANCH   1   2
BRANCH   1   8
HETATM    8  C   UNK N   1      34.783  16.136   9.338  0.00  0.00     0.046 C 
BRANCH   8   9
HETATM    9  C   UNK N   1      35.069  16.119  10.832  0.00  0.00     0.076 C 
BRANCH   9  10
HETATM   10  S   UNK N   1      34.904  14.430  11.472  0.00  0.00    -0.173 SA
HETATM   11  C   UNK N   1      36.052  14.760  12.837  0.00  0.00     0.089 C 
ENDBRANCH   9  10
ENDBRANCH   8   9
ENDBRANCH   1   8
BRANCH   1  12
HETATM   12  C   UNK N   1      34.560  18.265   8.047  0.00  0.00     0.163 C 
HETATM   13  O   UNK N   1      34.457  18.201   6.831  0.00  0.00    -0.648 OA
BRANCH  12  14
HETATM   14  O   UNK N   1      35.318  19.237   8.593  0.00  0.00    -0.775 OA
HETATM   15  H   UNK N   1      34.976  20.031   8.953  0.00  0.00     0.167 HD
ENDBRANCH  12  14
ENDBRANCH   1  12
TORSDOF 7
ENDMDL
MODEL 6
REMARK VINA RESULT:      -4.4     12.630     14.519
REMARK  7 active torsions:
REMARK  status: ('A' for Active; 'I' for Inactive)
REMARK    1  A    between atoms: C_2  and  N_1 
REMARK       I    between atoms: N_1  and  C_9 
REMARK    2  A    between atoms: C_2  and  C_3 
REMARK    3  A    between atoms: C_2  and  C_7 
REMARK    4  A    between atoms: C_3  and  C_4 
REMARK    5  A    between atoms: C_4  and  S_5 
REMARK    6  A    between atoms: C_7  and  O_12 
REMARK    7  A    between atoms: C_9  and  O_11 
ROOT
HETATM    1  C   UNK N   1      20.954  18.805   2.791  0.00  0.00     0.186 C 
ENDROOT
BRANCH   1   2
HETATM    2  N   UNK N   1      20.854  20.200   2.393  0.00  0.00    -0.323 N 
HETATM    3  C   UNK N   1      20.721  20.623   1.111  0.00  0.00     0.250 C 
HETATM    4  O   UNK N   1      20.708  21.822   0.873  0.00  0.00    -0.632 OA
HETATM    5  H   UNK N   1      20.886  20.883   3.101  0.00  0.00     0.166 HD
BRANCH   3   6
HETATM    6  O   UNK N   1      20.602  19.745   0.097  0.00  0.00    -0.760 OA
HETATM    7  H   UNK N   1      19.979  19.585  -0.585  0.00  0.00     0.169 HD
ENDBRANCH   3   6
ENDBRANCH   1   2
BRANCH   1   8
HETATM    8  C   UNK N   1      21.782  18.753   4.076  0.00  0.00     0.046 C 
BRANCH   8   9
HETATM    9  C   UNK N   1      22.894  17.718   4.000  0.00  0.00     0.076 C 
BRANCH   9  10
HETATM   10  S   UNK N   1      22.915  16.722   5.515  0.00  0.00    -0.173 SA
HETATM   11  C   UNK N   1      24.681  16.352   5.331  0.00  0.00     0.089 C 
ENDBRANCH   9  10
ENDBRANCH   8   9
ENDBRANCH   1   8
BRANCH   1  12
HETATM   12  C   UNK N   1      19.601  18.156   3.011  0.00  0.00     0.163 C 
HETATM   13  O   UNK N   1      19.478  17.193   3.752  0.00  0.00    -0.648 OA
BRANCH  12  14
HETATM   14  O   UNK N   1      18.512  18.651   2.390  0.00  0.00    -0.775 OA
HETATM   15  H   UNK N   1      18.502  18.943   1.500  0.00  0.00     0.167 HD
ENDBRANCH  12  14
ENDBRANCH   1  12
TORSDOF 7
ENDMDL
MODEL 7
REMARK VINA RESULT:      -4.3      2.584      3.500
REMARK  7 active torsions:
REMARK  status: ('A' for Active; 'I' for Inactive)
REMARK    1  A    between atoms: C_2  and  N_1 
REMARK       I    between atoms: N_1  and  C_9 
REMARK    2  A    between atoms: C_2  and  C_3 
REMARK    3  A    between atoms: C_2  and  C_7 
REMARK    4  A    between atoms: C_3  and  C_4 
REMARK    5  A    between atoms: C_4  and  S_5 
REMARK    6  A    between atoms: C_7  and  O_12 
REMARK    7  A    between atoms: C_9  and  O_11 
ROOT
HETATM    1  C   UNK N   1      34.863  15.176  10.223  0.00  0.00     0.186 C 
ENDROOT
BRANCH   1   2
HETATM    2  N   UNK N   1      34.371  14.533  11.431  0.00  0.00    -0.323 N 
HETATM    3  C   UNK N   1      35.061  13.605  12.139  0.00  0.00     0.250 C 
HETATM    4  O   UNK N   1      34.534  13.076  13.108  0.00  0.00    -0.632 OA
HETATM    5  H   UNK N   1      33.477  14.788  11.756  0.00  0.00     0.166 HD
BRANCH   3   6
HETATM    6  O   UNK N   1      36.315  13.256  11.794  0.00  0.00    -0.760 OA
HETATM    7  H   UNK N   1      36.706  12.579  11.278  0.00  0.00     0.169 HD
ENDBRANCH   3   6
ENDBRANCH   1   2
BRANCH   1   8
HETATM    8  C   UNK N   1      33.646  15.681   9.444  0.00  0.00     0.046 C 
BRANCH   8   9
HETATM    9  C   UNK N   1      33.802  15.479   7.945  0.00  0.00     0.076 C 
BRANCH   9  10
HETATM   10  S   UNK N   1      33.984  17.085   7.121  0.00  0.00    -0.173 SA
HETATM   11  C   UNK N   1      32.735  17.854   8.188  0.00  0.00     0.089 C 
ENDBRANCH   9  10
ENDBRANCH   8   9
ENDBRANCH   1   8
BRANCH   1  12
HETATM   12  C   UNK N   1      35.815  16.322  10.510  0.00  0.00     0.163 C 
HETATM   13  O   UNK N   1      35.449  17.484  10.415  0.00  0.00    -0.648 OA
BRANCH  12  14
HETATM   14  O   UNK N   1      37.082  16.060  10.886  0.00  0.00    -0.775 OA
HETATM   15  H   UNK N   1      37.340  15.305  11.376  0.00  0.00     0.167 HD
ENDBRANCH  12  14
ENDBRANCH   1  12
TORSDOF 7
ENDMDL
MODEL 8
REMARK VINA RESULT:      -4.1      4.077      5.835
REMARK  7 active torsions:
REMARK  status: ('A' for Active; 'I' for Inactive)
REMARK    1  A    between atoms: C_2  and  N_1 
REMARK       I    between atoms: N_1  and  C_9 
REMARK    2  A    between atoms: C_2  and  C_3 
REMARK    3  A    between atoms: C_2  and  C_7 
REMARK    4  A    between atoms: C_3  and  C_4 
REMARK    5  A    between atoms: C_4  and  S_5 
REMARK    6  A    between atoms: C_7  and  O_12 
REMARK    7  A    between atoms: C_9  and  O_11 
ROOT
HETATM    1  C   UNK N   1      34.765  15.135  10.947  0.00  0.00     0.186 C 
ENDROOT
BRANCH   1   2
HETATM    2  N   UNK N   1      34.105  14.667   9.738  0.00  0.00    -0.323 N 
HETATM    3  C   UNK N   1      32.762  14.668   9.550  0.00  0.00     0.250 C 
HETATM    4  O   UNK N   1      32.300  14.194   8.522  0.00  0.00    -0.632 OA
HETATM    5  H   UNK N   1      34.671  14.326   9.008  0.00  0.00     0.166 HD
BRANCH   3   6
HETATM    6  O   UNK N   1      31.929  15.181  10.475  0.00  0.00    -0.760 OA
HETATM    7  H   UNK N   1      31.242  14.849  11.018  0.00  0.00     0.169 HD
ENDBRANCH   3   6
ENDBRANCH   1   2
BRANCH   1   8
HETATM    8  C   UNK N   1      35.475  13.935  11.575  0.00  0.00     0.046 C 
BRANCH   8   9
HETATM    9  C   UNK N   1      35.487  14.008  13.095  0.00  0.00     0.076 C 
BRANCH   9  10
HETATM   10  S   UNK N   1      35.303  12.345  13.795  0.00  0.00    -0.173 SA
HETATM   11  C   UNK N   1      36.760  12.552  14.854  0.00  0.00     0.089 C 
ENDBRANCH   9  10
ENDBRANCH   8   9
ENDBRANCH   1   8
BRANCH   1  12
HETATM   12  C   UNK N   1      35.757  16.252  10.682  0.00  0.00     0.163 C 
HETATM   13  O   UNK N   1      35.378  17.363  10.343  0.00  0.00    -0.648 OA
BRANCH  12  14
HETATM   14  O   UNK N   1      37.076  16.024  10.832  0.00  0.00    -0.775 OA
HETATM   15  H   UNK N   1      37.630  15.677  10.160  0.00  0.00     0.167 HD
ENDBRANCH  12  14
ENDBRANCH   1  12
TORSDOF 7
ENDMDL
MODEL 9
REMARK VINA RESULT:      -4.0     11.989     12.779
REMARK  7 active torsions:
REMARK  status: ('A' for Active; 'I' for Inactive)
REMARK    1  A    between atoms: C_2  and  N_1 
REMARK       I    between atoms: N_1  and  C_9 
REMARK    2  A    between atoms: C_2  and  C_3 
REMARK    3  A    between atoms: C_2  and  C_7 
REMARK    4  A    between atoms: C_3  and  C_4 
REMARK    5  A    between atoms: C_4  and  S_5 
REMARK    6  A    between atoms: C_7  and  O_12 
REMARK    7  A    between atoms: C_9  and  O_11 
ROOT
HETATM    1  C   UNK N   1      43.194  22.039   3.414  0.00  0.00     0.186 C 
ENDROOT
BRANCH   1   2
HETATM    2  N   UNK N   1      42.732  23.207   2.680  0.00  0.00    -0.323 N 
HETATM    3  C   UNK N   1      41.522  23.299   2.073  0.00  0.00     0.250 C 
HETATM    4  O   UNK N   1      41.251  24.300   1.426  0.00  0.00    -0.632 OA
HETATM    5  H   UNK N   1      43.337  23.981   2.619  0.00  0.00     0.166 HD
BRANCH   3   6
HETATM    6  O   UNK N   1      40.616  22.308   2.170  0.00  0.00    -0.760 OA
HETATM    7  H   UNK N   1      39.977  22.042   2.801  0.00  0.00     0.169 HD
ENDBRANCH   3   6
ENDBRANCH   1   2
BRANCH   1   8
HETATM    8  C   UNK N   1      43.809  21.074   2.400  0.00  0.00     0.046 C 
BRANCH   8   9
HETATM    9  C   UNK N   1      43.744  19.629   2.872  0.00  0.00     0.076 C 
BRANCH   9  10
HETATM   10  S   UNK N   1      42.086  18.956   2.577  0.00  0.00    -0.173 SA
HETATM   11  C   UNK N   1      42.145  19.392   0.817  0.00  0.00     0.089 C 
ENDBRANCH   9  10
ENDBRANCH   8   9
ENDBRANCH   1   8
BRANCH   1  12
HETATM   12  C   UNK N   1      44.206  22.383   4.492  0.00  0.00     0.163 C 
HETATM   13  O   UNK N   1      43.846  22.718   5.610  0.00  0.00    -0.648 OA
BRANCH  12  14
HETATM   14  O   UNK N   1      45.524  22.308   4.219  0.00  0.00    -0.775 OA
HETATM   15  H   UNK N   1      46.136  21.802   4.716  0.00  0.00     0.167 HD
ENDBRANCH  12  14
ENDBRANCH   1  12
TORSDOF 7
ENDMDL
