REMARK  7 active torsions:
REMARK  status: ('A' for Active; 'I' for Inactive)
REMARK    1  A    between atoms: C_2  and  N_1 
REMARK       I    between atoms: N_1  and  C_9 
REMARK    2  A    between atoms: C_2  and  C_3 
REMARK    3  A    between atoms: C_2  and  C_7 
REMARK    4  A    between atoms: C_3  and  C_4 
REMARK    5  A    between atoms: C_4  and  S_5 
REMARK    6  A    between atoms: C_7  and  O_12 
REMARK    7  A    between atoms: C_9  and  O_11 
ROOT
HETATM    1  C   UNK N   1       0.351   0.615   0.142  0.00  0.00     0.186 C 
ENDROOT
BRANCH   1   2
HETATM    2  N   UNK N   1       1.525   1.263  -0.421  0.00  0.00    -0.323 N 
HETATM    3  C   UNK N   1       2.802   0.983  -0.058  0.00  0.00     0.250 C 
HETATM    4  O   UNK N   1       3.719   1.628  -0.545  0.00  0.00    -0.632 OA
HETATM    5  H   UNK N   1       1.384   1.951  -1.111  0.00  0.00     0.166 HD
BRANCH   3   6
HETATM    6  O   UNK N   1       3.076   0.008   0.829  0.00  0.00    -0.760 OA
HETATM    7  H   UNK N   1       2.584  -0.496   1.447  0.00  0.00     0.169 HD
ENDBRANCH   3   6
ENDBRANCH   1   2
BRANCH   1   8
HETATM    8  C   UNK N   1      -0.880   1.272  -0.485  0.00  0.00     0.046 C 
BRANCH   8   9
HETATM    9  C   UNK N   1      -2.159   0.918   0.258  0.00  0.00     0.076 C 
BRANCH   9  10
HETATM   10  S   UNK N   1      -3.525   1.953  -0.336  0.00  0.00    -0.173 SA
HETATM   11  C   UNK N   1      -4.718   0.597  -0.171  0.00  0.00     0.089 C 
ENDBRANCH   9  10
ENDBRANCH   8   9
ENDBRANCH   1   8
BRANCH   1  12
HETATM   12  C   UNK N   1       0.329  -0.882  -0.103  0.00  0.00     0.163 C 
HETATM   13  O   UNK N   1       1.230  -1.433  -0.717  0.00  0.00    -0.648 OA
BRANCH  12  14
HETATM   14  O   UNK N   1      -0.693  -1.622   0.370  0.00  0.00    -0.775 OA
HETATM   15  H   UNK N   1      -1.494  -1.264   0.698  0.00  0.00     0.167 HD
ENDBRANCH  12  14
ENDBRANCH   1  12
TORSDOF 7
