MODEL 1
REMARK VINA RESULT:      -5.7      0.000      0.000
REMARK  5 active torsions:
REMARK  status: ('A' for Active; 'I' for Inactive)
REMARK    1  A    between atoms: O_1  and  C_2 
REMARK    2  A    between atoms: C_3  and  C_2 
REMARK    3  A    between atoms: C_4  and  O_5 
REMARK    4  A    between atoms: C_8  and  N_10 
REMARK    5  A    between atoms: C_15  and  N_16 
ROOT
HETATM    1  C   UNK N   1      34.960  15.268   9.413  0.00  0.00     0.179 C 
HETATM    2  C   UNK N   1      33.723  14.541   9.971  0.00  0.00     0.182 C 
HETATM    3  C   UNK N   1      32.634  14.884   8.969  0.00  0.00     0.198 C 
HETATM    4  O   UNK N   1      31.966  16.044   9.384  0.00  0.00    -0.388 OA
HETATM    5  C   UNK N   1      33.540  15.222   7.798  0.00  0.00     0.263 C 
HETATM    6  O   UNK N   1      34.543  16.044   8.323  0.00  0.00    -0.353 OA
HETATM    7  H   UNK N   1      31.597  16.921   9.568  0.00  0.00     0.210 HD
ENDROOT
BRANCH   2   8
HETATM    8  O   UNK N   1      33.374  14.942  11.267  0.00  0.00    -0.390 OA
HETATM    9  H   UNK N   1      33.469  14.564  12.155  0.00  0.00     0.210 HD
ENDBRANCH   2   8
BRANCH   5  10
HETATM   10  N   UNK N   1      32.979  15.734   6.530  0.00  0.00    -0.280 N 
HETATM   11  C   UNK N   1      32.023  15.083   5.757  0.00  0.00     0.330 A 
HETATM   12  O   UNK N   1      31.547  14.019   6.104  0.00  0.00    -0.246 OA
HETATM   13  N   UNK N   1      31.626  15.629   4.562  0.00  0.00    -0.295 N 
HETATM   14  C   UNK N   1      32.151  16.794   4.112  0.00  0.00     0.103 A 
ATOM     15  HN  UNK N   1      30.922  15.148   4.002  1.00  0.00     0.172 HD
HETATM   16  C   UNK N   1      33.106  17.459   4.866  0.00  0.00     0.065 A 
HETATM   17  C   UNK N   1      33.510  16.904   6.076  0.00  0.00     0.102 A 
BRANCH  14  18
HETATM   18  N   UNK N   1      31.739  17.322   2.873  0.00  0.00    -0.385 N 
HETATM   19  H   UNK N   1      32.253  18.048   2.450  0.00  0.00     0.157 HD
HETATM   20  H   UNK N   1      30.937  16.964   2.428  0.00  0.00     0.157 HD
ENDBRANCH  14  18
ENDBRANCH   5  10
BRANCH   1  21
HETATM   21  C   UNK N   1      35.766  16.073  10.421  0.00  0.00     0.198 C 
BRANCH  21  22
HETATM   22  O   UNK N   1      35.032  17.195  10.811  0.00  0.00    -0.398 OA
HETATM   23  H   UNK N   1      34.737  17.446  11.700  0.00  0.00     0.209 HD
ENDBRANCH  21  22
ENDBRANCH   1  21
TORSDOF 5
ENDMDL
MODEL 2
REMARK VINA RESULT:      -5.6      7.599     10.441
REMARK  5 active torsions:
REMARK  status: ('A' for Active; 'I' for Inactive)
REMARK    1  A    between atoms: O_1  and  C_2 
REMARK    2  A    between atoms: C_3  and  C_2 
REMARK    3  A    between atoms: C_4  and  O_5 
REMARK    4  A    between atoms: C_8  and  N_10 
REMARK    5  A    between atoms: C_15  and  N_16 
ROOT
HETATM    1  C   UNK N   1      35.090  13.083  12.896  0.00  0.00     0.179 C 
HETATM    2  C   UNK N   1      36.245  12.077  12.736  0.00  0.00     0.182 C 
HETATM    3  C   UNK N   1      36.724  11.865  14.163  0.00  0.00     0.198 C 
HETATM    4  O   UNK N   1      37.746  12.778  14.452  0.00  0.00    -0.388 OA
HETATM    5  C   UNK N   1      35.451  12.300  14.867  0.00  0.00     0.263 C 
HETATM    6  O   UNK N   1      35.060  13.487  14.238  0.00  0.00    -0.353 OA
HETATM    7  H   UNK N   1      38.340  13.496  14.723  0.00  0.00     0.210 HD
ENDROOT
BRANCH   2   8
HETATM    8  O   UNK N   1      37.278  12.535  11.909  0.00  0.00    -0.390 OA
HETATM    9  H   UNK N   1      38.240  12.624  11.993  0.00  0.00     0.210 HD
ENDBRANCH   2   8
BRANCH   5  10
HETATM   10  N   UNK N   1      35.393  12.383  16.342  0.00  0.00    -0.280 N 
HETATM   11  C   UNK N   1      35.291  11.294  17.201  0.00  0.00     0.330 A 
HETATM   12  O   UNK N   1      35.270  10.154  16.777  0.00  0.00    -0.246 OA
HETATM   13  N   UNK N   1      35.178  11.500  18.553  0.00  0.00    -0.295 N 
HETATM   14  C   UNK N   1      35.160  12.750  19.075  0.00  0.00     0.103 A 
ATOM     15  HN  UNK N   1      35.107  10.697  19.177  1.00  0.00     0.172 HD
HETATM   16  C   UNK N   1      35.260  13.851  18.236  0.00  0.00     0.065 A 
HETATM   17  C   UNK N   1      35.371  13.641  16.865  0.00  0.00     0.102 A 
BRANCH  14  18
HETATM   18  N   UNK N   1      35.025  12.935  20.464  0.00  0.00    -0.385 N 
HETATM   19  H   UNK N   1      35.288  12.218  21.086  0.00  0.00     0.157 HD
HETATM   20  H   UNK N   1      34.667  13.782  20.815  0.00  0.00     0.157 HD
ENDBRANCH  14  18
ENDBRANCH   5  10
BRANCH   1  21
HETATM   21  C   UNK N   1      35.104  14.264  11.937  0.00  0.00     0.198 C 
BRANCH  21  22
HETATM   22  O   UNK N   1      33.803  14.524  11.503  0.00  0.00    -0.398 OA
HETATM   23  H   UNK N   1      33.064  14.907  12.001  0.00  0.00     0.209 HD
ENDBRANCH  21  22
ENDBRANCH   1  21
TORSDOF 5
ENDMDL
MODEL 3
REMARK VINA RESULT:      -5.6      3.042      3.202
REMARK  5 active torsions:
REMARK  status: ('A' for Active; 'I' for Inactive)
REMARK    1  A    between atoms: O_1  and  C_2 
REMARK    2  A    between atoms: C_3  and  C_2 
REMARK    3  A    between atoms: C_4  and  O_5 
REMARK    4  A    between atoms: C_8  and  N_10 
REMARK    5  A    between atoms: C_15  and  N_16 
ROOT
HETATM    1  C   UNK N   1      34.193  16.143   9.043  0.00  0.00     0.179 C 
HETATM    2  C   UNK N   1      33.616  14.739   9.303  0.00  0.00     0.182 C 
HETATM    3  C   UNK N   1      32.114  14.965   9.257  0.00  0.00     0.198 C 
HETATM    4  O   UNK N   1      31.644  15.244  10.547  0.00  0.00    -0.388 OA
HETATM    5  C   UNK N   1      32.130  16.247   8.443  0.00  0.00     0.263 C 
HETATM    6  O   UNK N   1      33.122  17.047   9.021  0.00  0.00    -0.353 OA
HETATM    7  H   UNK N   1      31.324  15.589  11.395  0.00  0.00     0.210 HD
ENDROOT
BRANCH   2   8
HETATM    8  O   UNK N   1      34.015  14.186  10.526  0.00  0.00    -0.390 OA
HETATM    9  H   UNK N   1      34.758  14.321  11.135  0.00  0.00     0.210 HD
ENDBRANCH   2   8
BRANCH   5  10
HETATM   10  N   UNK N   1      30.879  16.986   8.171  0.00  0.00    -0.280 N 
HETATM   11  C   UNK N   1      30.031  16.755   7.093  0.00  0.00     0.330 A 
HETATM   12  O   UNK N   1      30.260  15.873   6.287  0.00  0.00    -0.246 OA
HETATM   13  N   UNK N   1      28.929  17.551   6.908  0.00  0.00    -0.295 N 
HETATM   14  C   UNK N   1      28.648  18.570   7.756  0.00  0.00     0.103 A 
ATOM     15  HN  UNK N   1      28.310  17.374   6.117  1.00  0.00     0.172 HD
HETATM   16  C   UNK N   1      29.481  18.819   8.838  0.00  0.00     0.065 A 
HETATM   17  C   UNK N   1      30.599  18.012   9.022  0.00  0.00     0.102 A 
BRANCH  14  18
HETATM   18  N   UNK N   1      27.521  19.384   7.533  0.00  0.00    -0.385 N 
HETATM   19  H   UNK N   1      27.034  19.330   6.680  0.00  0.00     0.157 HD
HETATM   20  H   UNK N   1      27.221  20.009   8.232  0.00  0.00     0.157 HD
ENDBRANCH  14  18
ENDBRANCH   5  10
BRANCH   1  21
HETATM   21  C   UNK N   1      35.304  16.586   9.983  0.00  0.00     0.198 C 
BRANCH  21  22
HETATM   22  O   UNK N   1      34.757  16.914  11.225  0.00  0.00    -0.398 OA
HETATM   23  H   UNK N   1      35.208  17.245  12.017  0.00  0.00     0.209 HD
ENDBRANCH  21  22
ENDBRANCH   1  21
TORSDOF 5
ENDMDL
MODEL 4
REMARK VINA RESULT:      -5.4      3.633      5.859
REMARK  5 active torsions:
REMARK  status: ('A' for Active; 'I' for Inactive)
REMARK    1  A    between atoms: O_1  and  C_2 
REMARK    2  A    between atoms: C_3  and  C_2 
REMARK    3  A    between atoms: C_4  and  O_5 
REMARK    4  A    between atoms: C_8  and  N_10 
REMARK    5  A    between atoms: C_15  and  N_16 
ROOT
HETATM    1  C   UNK N   1      29.041  17.618   7.246  0.00  0.00     0.179 C 
HETATM    2  C   UNK N   1      28.936  18.676   8.360  0.00  0.00     0.182 C 
HETATM    3  C   UNK N   1      30.120  18.355   9.258  0.00  0.00     0.198 C 
HETATM    4  O   UNK N   1      29.717  17.463  10.260  0.00  0.00    -0.388 OA
HETATM    5  C   UNK N   1      30.954  17.611   8.231  0.00  0.00     0.263 C 
HETATM    6  O   UNK N   1      30.070  16.732   7.594  0.00  0.00    -0.353 OA
HETATM    7  H   UNK N   1      29.502  16.733  10.862  0.00  0.00     0.210 HD
ENDROOT
BRANCH   2   8
HETATM    8  O   UNK N   1      27.728  18.629   9.066  0.00  0.00    -0.390 OA
HETATM    9  H   UNK N   1      27.392  18.129   9.827  0.00  0.00     0.210 HD
ENDBRANCH   2   8
BRANCH   5  10
HETATM   10  N   UNK N   1      32.229  16.969   8.613  0.00  0.00    -0.280 N 
HETATM   11  C   UNK N   1      33.468  17.600   8.633  0.00  0.00     0.330 A 
HETATM   12  O   UNK N   1      33.582  18.778   8.352  0.00  0.00    -0.246 OA
HETATM   13  N   UNK N   1      34.596  16.882   8.944  0.00  0.00    -0.295 N 
HETATM   14  C   UNK N   1      34.529  15.559   9.229  0.00  0.00     0.103 A 
ATOM     15  HN  UNK N   1      35.500  17.352   8.959  1.00  0.00     0.172 HD
HETATM   16  C   UNK N   1      33.303  14.908   9.214  0.00  0.00     0.065 A 
HETATM   17  C   UNK N   1      32.162  15.638   8.897  0.00  0.00     0.102 A 
BRANCH  14  18
HETATM   18  N   UNK N   1      35.703  14.840   9.526  0.00  0.00    -0.385 N 
HETATM   19  H   UNK N   1      35.799  14.386  10.394  0.00  0.00     0.157 HD
HETATM   20  H   UNK N   1      36.430  14.791   8.863  0.00  0.00     0.157 HD
ENDBRANCH  14  18
ENDBRANCH   5  10
BRANCH   1  21
HETATM   21  C   UNK N   1      27.750  16.895   6.896  0.00  0.00     0.198 C 
BRANCH  21  22
HETATM   22  O   UNK N   1      26.825  17.813   6.395  0.00  0.00    -0.398 OA
HETATM   23  H   UNK N   1      26.401  17.831   5.523  0.00  0.00     0.209 HD
ENDBRANCH  21  22
ENDBRANCH   1  21
TORSDOF 5
ENDMDL
MODEL 5
REMARK VINA RESULT:      -5.3      4.211      6.948
REMARK  5 active torsions:
REMARK  status: ('A' for Active; 'I' for Inactive)
REMARK    1  A    between atoms: O_1  and  C_2 
REMARK    2  A    between atoms: C_3  and  C_2 
REMARK    3  A    between atoms: C_4  and  O_5 
REMARK    4  A    between atoms: C_8  and  N_10 
REMARK    5  A    between atoms: C_15  and  N_16 
ROOT
HETATM    1  C   UNK N   1      33.391  15.296   9.169  0.00  0.00     0.179 C 
HETATM    2  C   UNK N   1      34.286  16.541   9.025  0.00  0.00     0.182 C 
HETATM    3  C   UNK N   1      35.341  16.339  10.100  0.00  0.00     0.198 C 
HETATM    4  O   UNK N   1      34.920  16.952  11.287  0.00  0.00    -0.388 OA
HETATM    5  C   UNK N   1      35.200  14.833  10.238  0.00  0.00     0.263 C 
HETATM    6  O   UNK N   1      33.824  14.588  10.299  0.00  0.00    -0.353 OA
HETATM    7  H   UNK N   1      34.583  17.231  12.153  0.00  0.00     0.210 HD
ENDROOT
BRANCH   2   8
HETATM    8  O   UNK N   1      33.599  17.749   9.198  0.00  0.00    -0.390 OA
HETATM    9  H   UNK N   1      33.783  18.588   9.648  0.00  0.00     0.210 HD
ENDBRANCH   2   8
BRANCH   5  10
HETATM   10  N   UNK N   1      35.964  14.093  11.264  0.00  0.00    -0.280 N 
HETATM   11  C   UNK N   1      37.264  13.623  11.110  0.00  0.00     0.330 A 
HETATM   12  O   UNK N   1      37.892  13.826  10.089  0.00  0.00    -0.246 OA
HETATM   13  N   UNK N   1      37.848  12.890  12.112  0.00  0.00    -0.295 N 
HETATM   14  C   UNK N   1      37.179  12.605  13.256  0.00  0.00     0.103 A 
ATOM     15  HN  UNK N   1      38.802  12.551  11.994  1.00  0.00     0.172 HD
HETATM   16  C   UNK N   1      35.880  13.063  13.430  0.00  0.00     0.065 A 
HETATM   17  C   UNK N   1      35.289  13.804  12.412  0.00  0.00     0.102 A 
BRANCH  14  18
HETATM   18  N   UNK N   1      37.794  11.834  14.261  0.00  0.00    -0.385 N 
HETATM   19  H   UNK N   1      37.425  11.826  15.173  0.00  0.00     0.157 HD
HETATM   20  H   UNK N   1      38.595  11.301  14.050  0.00  0.00     0.157 HD
ENDBRANCH  14  18
ENDBRANCH   5  10
BRANCH   1  21
HETATM   21  C   UNK N   1      31.893  15.557   9.189  0.00  0.00     0.198 C 
BRANCH  21  22
HETATM   22  O   UNK N   1      31.400  15.330  10.475  0.00  0.00    -0.398 OA
HETATM   23  H   UNK N   1      30.990  14.529  10.834  0.00  0.00     0.209 HD
ENDBRANCH  21  22
ENDBRANCH   1  21
TORSDOF 5
ENDMDL
MODEL 6
REMARK VINA RESULT:      -5.3     16.256     18.169
REMARK  5 active torsions:
REMARK  status: ('A' for Active; 'I' for Inactive)
REMARK    1  A    between atoms: O_1  and  C_2 
REMARK    2  A    between atoms: C_3  and  C_2 
REMARK    3  A    between atoms: C_4  and  O_5 
REMARK    4  A    between atoms: C_8  and  N_10 
REMARK    5  A    between atoms: C_15  and  N_16 
ROOT
HETATM    1  C   UNK N   1      25.672  22.267  -7.087  0.00  0.00     0.179 C 
HETATM    2  C   UNK N   1      27.204  22.181  -7.211  0.00  0.00     0.182 C 
HETATM    3  C   UNK N   1      27.673  23.529  -6.689  0.00  0.00     0.198 C 
HETATM    4  O   UNK N   1      27.777  24.432  -7.755  0.00  0.00    -0.388 OA
HETATM    5  C   UNK N   1      26.440  23.865  -5.869  0.00  0.00     0.263 C 
HETATM    6  O   UNK N   1      25.348  23.573  -6.694  0.00  0.00    -0.353 OA
HETATM    7  H   UNK N   1      27.707  25.109  -8.447  0.00  0.00     0.210 HD
ENDROOT
BRANCH   2   8
HETATM    8  O   UNK N   1      27.649  21.954  -8.520  0.00  0.00    -0.390 OA
HETATM    9  H   UNK N   1      27.330  21.439  -9.277  0.00  0.00     0.210 HD
ENDBRANCH   2   8
BRANCH   5  10
HETATM   10  N   UNK N   1      26.316  25.172  -5.189  0.00  0.00    -0.280 N 
HETATM   11  C   UNK N   1      26.858  25.483  -3.947  0.00  0.00     0.330 A 
HETATM   12  O   UNK N   1      27.521  24.674  -3.326  0.00  0.00    -0.246 OA
HETATM   13  N   UNK N   1      26.621  26.713  -3.387  0.00  0.00    -0.295 N 
HETATM   14  C   UNK N   1      25.859  27.638  -4.020  0.00  0.00     0.103 A 
ATOM     15  HN  UNK N   1      27.024  26.935  -2.477  1.00  0.00     0.172 HD
HETATM   16  C   UNK N   1      25.307  27.349  -5.260  0.00  0.00     0.065 A 
HETATM   17  C   UNK N   1      25.547  26.100  -5.825  0.00  0.00     0.102 A 
BRANCH  14  18
HETATM   18  N   UNK N   1      25.615  28.886  -3.414  0.00  0.00    -0.385 N 
HETATM   19  H   UNK N   1      24.693  29.164  -3.211  0.00  0.00     0.157 HD
HETATM   20  H   UNK N   1      26.368  29.480  -3.193  0.00  0.00     0.157 HD
ENDBRANCH  14  18
ENDBRANCH   5  10
BRANCH   1  21
HETATM   21  C   UNK N   1      24.882  21.818  -8.307  0.00  0.00     0.198 C 
BRANCH  21  22
HETATM   22  O   UNK N   1      23.525  22.062  -8.096  0.00  0.00    -0.398 OA
HETATM   23  H   UNK N   1      22.761  21.589  -8.460  0.00  0.00     0.209 HD
ENDBRANCH  21  22
ENDBRANCH   1  21
TORSDOF 5
ENDMDL
MODEL 7
REMARK VINA RESULT:      -5.3      2.908      5.766
REMARK  5 active torsions:
REMARK  status: ('A' for Active; 'I' for Inactive)
REMARK    1  A    between atoms: O_1  and  C_2 
REMARK    2  A    between atoms: C_3  and  C_2 
REMARK    3  A    between atoms: C_4  and  O_5 
REMARK    4  A    between atoms: C_8  and  N_10 
REMARK    5  A    between atoms: C_15  and  N_16 
ROOT
HETATM    1  C   UNK N   1      33.543  17.521   6.560  0.00  0.00     0.179 C 
HETATM    2  C   UNK N   1      32.333  17.517   7.513  0.00  0.00     0.182 C 
HETATM    3  C   UNK N   1      32.765  16.574   8.623  0.00  0.00     0.198 C 
HETATM    4  O   UNK N   1      32.349  15.272   8.317  0.00  0.00    -0.388 OA
HETATM    5  C   UNK N   1      34.264  16.684   8.407  0.00  0.00     0.263 C 
HETATM    6  O   UNK N   1      34.454  16.563   7.026  0.00  0.00    -0.353 OA
HETATM    7  H   UNK N   1      32.210  14.349   8.055  0.00  0.00     0.210 HD
ENDROOT
BRANCH   2   8
HETATM    8  O   UNK N   1      31.144  17.090   6.909  0.00  0.00    -0.390 OA
HETATM    9  H   UNK N   1      30.818  17.026   5.998  0.00  0.00     0.210 HD
ENDBRANCH   2   8
BRANCH   5  10
HETATM   10  N   UNK N   1      35.205  15.859   9.194  0.00  0.00    -0.280 N 
HETATM   11  C   UNK N   1      35.665  16.167  10.469  0.00  0.00     0.330 A 
HETATM   12  O   UNK N   1      35.284  17.162  11.056  0.00  0.00    -0.246 OA
HETATM   13  N   UNK N   1      36.590  15.355  11.076  0.00  0.00    -0.295 N 
HETATM   14  C   UNK N   1      37.074  14.253  10.452  0.00  0.00     0.103 A 
ATOM     15  HN  UNK N   1      36.921  15.585  12.012  1.00  0.00     0.172 HD
HETATM   16  C   UNK N   1      36.629  13.928   9.178  0.00  0.00     0.065 A 
HETATM   17  C   UNK N   1      35.693  14.754   8.564  0.00  0.00     0.102 A 
BRANCH  14  18
HETATM   18  N   UNK N   1      38.037  13.447  11.088  0.00  0.00    -0.385 N 
HETATM   19  H   UNK N   1      38.640  13.836  11.762  0.00  0.00     0.157 HD
HETATM   20  H   UNK N   1      38.107  12.492  10.859  0.00  0.00     0.157 HD
ENDBRANCH  14  18
ENDBRANCH   5  10
BRANCH   1  21
HETATM   21  C   UNK N   1      33.223  17.344   5.084  0.00  0.00     0.198 C 
BRANCH  21  22
HETATM   22  O   UNK N   1      32.881  16.014   4.839  0.00  0.00    -0.398 OA
HETATM   23  H   UNK N   1      32.518  15.359   5.454  0.00  0.00     0.209 HD
ENDBRANCH  21  22
ENDBRANCH   1  21
TORSDOF 5
ENDMDL
MODEL 8
REMARK VINA RESULT:      -5.3     13.041     14.933
REMARK  5 active torsions:
REMARK  status: ('A' for Active; 'I' for Inactive)
REMARK    1  A    between atoms: O_1  and  C_2 
REMARK    2  A    between atoms: C_3  and  C_2 
REMARK    3  A    between atoms: C_4  and  O_5 
REMARK    4  A    between atoms: C_8  and  N_10 
REMARK    5  A    between atoms: C_15  and  N_16 
ROOT
HETATM    1  C   UNK N   1      30.609  22.101  -4.766  0.00  0.00     0.179 C 
HETATM    2  C   UNK N   1      30.382  21.571  -3.338  0.00  0.00     0.182 C 
HETATM    3  C   UNK N   1      29.667  22.721  -2.648  0.00  0.00     0.198 C 
HETATM    4  O   UNK N   1      30.611  23.557  -2.037  0.00  0.00    -0.388 OA
HETATM    5  C   UNK N   1      29.131  23.400  -3.895  0.00  0.00     0.263 C 
HETATM    6  O   UNK N   1      30.205  23.443  -4.791  0.00  0.00    -0.353 OA
HETATM    7  H   UNK N   1      31.247  24.227  -1.742  0.00  0.00     0.210 HD
ENDROOT
BRANCH   2   8
HETATM    8  O   UNK N   1      31.565  21.227  -2.673  0.00  0.00    -0.390 OA
HETATM    9  H   UNK N   1      32.280  21.718  -2.238  0.00  0.00     0.210 HD
ENDBRANCH   2   8
BRANCH   5  10
HETATM   10  N   UNK N   1      28.404  24.684  -3.804  0.00  0.00    -0.280 N 
HETATM   11  C   UNK N   1      27.093  24.831  -3.363  0.00  0.00     0.330 A 
HETATM   12  O   UNK N   1      26.444  23.877  -2.981  0.00  0.00    -0.246 OA
HETATM   13  N   UNK N   1      26.501  26.069  -3.385  0.00  0.00    -0.295 N 
HETATM   14  C   UNK N   1      27.168  27.160  -3.834  0.00  0.00     0.103 A 
ATOM     15  HN  UNK N   1      25.541  26.171  -3.057  1.00  0.00     0.172 HD
HETATM   16  C   UNK N   1      28.477  27.035  -4.280  0.00  0.00     0.065 A 
HETATM   17  C   UNK N   1      29.074  25.779  -4.260  0.00  0.00     0.102 A 
BRANCH  14  18
HETATM   18  N   UNK N   1      26.531  28.415  -3.864  0.00  0.00    -0.385 N 
HETATM   19  H   UNK N   1      26.104  28.733  -4.692  0.00  0.00     0.157 HD
HETATM   20  H   UNK N   1      26.513  28.976  -3.055  0.00  0.00     0.157 HD
ENDBRANCH  14  18
ENDBRANCH   5  10
BRANCH   1  21
HETATM   21  C   UNK N   1      32.008  21.908  -5.330  0.00  0.00     0.198 C 
BRANCH  21  22
HETATM   22  O   UNK N   1      32.273  20.543  -5.454  0.00  0.00    -0.398 OA
HETATM   23  H   UNK N   1      33.068  20.054  -5.192  0.00  0.00     0.209 HD
ENDBRANCH  21  22
ENDBRANCH   1  21
TORSDOF 5
ENDMDL
MODEL 9
REMARK VINA RESULT:      -5.2      5.860      8.711
REMARK  5 active torsions:
REMARK  status: ('A' for Active; 'I' for Inactive)
REMARK    1  A    between atoms: O_1  and  C_2 
REMARK    2  A    between atoms: C_3  and  C_2 
REMARK    3  A    between atoms: C_4  and  O_5 
REMARK    4  A    between atoms: C_8  and  N_10 
REMARK    5  A    between atoms: C_15  and  N_16 
ROOT
HETATM    1  C   UNK N   1      34.983  14.619  10.966  0.00  0.00     0.179 C 
HETATM    2  C   UNK N   1      35.892  13.539  10.348  0.00  0.00     0.182 C 
HETATM    3  C   UNK N   1      36.336  12.726  11.552  0.00  0.00     0.198 C 
HETATM    4  O   UNK N   1      37.535  13.250  12.052  0.00  0.00    -0.388 OA
HETATM    5  C   UNK N   1      35.198  13.107  12.482  0.00  0.00     0.263 C 
HETATM    6  O   UNK N   1      35.062  14.495  12.360  0.00  0.00    -0.353 OA
HETATM    7  H   UNK N   1      38.274  13.685  12.505  0.00  0.00     0.210 HD
ENDROOT
BRANCH   2   8
HETATM    8  O   UNK N   1      36.987  14.061   9.648  0.00  0.00    -0.390 OA
HETATM    9  H   UNK N   1      37.944  14.102   9.796  0.00  0.00     0.210 HD
ENDBRANCH   2   8
BRANCH   5  10
HETATM   10  N   UNK N   1      35.182  12.647  13.887  0.00  0.00    -0.280 N 
HETATM   11  C   UNK N   1      35.932  13.201  14.919  0.00  0.00     0.330 A 
HETATM   12  O   UNK N   1      36.658  14.158  14.730  0.00  0.00    -0.246 OA
HETATM   13  N   UNK N   1      35.882  12.646  16.173  0.00  0.00    -0.295 N 
HETATM   14  C   UNK N   1      35.117  11.557  16.429  0.00  0.00     0.103 A 
ATOM     15  HN  UNK N   1      36.432  13.059  16.926  1.00  0.00     0.172 HD
HETATM   16  C   UNK N   1      34.362  10.987  15.414  0.00  0.00     0.065 A 
HETATM   17  C   UNK N   1      34.415  11.551  14.143  0.00  0.00     0.102 A 
BRANCH  14  18
HETATM   18  N   UNK N   1      35.099  10.994  17.720  0.00  0.00    -0.385 N 
HETATM   19  H   UNK N   1      34.940  11.566  18.506  0.00  0.00     0.157 HD
HETATM   20  H   UNK N   1      35.244  10.028  17.837  0.00  0.00     0.157 HD
ENDBRANCH  14  18
ENDBRANCH   5  10
BRANCH   1  21
HETATM   21  C   UNK N   1      35.236  16.043  10.497  0.00  0.00     0.198 C 
BRANCH  21  22
HETATM   22  O   UNK N   1      36.521  16.435  10.874  0.00  0.00    -0.398 OA
HETATM   23  H   UNK N   1      37.122  16.011  11.506  0.00  0.00     0.209 HD
ENDBRANCH  21  22
ENDBRANCH   1  21
TORSDOF 5
ENDMDL
