REMARK  5 active torsions:
REMARK  status: ('A' for Active; 'I' for Inactive)
REMARK    1  A    between atoms: O_1  and  C_2 
REMARK    2  A    between atoms: C_3  and  C_2 
REMARK    3  A    between atoms: C_4  and  O_5 
REMARK    4  A    between atoms: C_8  and  N_10 
REMARK    5  A    between atoms: C_15  and  N_16 
ROOT
HETATM    1  C   UNK N   1      -2.714  -0.124  -0.376  0.00  0.00     0.179 C 
HETATM    2  C   UNK N   1      -2.458   1.394  -0.419  0.00  0.00     0.182 C 
HETATM    3  C   UNK N   1      -0.976   1.507  -0.103  0.00  0.00     0.198 C 
HETATM    4  O   UNK N   1      -0.804   1.659   1.279  0.00  0.00    -0.388 OA
HETATM    5  C   UNK N   1      -0.578   0.098  -0.504  0.00  0.00     0.263 C 
HETATM    6  O   UNK N   1      -1.538  -0.742   0.071  0.00  0.00    -0.353 OA
HETATM    7  H   UNK N   1      -0.654   1.609   2.236  0.00  0.00     0.210 HD
ENDROOT
BRANCH   2   8
HETATM    8  O   UNK N   1      -3.235   2.120   0.492  0.00  0.00    -0.390 OA
HETATM    9  H   UNK N   1      -3.068   2.837   1.123  0.00  0.00     0.210 HD
ENDBRANCH   2   8
BRANCH   5  10
HETATM   10  N   UNK N   1       0.805  -0.384  -0.303  0.00  0.00    -0.280 N 
HETATM   11  C   UNK N   1       1.861   0.388   0.169  0.00  0.00     0.330 A 
HETATM   12  O   UNK N   1       1.701   1.551   0.487  0.00  0.00    -0.246 OA
HETATM   13  N   UNK N   1       3.119  -0.154   0.252  0.00  0.00    -0.295 N 
HETATM   14  C   UNK N   1       3.359  -1.434  -0.123  0.00  0.00     0.103 A 
ATOM     15  HN  UNK N   1       3.888   0.417   0.602  1.00  0.00     0.172 HD
HETATM   16  C   UNK N   1       2.320  -2.222  -0.598  0.00  0.00     0.065 A 
HETATM   17  C   UNK N   1       1.046  -1.670  -0.684  0.00  0.00     0.102 A 
BRANCH  14  18
HETATM   18  N   UNK N   1       4.663  -1.960  -0.046  0.00  0.00    -0.385 N 
HETATM   19  H   UNK N   1       4.801  -2.933   0.007  0.00  0.00     0.157 HD
HETATM   20  H   UNK N   1       5.438  -1.353  -0.046  0.00  0.00     0.157 HD
ENDBRANCH  14  18
ENDBRANCH   5  10
BRANCH   1  21
HETATM   21  C   UNK N   1      -3.936  -0.567   0.414  0.00  0.00     0.198 C 
BRANCH  21  22
HETATM   22  O   UNK N   1      -5.092  -0.213  -0.283  0.00  0.00    -0.398 OA
HETATM   23  H   UNK N   1      -5.281   0.606  -0.766  0.00  0.00     0.209 HD
ENDBRANCH  21  22
ENDBRANCH   1  21
TORSDOF 5
