REMARK  9 active torsions:
REMARK  status: ('A' for Active; 'I' for Inactive)
REMARK    1  A    between atoms: O_1  and  C_2 
REMARK    2  A    between atoms: C_3  and  C_2 
REMARK    3  A    between atoms: C_5  and  O_6 
REMARK    4  A    between atoms: O_6  and  C_7 
REMARK    5  A    between atoms: C_15  and  C_18 
REMARK    6  A    between atoms: C_21  and  O_22 
REMARK    7  A    between atoms: C_25  and  O_26 
REMARK    8  A    between atoms: C_27  and  O_28 
REMARK    9  A    between atoms: C_29  and  O_30 
ROOT
HETATM    1  C   UNK N   1      -1.579   0.961   0.244  0.00  0.00     0.074 A 
HETATM    2  C   UNK N   1      -0.356   1.635   0.086  0.00  0.00     0.075 A 
HETATM    3  C   UNK N   1       0.848   0.910   0.105  0.00  0.00     0.091 A 
HETATM    4  C   UNK N   1       0.815  -0.489   0.289  0.00  0.00     0.049 A 
HETATM    5  C   UNK N   1      -0.401  -1.139   0.491  0.00  0.00     0.021 A 
HETATM    6  C   UNK N   1      -1.580  -0.417   0.472  0.00  0.00     0.038 A 
HETATM    7  C   UNK N   1       2.005  -1.211   0.256  0.00  0.00     0.197 A 
HETATM    8  O   UNK N   1       1.977  -2.424   0.406  0.00  0.00    -0.286 OA
HETATM    9  C   UNK N   1       3.222  -0.531   0.048  0.00  0.00     0.048 A 
HETATM   10  C   UNK N   1       3.171   0.869  -0.102  0.00  0.00     0.159 A 
HETATM   11  O   UNK N   1       2.011   1.529  -0.075  0.00  0.00    -0.321 OA
ENDROOT
BRANCH   1  12
HETATM   12  O   UNK N   1      -2.756   1.625   0.153  0.00  0.00    -0.318 OA
BRANCH  12  13
HETATM   13  C   UNK N   1      -3.633   1.452  -0.918  0.00  0.00     0.298 C 
HETATM   14  O   UNK N   1      -3.685   0.126  -1.422  0.00  0.00    -0.348 OA
HETATM   15  C   UNK N   1      -4.263  -0.730  -0.458  0.00  0.00     0.179 C 
HETATM   16  C   UNK N   1      -5.734  -0.378  -0.227  0.00  0.00     0.180 C 
HETATM   17  C   UNK N   1      -5.794   1.056   0.297  0.00  0.00     0.183 C 
HETATM   18  C   UNK N   1      -5.046   1.989  -0.652  0.00  0.00     0.205 C 
BRANCH  15  19
HETATM   19  C   UNK N   1      -4.059  -2.173  -0.897  0.00  0.00     0.198 C 
BRANCH  19  20
HETATM   20  O   UNK N   1      -4.158  -3.028   0.201  0.00  0.00    -0.398 OA
HETATM   21  H   UNK N   1      -4.708  -3.265   0.965  0.00  0.00     0.209 HD
ENDBRANCH  19  20
ENDBRANCH  15  19
BRANCH  16  22
HETATM   22  O   UNK N   1      -6.296  -1.237   0.720  0.00  0.00    -0.390 OA
HETATM   23  H   UNK N   1      -7.009  -1.197   1.377  0.00  0.00     0.210 HD
ENDBRANCH  16  22
BRANCH  17  24
HETATM   24  O   UNK N   1      -7.125   1.460   0.413  0.00  0.00    -0.390 OA
HETATM   25  H   UNK N   1      -7.344   2.401   0.494  0.00  0.00     0.210 HD
ENDBRANCH  17  24
BRANCH  18  26
HETATM   26  O   UNK N   1      -4.996   3.285  -0.138  0.00  0.00    -0.388 OA
HETATM   27  H   UNK N   1      -4.198   3.705   0.220  0.00  0.00     0.210 HD
ENDBRANCH  18  26
ENDBRANCH  12  13
ENDBRANCH   1  12
BRANCH   9  28
HETATM   28  C   UNK N   1       4.535  -1.244  -0.017  0.00  0.00    -0.020 A 
HETATM   29  C   UNK N   1       4.596  -2.650  -0.021  0.00  0.00     0.015 A 
HETATM   30  C   UNK N   1       5.818  -3.317  -0.078  0.00  0.00     0.037 A 
HETATM   31  C   UNK N   1       7.005  -2.588  -0.124  0.00  0.00     0.065 A 
HETATM   32  C   UNK N   1       6.967  -1.191  -0.125  0.00  0.00     0.037 A 
HETATM   33  C   UNK N   1       5.738  -0.521  -0.078  0.00  0.00     0.015 A 
BRANCH  31  34
HETATM   34  O   UNK N   1       8.182  -3.231  -0.166  0.00  0.00    -0.361 OA
HETATM   35  H   UNK N   1       8.205  -4.168  -0.196  0.00  0.00     0.217 HD
ENDBRANCH  31  34
ENDBRANCH   9  28
TORSDOF 9
