MODEL 1
REMARK VINA RESULT:      -8.4      0.000      0.000
REMARK  9 active torsions:
REMARK  status: ('A' for Active; 'I' for Inactive)
REMARK    1  A    between atoms: O_1  and  C_2 
REMARK    2  A    between atoms: C_3  and  C_2 
REMARK    3  A    between atoms: C_5  and  O_6 
REMARK    4  A    between atoms: O_6  and  C_7 
REMARK    5  A    between atoms: C_15  and  C_18 
REMARK    6  A    between atoms: C_21  and  O_22 
REMARK    7  A    between atoms: C_25  and  O_26 
REMARK    8  A    between atoms: C_27  and  O_28 
REMARK    9  A    between atoms: C_29  and  O_30 
ROOT
HETATM    1  C   UNK N   1      24.371  17.909   3.802  0.00  0.00     0.074 A 
HETATM    2  C   UNK N   1      25.178  16.772   3.982  0.00  0.00     0.075 A 
HETATM    3  C   UNK N   1      26.541  16.925   4.287  0.00  0.00     0.091 A 
HETATM    4  C   UNK N   1      27.087  18.222   4.403  0.00  0.00     0.049 A 
HETATM    5  C   UNK N   1      26.287  19.340   4.176  0.00  0.00     0.021 A 
HETATM    6  C   UNK N   1      24.947  19.179   3.875  0.00  0.00     0.038 A 
HETATM    7  C   UNK N   1      28.425  18.371   4.755  0.00  0.00     0.197 A 
HETATM    8  O   UNK N   1      28.897  19.494   4.865  0.00  0.00    -0.286 OA
HETATM    9  C   UNK N   1      29.214  17.225   4.981  0.00  0.00     0.048 A 
HETATM   10  C   UNK N   1      28.600  15.967   4.821  0.00  0.00     0.159 A 
HETATM   11  O   UNK N   1      27.310  15.860   4.491  0.00  0.00    -0.321 OA
ENDROOT
BRANCH   1  12
HETATM   12  O   UNK N   1      23.039  17.789   3.584  0.00  0.00    -0.318 OA
BRANCH  12  13
HETATM   13  C   UNK N   1      22.097  18.568   4.255  0.00  0.00     0.298 C 
HETATM   14  O   UNK N   1      21.646  19.699   3.524  0.00  0.00    -0.348 OA
HETATM   15  C   UNK N   1      20.898  19.276   2.403  0.00  0.00     0.179 C 
HETATM   16  C   UNK N   1      19.600  18.591   2.838  0.00  0.00     0.180 C 
HETATM   17  C   UNK N   1      19.976  17.362   3.665  0.00  0.00     0.183 C 
HETATM   18  C   UNK N   1      20.910  17.765   4.803  0.00  0.00     0.205 C 
BRANCH  15  19
HETATM   19  C   UNK N   1      20.662  20.471   1.491  0.00  0.00     0.198 C 
BRANCH  19  20
HETATM   20  O   UNK N   1      20.650  20.063   0.157  0.00  0.00    -0.398 OA
HETATM   21  H   UNK N   1      20.114  19.633  -0.529  0.00  0.00     0.209 HD
ENDBRANCH  19  20
ENDBRANCH  15  19
BRANCH  16  22
HETATM   22  O   UNK N   1      18.866  18.187   1.722  0.00  0.00    -0.390 OA
HETATM   23  H   UNK N   1      18.039  18.448   1.286  0.00  0.00     0.210 HD
ENDBRANCH  16  22
BRANCH  17  24
HETATM   24  O   UNK N   1      18.822  16.771   4.181  0.00  0.00    -0.390 OA
HETATM   25  H   UNK N   1      17.961  16.938   3.767  0.00  0.00     0.210 HD
ENDBRANCH  17  24
BRANCH  18  26
HETATM   26  O   UNK N   1      21.351  16.643   5.505  0.00  0.00    -0.388 OA
HETATM   27  H   UNK N   1      20.900  15.784   5.509  0.00  0.00     0.210 HD
ENDBRANCH  18  26
ENDBRANCH  12  13
ENDBRANCH   1  12
BRANCH   9  28
HETATM   28  C   UNK N   1      30.653  17.310   5.380  0.00  0.00    -0.020 A 
HETATM   29  C   UNK N   1      31.038  17.200   6.729  0.00  0.00     0.015 A 
HETATM   30  C   UNK N   1      32.378  17.282   7.104  0.00  0.00     0.037 A 
HETATM   31  C   UNK N   1      33.358  17.486   6.134  0.00  0.00     0.065 A 
HETATM   32  C   UNK N   1      32.998  17.595   4.788  0.00  0.00     0.037 A 
HETATM   33  C   UNK N   1      31.652  17.501   4.411  0.00  0.00     0.015 A 
BRANCH  31  34
HETATM   34  O   UNK N   1      34.647  17.578   6.497  0.00  0.00    -0.361 OA
HETATM   35  H   UNK N   1      35.264  18.003   5.934  0.00  0.00     0.217 HD
ENDBRANCH  31  34
ENDBRANCH   9  28
TORSDOF 9
ENDMDL
MODEL 2
REMARK VINA RESULT:      -7.9      3.243     10.867
REMARK  9 active torsions:
REMARK  status: ('A' for Active; 'I' for Inactive)
REMARK    1  A    between atoms: O_1  and  C_2 
REMARK    2  A    between atoms: C_3  and  C_2 
REMARK    3  A    between atoms: C_5  and  O_6 
REMARK    4  A    between atoms: O_6  and  C_7 
REMARK    5  A    between atoms: C_15  and  C_18 
REMARK    6  A    between atoms: C_21  and  O_22 
REMARK    7  A    between atoms: C_25  and  O_26 
REMARK    8  A    between atoms: C_27  and  O_28 
REMARK    9  A    between atoms: C_29  and  O_30 
ROOT
HETATM    1  C   UNK N   1      31.273  15.587   7.597  0.00  0.00     0.074 A 
HETATM    2  C   UNK N   1      30.551  16.720   8.009  0.00  0.00     0.075 A 
HETATM    3  C   UNK N   1      29.643  17.328   7.126  0.00  0.00     0.091 A 
HETATM    4  C   UNK N   1      29.470  16.796   5.830  0.00  0.00     0.049 A 
HETATM    5  C   UNK N   1      30.226  15.701   5.418  0.00  0.00     0.021 A 
HETATM    6  C   UNK N   1      31.118  15.110   6.293  0.00  0.00     0.038 A 
HETATM    7  C   UNK N   1      28.532  17.369   4.976  0.00  0.00     0.197 A 
HETATM    8  O   UNK N   1      28.374  16.904   3.856  0.00  0.00    -0.286 OA
HETATM    9  C   UNK N   1      27.778  18.476   5.417  0.00  0.00     0.048 A 
HETATM   10  C   UNK N   1      28.029  18.962   6.715  0.00  0.00     0.159 A 
HETATM   11  O   UNK N   1      28.929  18.382   7.512  0.00  0.00    -0.321 OA
ENDROOT
BRANCH   1  12
HETATM   12  O   UNK N   1      32.097  14.937   8.453  0.00  0.00    -0.318 OA
BRANCH  12  13
HETATM   13  C   UNK N   1      33.454  14.750   8.191  0.00  0.00     0.298 C 
HETATM   14  O   UNK N   1      34.137  15.925   7.782  0.00  0.00    -0.348 OA
HETATM   15  C   UNK N   1      34.193  16.844   8.854  0.00  0.00     0.179 C 
HETATM   16  C   UNK N   1      35.062  16.303   9.992  0.00  0.00     0.180 C 
HETATM   17  C   UNK N   1      34.423  15.009  10.492  0.00  0.00     0.183 C 
HETATM   18  C   UNK N   1      34.211  14.047   9.326  0.00  0.00     0.205 C 
BRANCH  15  19
HETATM   19  C   UNK N   1      34.675  18.187   8.325  0.00  0.00     0.198 C 
BRANCH  19  20
HETATM   20  O   UNK N   1      34.531  18.238   6.938  0.00  0.00    -0.398 OA
HETATM   21  H   UNK N   1      34.130  18.735   6.208  0.00  0.00     0.209 HD
ENDBRANCH  19  20
ENDBRANCH  15  19
BRANCH  16  22
HETATM   22  O   UNK N   1      35.117  17.224  11.040  0.00  0.00    -0.390 OA
HETATM   23  H   UNK N   1      35.089  18.189  11.137  0.00  0.00     0.210 HD
ENDBRANCH  16  22
BRANCH  17  24
HETATM   24  O   UNK N   1      35.245  14.419  11.454  0.00  0.00    -0.390 OA
HETATM   25  H   UNK N   1      35.480  14.906  12.259  0.00  0.00     0.210 HD
ENDBRANCH  17  24
BRANCH  18  26
HETATM   26  O   UNK N   1      33.531  12.903   9.742  0.00  0.00    -0.388 OA
HETATM   27  H   UNK N   1      32.884  12.420   9.204  0.00  0.00     0.210 HD
ENDBRANCH  18  26
ENDBRANCH  12  13
ENDBRANCH   1  12
BRANCH   9  28
HETATM   28  C   UNK N   1      26.742  19.130   4.559  0.00  0.00    -0.020 A 
HETATM   29  C   UNK N   1      25.400  18.705   4.594  0.00  0.00     0.015 A 
HETATM   30  C   UNK N   1      24.433  19.310   3.794  0.00  0.00     0.037 A 
HETATM   31  C   UNK N   1      24.792  20.348   2.936  0.00  0.00     0.065 A 
HETATM   32  C   UNK N   1      26.118  20.788   2.889  0.00  0.00     0.037 A 
HETATM   33  C   UNK N   1      27.088  20.187   3.701  0.00  0.00     0.015 A 
BRANCH  31  34
HETATM   34  O   UNK N   1      23.863  20.922   2.157  0.00  0.00    -0.361 OA
HETATM   35  H   UNK N   1      23.920  20.846   1.224  0.00  0.00     0.217 HD
ENDBRANCH  31  34
ENDBRANCH   9  28
TORSDOF 9
ENDMDL
MODEL 3
REMARK VINA RESULT:      -7.8      9.997     14.151
REMARK  9 active torsions:
REMARK  status: ('A' for Active; 'I' for Inactive)
REMARK    1  A    between atoms: O_1  and  C_2 
REMARK    2  A    between atoms: C_3  and  C_2 
REMARK    3  A    between atoms: C_5  and  O_6 
REMARK    4  A    between atoms: O_6  and  C_7 
REMARK    5  A    between atoms: C_15  and  C_18 
REMARK    6  A    between atoms: C_21  and  O_22 
REMARK    7  A    between atoms: C_25  and  O_26 
REMARK    8  A    between atoms: C_27  and  O_28 
REMARK    9  A    between atoms: C_29  and  O_30 
ROOT
HETATM    1  C   UNK N   1      35.298  14.331  10.940  0.00  0.00     0.074 A 
HETATM    2  C   UNK N   1      34.735  13.176  11.508  0.00  0.00     0.075 A 
HETATM    3  C   UNK N   1      34.960  12.885  12.864  0.00  0.00     0.091 A 
HETATM    4  C   UNK N   1      35.756  13.754  13.640  0.00  0.00     0.049 A 
HETATM    5  C   UNK N   1      36.347  14.872  13.053  0.00  0.00     0.021 A 
HETATM    6  C   UNK N   1      36.120  15.149  11.718  0.00  0.00     0.038 A 
HETATM    7  C   UNK N   1      35.936  13.491  14.995  0.00  0.00     0.197 A 
HETATM    8  O   UNK N   1      36.617  14.248  15.671  0.00  0.00    -0.286 OA
HETATM    9  C   UNK N   1      35.326  12.355  15.567  0.00  0.00     0.048 A 
HETATM   10  C   UNK N   1      34.568  11.524  14.718  0.00  0.00     0.159 A 
HETATM   11  O   UNK N   1      34.408  11.812  13.425  0.00  0.00    -0.321 OA
ENDROOT
BRANCH   1  12
HETATM   12  O   UNK N   1      35.033  14.675   9.657  0.00  0.00    -0.318 OA
BRANCH  12  13
HETATM   13  C   UNK N   1      33.741  14.940   9.203  0.00  0.00     0.298 C 
HETATM   14  O   UNK N   1      33.402  16.318   9.176  0.00  0.00    -0.348 OA
HETATM   15  C   UNK N   1      34.173  16.981   8.196  0.00  0.00     0.179 C 
HETATM   16  C   UNK N   1      33.807  16.496   6.792  0.00  0.00     0.180 C 
HETATM   17  C   UNK N   1      34.112  15.001   6.721  0.00  0.00     0.183 C 
HETATM   18  C   UNK N   1      33.408  14.271   7.862  0.00  0.00     0.205 C 
BRANCH  15  19
HETATM   19  C   UNK N   1      34.001  18.484   8.370  0.00  0.00     0.198 C 
BRANCH  19  20
HETATM   20  O   UNK N   1      35.247  19.111   8.389  0.00  0.00    -0.398 OA
HETATM   21  H   UNK N   1      35.793  19.759   8.862  0.00  0.00     0.209 HD
ENDBRANCH  19  20
ENDBRANCH  15  19
BRANCH  16  22
HETATM   22  O   UNK N   1      34.569  17.167   5.833  0.00  0.00    -0.390 OA
HETATM   23  H   UNK N   1      35.494  17.169   5.539  0.00  0.00     0.210 HD
ENDBRANCH  16  22
BRANCH  17  24
HETATM   24  O   UNK N   1      33.685  14.491   5.493  0.00  0.00    -0.390 OA
HETATM   25  H   UNK N   1      34.143  14.741   4.676  0.00  0.00     0.210 HD
ENDBRANCH  17  24
BRANCH  18  26
HETATM   26  O   UNK N   1      33.759  12.921   7.880  0.00  0.00    -0.388 OA
HETATM   27  H   UNK N   1      34.205  12.478   8.619  0.00  0.00     0.210 HD
ENDBRANCH  18  26
ENDBRANCH  12  13
ENDBRANCH   1  12
BRANCH   9  28
HETATM   28  C   UNK N   1      35.461  12.021  17.018  0.00  0.00    -0.020 A 
HETATM   29  C   UNK N   1      35.961  10.771  17.430  0.00  0.00     0.015 A 
HETATM   30  C   UNK N   1      36.084  10.456  18.781  0.00  0.00     0.037 A 
HETATM   31  C   UNK N   1      35.702  11.383  19.748  0.00  0.00     0.065 A 
HETATM   32  C   UNK N   1      35.206  12.632  19.361  0.00  0.00     0.037 A 
HETATM   33  C   UNK N   1      35.092  12.952  18.003  0.00  0.00     0.015 A 
BRANCH  31  34
HETATM   34  O   UNK N   1      35.809  11.074  21.050  0.00  0.00    -0.361 OA
HETATM   35  H   UNK N   1      35.332  10.347  21.401  0.00  0.00     0.217 HD
ENDBRANCH  31  34
ENDBRANCH   9  28
TORSDOF 9
ENDMDL
MODEL 4
REMARK VINA RESULT:      -7.5      1.769      2.604
REMARK  9 active torsions:
REMARK  status: ('A' for Active; 'I' for Inactive)
REMARK    1  A    between atoms: O_1  and  C_2 
REMARK    2  A    between atoms: C_3  and  C_2 
REMARK    3  A    between atoms: C_5  and  O_6 
REMARK    4  A    between atoms: O_6  and  C_7 
REMARK    5  A    between atoms: C_15  and  C_18 
REMARK    6  A    between atoms: C_21  and  O_22 
REMARK    7  A    between atoms: C_25  and  O_26 
REMARK    8  A    between atoms: C_27  and  O_28 
REMARK    9  A    between atoms: C_29  and  O_30 
ROOT
HETATM    1  C   UNK N   1      23.390  16.763   4.175  0.00  0.00     0.074 A 
HETATM    2  C   UNK N   1      24.442  17.658   3.916  0.00  0.00     0.075 A 
HETATM    3  C   UNK N   1      25.604  17.616   4.706  0.00  0.00     0.091 A 
HETATM    4  C   UNK N   1      25.698  16.678   5.756  0.00  0.00     0.049 A 
HETATM    5  C   UNK N   1      24.629  15.828   6.032  0.00  0.00     0.021 A 
HETATM    6  C   UNK N   1      23.489  15.877   5.250  0.00  0.00     0.038 A 
HETATM    7  C   UNK N   1      26.870  16.604   6.504  0.00  0.00     0.197 A 
HETATM    8  O   UNK N   1      26.957  15.786   7.408  0.00  0.00    -0.286 OA
HETATM    9  C   UNK N   1      27.939  17.473   6.204  0.00  0.00     0.048 A 
HETATM   10  C   UNK N   1      27.755  18.398   5.157  0.00  0.00     0.159 A 
HETATM   11  O   UNK N   1      26.621  18.435   4.453  0.00  0.00    -0.321 OA
ENDROOT
BRANCH   1  12
HETATM   12  O   UNK N   1      22.292  16.731   3.382  0.00  0.00    -0.318 OA
BRANCH  12  13
HETATM   13  C   UNK N   1      21.125  17.430   3.689  0.00  0.00     0.298 C 
HETATM   14  O   UNK N   1      21.276  18.841   3.711  0.00  0.00    -0.348 OA
HETATM   15  C   UNK N   1      21.539  19.314   2.406  0.00  0.00     0.179 C 
HETATM   16  C   UNK N   1      20.329  19.099   1.494  0.00  0.00     0.180 C 
HETATM   17  C   UNK N   1      20.060  17.597   1.422  0.00  0.00     0.183 C 
HETATM   18  C   UNK N   1      19.919  17.025   2.830  0.00  0.00     0.205 C 
BRANCH  15  19
HETATM   19  C   UNK N   1      21.969  20.772   2.489  0.00  0.00     0.198 C 
BRANCH  19  20
HETATM   20  O   UNK N   1      20.894  21.608   2.186  0.00  0.00    -0.398 OA
HETATM   21  H   UNK N   1      20.119  22.058   2.559  0.00  0.00     0.209 HD
ENDBRANCH  19  20
ENDBRANCH  15  19
BRANCH  16  22
HETATM   22  O   UNK N   1      20.597  19.580   0.210  0.00  0.00    -0.390 OA
HETATM   23  H   UNK N   1      20.409  19.306  -0.702  0.00  0.00     0.210 HD
ENDBRANCH  16  22
BRANCH  17  24
HETATM   24  O   UNK N   1      18.893  17.361   0.692  0.00  0.00    -0.390 OA
HETATM   25  H   UNK N   1      18.766  17.781  -0.173  0.00  0.00     0.210 HD
ENDBRANCH  17  24
BRANCH  18  26
HETATM   26  O   UNK N   1      19.780  15.637   2.792  0.00  0.00    -0.388 OA
HETATM   27  H   UNK N   1      19.818  15.058   3.569  0.00  0.00     0.210 HD
ENDBRANCH  18  26
ENDBRANCH  12  13
ENDBRANCH   1  12
BRANCH   9  28
HETATM   28  C   UNK N   1      29.232  17.438   6.953  0.00  0.00    -0.020 A 
HETATM   29  C   UNK N   1      29.407  18.186   8.132  0.00  0.00     0.015 A 
HETATM   30  C   UNK N   1      30.613  18.157   8.830  0.00  0.00     0.037 A 
HETATM   31  C   UNK N   1      31.671  17.384   8.356  0.00  0.00     0.065 A 
HETATM   32  C   UNK N   1      31.517  16.630   7.190  0.00  0.00     0.037 A 
HETATM   33  C   UNK N   1      30.302  16.651   6.494  0.00  0.00     0.015 A 
BRANCH  31  34
HETATM   34  O   UNK N   1      32.836  17.367   9.022  0.00  0.00    -0.361 OA
HETATM   35  H   UNK N   1      32.843  17.259   9.954  0.00  0.00     0.217 HD
ENDBRANCH  31  34
ENDBRANCH   9  28
TORSDOF 9
ENDMDL
MODEL 5
REMARK VINA RESULT:      -7.5      2.973     11.302
REMARK  9 active torsions:
REMARK  status: ('A' for Active; 'I' for Inactive)
REMARK    1  A    between atoms: O_1  and  C_2 
REMARK    2  A    between atoms: C_3  and  C_2 
REMARK    3  A    between atoms: C_5  and  O_6 
REMARK    4  A    between atoms: O_6  and  C_7 
REMARK    5  A    between atoms: C_15  and  C_18 
REMARK    6  A    between atoms: C_21  and  O_22 
REMARK    7  A    between atoms: C_25  and  O_26 
REMARK    8  A    between atoms: C_27  and  O_28 
REMARK    9  A    between atoms: C_29  and  O_30 
ROOT
HETATM    1  C   UNK N   1      31.462  16.230   7.289  0.00  0.00     0.074 A 
HETATM    2  C   UNK N   1      30.915  15.985   6.018  0.00  0.00     0.075 A 
HETATM    3  C   UNK N   1      29.776  16.694   5.600  0.00  0.00     0.091 A 
HETATM    4  C   UNK N   1      29.190  17.642   6.466  0.00  0.00     0.049 A 
HETATM    5  C   UNK N   1      29.714  17.842   7.741  0.00  0.00     0.021 A 
HETATM    6  C   UNK N   1      30.834  17.139   8.144  0.00  0.00     0.038 A 
HETATM    7  C   UNK N   1      28.093  18.380   6.030  0.00  0.00     0.197 A 
HETATM    8  O   UNK N   1      27.590  19.209   6.775  0.00  0.00    -0.286 OA
HETATM    9  C   UNK N   1      27.581  18.161   4.735  0.00  0.00     0.048 A 
HETATM   10  C   UNK N   1      28.208  17.180   3.942  0.00  0.00     0.159 A 
HETATM   11  O   UNK N   1      29.265  16.497   4.388  0.00  0.00    -0.321 OA
ENDROOT
BRANCH   1  12
HETATM   12  O   UNK N   1      32.602  15.616   7.685  0.00  0.00    -0.318 OA
BRANCH  12  13
HETATM   13  C   UNK N   1      33.764  16.323   7.999  0.00  0.00     0.298 C 
HETATM   14  O   UNK N   1      34.098  16.313   9.378  0.00  0.00    -0.348 OA
HETATM   15  C   UNK N   1      34.462  15.007   9.774  0.00  0.00     0.179 C 
HETATM   16  C   UNK N   1      35.759  14.570   9.089  0.00  0.00     0.180 C 
HETATM   17  C   UNK N   1      35.513  14.572   7.580  0.00  0.00     0.183 C 
HETATM   18  C   UNK N   1      34.975  15.932   7.142  0.00  0.00     0.205 C 
BRANCH  15  19
HETATM   19  C   UNK N   1      34.547  14.958  11.292  0.00  0.00     0.198 C 
BRANCH  19  20
HETATM   20  O   UNK N   1      34.166  13.698  11.755  0.00  0.00    -0.398 OA
HETATM   21  H   UNK N   1      33.467  13.026  11.717  0.00  0.00     0.209 HD
ENDBRANCH  19  20
ENDBRANCH  15  19
BRANCH  16  22
HETATM   22  O   UNK N   1      36.112  13.281   9.495  0.00  0.00    -0.390 OA
HETATM   23  H   UNK N   1      36.696  12.884  10.160  0.00  0.00     0.210 HD
ENDBRANCH  16  22
BRANCH  17  24
HETATM   24  O   UNK N   1      36.704  14.291   6.909  0.00  0.00    -0.390 OA
HETATM   25  H   UNK N   1      37.379  14.979   6.803  0.00  0.00     0.210 HD
ENDBRANCH  17  24
BRANCH  18  26
HETATM   26  O   UNK N   1      34.643  15.921   5.787  0.00  0.00    -0.388 OA
HETATM   27  H   UNK N   1      35.193  15.535   5.088  0.00  0.00     0.210 HD
ENDBRANCH  18  26
ENDBRANCH  12  13
ENDBRANCH   1  12
BRANCH   9  28
HETATM   28  C   UNK N   1      26.418  18.930   4.194  0.00  0.00    -0.020 A 
HETATM   29  C   UNK N   1      26.612  20.053   3.369  0.00  0.00     0.015 A 
HETATM   30  C   UNK N   1      25.530  20.773   2.866  0.00  0.00     0.037 A 
HETATM   31  C   UNK N   1      24.230  20.386   3.188  0.00  0.00     0.065 A 
HETATM   32  C   UNK N   1      24.015  19.272   4.003  0.00  0.00     0.037 A 
HETATM   33  C   UNK N   1      25.102  18.542   4.499  0.00  0.00     0.015 A 
BRANCH  31  34
HETATM   34  O   UNK N   1      23.189  21.088   2.714  0.00  0.00    -0.361 OA
HETATM   35  H   UNK N   1      22.313  20.796   2.878  0.00  0.00     0.217 HD
ENDBRANCH  31  34
ENDBRANCH   9  28
TORSDOF 9
ENDMDL
MODEL 6
REMARK VINA RESULT:      -7.3      3.452     11.759
REMARK  9 active torsions:
REMARK  status: ('A' for Active; 'I' for Inactive)
REMARK    1  A    between atoms: O_1  and  C_2 
REMARK    2  A    between atoms: C_3  and  C_2 
REMARK    3  A    between atoms: C_5  and  O_6 
REMARK    4  A    between atoms: O_6  and  C_7 
REMARK    5  A    between atoms: C_15  and  C_18 
REMARK    6  A    between atoms: C_21  and  O_22 
REMARK    7  A    between atoms: C_25  and  O_26 
REMARK    8  A    between atoms: C_27  and  O_28 
REMARK    9  A    between atoms: C_29  and  O_30 
ROOT
HETATM    1  C   UNK N   1      32.746  16.371   7.441  0.00  0.00     0.074 A 
HETATM    2  C   UNK N   1      31.708  17.066   8.086  0.00  0.00     0.075 A 
HETATM    3  C   UNK N   1      30.596  17.504   7.346  0.00  0.00     0.091 A 
HETATM    4  C   UNK N   1      30.537  17.245   5.960  0.00  0.00     0.049 A 
HETATM    5  C   UNK N   1      31.594  16.596   5.324  0.00  0.00     0.021 A 
HETATM    6  C   UNK N   1      32.684  16.170   6.060  0.00  0.00     0.038 A 
HETATM    7  C   UNK N   1      29.411  17.635   5.239  0.00  0.00     0.197 A 
HETATM    8  O   UNK N   1      29.355  17.403   4.040  0.00  0.00    -0.286 OA
HETATM    9  C   UNK N   1      28.355  18.288   5.905  0.00  0.00     0.048 A 
HETATM   10  C   UNK N   1      28.503  18.531   7.285  0.00  0.00     0.159 A 
HETATM   11  O   UNK N   1      29.592  18.135   7.947  0.00  0.00    -0.321 OA
ENDROOT
BRANCH   1  12
HETATM   12  O   UNK N   1      33.790  15.872   8.144  0.00  0.00    -0.318 OA
BRANCH  12  13
HETATM   13  C   UNK N   1      33.750  15.705   9.528  0.00  0.00     0.298 C 
HETATM   14  O   UNK N   1      33.493  14.374   9.949  0.00  0.00    -0.348 OA
HETATM   15  C   UNK N   1      34.584  13.545   9.608  0.00  0.00     0.179 C 
HETATM   16  C   UNK N   1      35.834  13.934  10.400  0.00  0.00     0.180 C 
HETATM   17  C   UNK N   1      36.187  15.375  10.037  0.00  0.00     0.183 C 
HETATM   18  C   UNK N   1      34.975  16.278  10.255  0.00  0.00     0.205 C 
BRANCH  15  19
HETATM   19  C   UNK N   1      34.180  12.092   9.812  0.00  0.00     0.198 C 
BRANCH  19  20
HETATM   20  O   UNK N   1      34.301  11.743  11.158  0.00  0.00    -0.398 OA
HETATM   21  H   UNK N   1      33.927  11.191  11.863  0.00  0.00     0.209 HD
ENDBRANCH  19  20
ENDBRANCH  15  19
BRANCH  16  22
HETATM   22  O   UNK N   1      36.903  13.100  10.061  0.00  0.00    -0.390 OA
HETATM   23  H   UNK N   1      37.297  12.281  10.400  0.00  0.00     0.210 HD
ENDBRANCH  16  22
BRANCH  17  24
HETATM   24  O   UNK N   1      37.254  15.812  10.823  0.00  0.00    -0.390 OA
HETATM   25  H   UNK N   1      37.199  16.656  11.296  0.00  0.00     0.210 HD
ENDBRANCH  17  24
BRANCH  18  26
HETATM   26  O   UNK N   1      35.242  17.579   9.828  0.00  0.00    -0.388 OA
HETATM   27  H   UNK N   1      34.845  17.994   9.046  0.00  0.00     0.210 HD
ENDBRANCH  18  26
ENDBRANCH  12  13
ENDBRANCH   1  12
BRANCH   9  28
HETATM   28  C   UNK N   1      27.109  18.718   5.198  0.00  0.00    -0.020 A 
HETATM   29  C   UNK N   1      26.017  17.842   5.057  0.00  0.00     0.015 A 
HETATM   30  C   UNK N   1      24.856  18.238   4.396  0.00  0.00     0.037 A 
HETATM   31  C   UNK N   1      24.770  19.520   3.855  0.00  0.00     0.065 A 
HETATM   32  C   UNK N   1      25.841  20.407   3.986  0.00  0.00     0.037 A 
HETATM   33  C   UNK N   1      27.003  20.012   4.660  0.00  0.00     0.015 A 
BRANCH  31  34
HETATM   34  O   UNK N   1      23.657  19.897   3.207  0.00  0.00    -0.361 OA
HETATM   35  H   UNK N   1      23.242  20.711   3.419  0.00  0.00     0.217 HD
ENDBRANCH  31  34
ENDBRANCH   9  28
TORSDOF 9
ENDMDL
MODEL 7
REMARK VINA RESULT:      -7.3     11.720     17.214
REMARK  9 active torsions:
REMARK  status: ('A' for Active; 'I' for Inactive)
REMARK    1  A    between atoms: O_1  and  C_2 
REMARK    2  A    between atoms: C_3  and  C_2 
REMARK    3  A    between atoms: C_5  and  O_6 
REMARK    4  A    between atoms: O_6  and  C_7 
REMARK    5  A    between atoms: C_15  and  C_18 
REMARK    6  A    between atoms: C_21  and  O_22 
REMARK    7  A    between atoms: C_25  and  O_26 
REMARK    8  A    between atoms: C_27  and  O_28 
REMARK    9  A    between atoms: C_29  and  O_30 
ROOT
HETATM    1  C   UNK N   1      34.679  12.293  14.310  0.00  0.00     0.074 A 
HETATM    2  C   UNK N   1      34.868  13.038  15.486  0.00  0.00     0.075 A 
HETATM    3  C   UNK N   1      34.980  12.376  16.721  0.00  0.00     0.091 A 
HETATM    4  C   UNK N   1      34.895  10.968  16.766  0.00  0.00     0.049 A 
HETATM    5  C   UNK N   1      34.661  10.244  15.598  0.00  0.00     0.021 A 
HETATM    6  C   UNK N   1      34.551  10.905  14.388  0.00  0.00     0.038 A 
HETATM    7  C   UNK N   1      35.057  10.311  17.983  0.00  0.00     0.197 A 
HETATM    8  O   UNK N   1      34.992   9.091  18.022  0.00  0.00    -0.286 OA
HETATM    9  C   UNK N   1      35.295  11.065  19.150  0.00  0.00     0.048 A 
HETATM   10  C   UNK N   1      35.340  12.468  19.024  0.00  0.00     0.159 A 
HETATM   11  O   UNK N   1      35.191  13.064  17.839  0.00  0.00    -0.321 OA
ENDROOT
BRANCH   1  12
HETATM   12  O   UNK N   1      34.645  12.901  13.100  0.00  0.00    -0.318 OA
BRANCH  12  13
HETATM   13  C   UNK N   1      35.631  12.700  12.133  0.00  0.00     0.298 C 
HETATM   14  O   UNK N   1      35.134  12.280  10.871  0.00  0.00    -0.348 OA
HETATM   15  C   UNK N   1      34.384  13.321  10.281  0.00  0.00     0.179 C 
HETATM   16  C   UNK N   1      35.281  14.511   9.933  0.00  0.00     0.180 C 
HETATM   17  C   UNK N   1      35.894  15.029  11.233  0.00  0.00     0.183 C 
HETATM   18  C   UNK N   1      36.589  13.888  11.972  0.00  0.00     0.205 C 
BRANCH  15  19
HETATM   19  C   UNK N   1      33.637  12.767   9.076  0.00  0.00     0.198 C 
BRANCH  19  20
HETATM   20  O   UNK N   1      32.364  13.331   8.998  0.00  0.00    -0.398 OA
HETATM   21  H   UNK N   1      31.878  14.170   8.945  0.00  0.00     0.209 HD
ENDBRANCH  19  20
ENDBRANCH  15  19
BRANCH  16  22
HETATM   22  O   UNK N   1      34.529  15.529   9.341  0.00  0.00    -0.390 OA
HETATM   23  H   UNK N   1      33.674  15.606   8.889  0.00  0.00     0.210 HD
ENDBRANCH  16  22
BRANCH  17  24
HETATM   24  O   UNK N   1      36.811  16.043  10.950  0.00  0.00    -0.390 OA
HETATM   25  H   UNK N   1      37.443  15.940  10.222  0.00  0.00     0.210 HD
ENDBRANCH  17  24
BRANCH  18  26
HETATM   26  O   UNK N   1      37.063  14.316  13.213  0.00  0.00    -0.388 OA
HETATM   27  H   UNK N   1      37.821  13.927  13.676  0.00  0.00     0.210 HD
ENDBRANCH  18  26
ENDBRANCH  12  13
ENDBRANCH   1  12
BRANCH   9  28
HETATM   28  C   UNK N   1      35.496  10.427  20.487  0.00  0.00    -0.020 A 
HETATM   29  C   UNK N   1      34.398  10.046  21.281  0.00  0.00     0.015 A 
HETATM   30  C   UNK N   1      34.582   9.454  22.528  0.00  0.00     0.037 A 
HETATM   31  C   UNK N   1      35.872   9.238  23.010  0.00  0.00     0.065 A 
HETATM   32  C   UNK N   1      36.977   9.605  22.236  0.00  0.00     0.037 A 
HETATM   33  C   UNK N   1      36.791  10.191  20.978  0.00  0.00     0.015 A 
BRANCH  31  34
HETATM   34  O   UNK N   1      36.049   8.679  24.217  0.00  0.00    -0.361 OA
HETATM   35  H   UNK N   1      35.692   9.088  24.981  0.00  0.00     0.217 HD
ENDBRANCH  31  34
ENDBRANCH   9  28
TORSDOF 9
ENDMDL
MODEL 8
REMARK VINA RESULT:      -7.3      1.237      2.124
REMARK  9 active torsions:
REMARK  status: ('A' for Active; 'I' for Inactive)
REMARK    1  A    between atoms: O_1  and  C_2 
REMARK    2  A    between atoms: C_3  and  C_2 
REMARK    3  A    between atoms: C_5  and  O_6 
REMARK    4  A    between atoms: O_6  and  C_7 
REMARK    5  A    between atoms: C_15  and  C_18 
REMARK    6  A    between atoms: C_21  and  O_22 
REMARK    7  A    between atoms: C_25  and  O_26 
REMARK    8  A    between atoms: C_27  and  O_28 
REMARK    9  A    between atoms: C_29  and  O_30 
ROOT
HETATM    1  C   UNK N   1      24.400  16.417   3.664  0.00  0.00     0.074 A 
HETATM    2  C   UNK N   1      25.134  17.602   3.844  0.00  0.00     0.075 A 
HETATM    3  C   UNK N   1      26.476  17.535   4.256  0.00  0.00     0.091 A 
HETATM    4  C   UNK N   1      27.070  16.276   4.491  0.00  0.00     0.049 A 
HETATM    5  C   UNK N   1      26.318  15.112   4.354  0.00  0.00     0.021 A 
HETATM    6  C   UNK N   1      24.998  15.187   3.949  0.00  0.00     0.038 A 
HETATM    7  C   UNK N   1      28.414  16.211   4.850  0.00  0.00     0.197 A 
HETATM    8  O   UNK N   1      28.932  15.121   5.044  0.00  0.00    -0.286 OA
HETATM    9  C   UNK N   1      29.155  17.403   4.980  0.00  0.00     0.048 A 
HETATM   10  C   UNK N   1      28.481  18.619   4.752  0.00  0.00     0.159 A 
HETATM   11  O   UNK N   1      27.194  18.645   4.400  0.00  0.00    -0.321 OA
ENDROOT
BRANCH   1  12
HETATM   12  O   UNK N   1      23.130  16.451   3.194  0.00  0.00    -0.318 OA
BRANCH  12  13
HETATM   13  C   UNK N   1      22.048  16.840   3.985  0.00  0.00     0.298 C 
HETATM   14  O   UNK N   1      21.547  18.135   3.691  0.00  0.00    -0.348 OA
HETATM   15  C   UNK N   1      20.959  18.141   2.407  0.00  0.00     0.179 C 
HETATM   16  C   UNK N   1      19.709  17.258   2.374  0.00  0.00     0.180 C 
HETATM   17  C   UNK N   1      20.138  15.830   2.707  0.00  0.00     0.183 C 
HETATM   18  C   UNK N   1      20.910  15.811   4.024  0.00  0.00     0.205 C 
BRANCH  15  19
HETATM   19  C   UNK N   1      20.680  19.581   2.001  0.00  0.00     0.198 C 
BRANCH  19  20
HETATM   20  O   UNK N   1      20.659  19.693   0.610  0.00  0.00    -0.398 OA
HETATM   21  H   UNK N   1      20.876  20.277  -0.134  0.00  0.00     0.209 HD
ENDBRANCH  19  20
ENDBRANCH  15  19
BRANCH  16  22
HETATM   22  O   UNK N   1      19.132  17.280   1.102  0.00  0.00    -0.390 OA
HETATM   23  H   UNK N   1      19.185  16.749   0.292  0.00  0.00     0.210 HD
ENDBRANCH  16  22
BRANCH  17  24
HETATM   24  O   UNK N   1      19.013  15.010   2.801  0.00  0.00    -0.390 OA
HETATM   25  H   UNK N   1      19.093  14.053   2.668  0.00  0.00     0.210 HD
ENDBRANCH  17  24
BRANCH  18  26
HETATM   26  O   UNK N   1      21.404  14.534   4.292  0.00  0.00    -0.388 OA
HETATM   27  H   UNK N   1      20.922  13.849   4.782  0.00  0.00     0.210 HD
ENDBRANCH  18  26
ENDBRANCH  12  13
ENDBRANCH   1  12
BRANCH   9  28
HETATM   28  C   UNK N   1      30.605  17.407   5.344  0.00  0.00    -0.020 A 
HETATM   29  C   UNK N   1      31.599  17.565   4.359  0.00  0.00     0.015 A 
HETATM   30  C   UNK N   1      32.951  17.566   4.695  0.00  0.00     0.037 A 
HETATM   31  C   UNK N   1      33.336  17.399   6.024  0.00  0.00     0.065 A 
HETATM   32  C   UNK N   1      32.366  17.245   7.018  0.00  0.00     0.037 A 
HETATM   33  C   UNK N   1      31.006  17.255   6.682  0.00  0.00     0.015 A 
BRANCH  31  34
HETATM   34  O   UNK N   1      34.639  17.387   6.346  0.00  0.00    -0.361 OA
HETATM   35  H   UNK N   1      35.023  16.619   6.721  0.00  0.00     0.217 HD
ENDBRANCH  31  34
ENDBRANCH   9  28
TORSDOF 9
ENDMDL
MODEL 9
REMARK VINA RESULT:      -7.1     11.973     17.070
REMARK  9 active torsions:
REMARK  status: ('A' for Active; 'I' for Inactive)
REMARK    1  A    between atoms: O_1  and  C_2 
REMARK    2  A    between atoms: C_3  and  C_2 
REMARK    3  A    between atoms: C_5  and  O_6 
REMARK    4  A    between atoms: O_6  and  C_7 
REMARK    5  A    between atoms: C_15  and  C_18 
REMARK    6  A    between atoms: C_21  and  O_22 
REMARK    7  A    between atoms: C_25  and  O_26 
REMARK    8  A    between atoms: C_27  and  O_28 
REMARK    9  A    between atoms: C_29  and  O_30 
ROOT
HETATM    1  C   UNK N   1      34.625  12.253  13.644  0.00  0.00     0.074 A 
HETATM    2  C   UNK N   1      34.809  13.030  14.801  0.00  0.00     0.075 A 
HETATM    3  C   UNK N   1      34.932  12.400  16.052  0.00  0.00     0.091 A 
HETATM    4  C   UNK N   1      34.862  10.993  16.133  0.00  0.00     0.049 A 
HETATM    5  C   UNK N   1      34.633  10.237  14.984  0.00  0.00     0.021 A 
HETATM    6  C   UNK N   1      34.513  10.866  13.759  0.00  0.00     0.038 A 
HETATM    7  C   UNK N   1      35.036  10.370  17.366  0.00  0.00     0.197 A 
HETATM    8  O   UNK N   1      34.985   9.150  17.435  0.00  0.00    -0.286 OA
HETATM    9  C   UNK N   1      35.268  11.156  18.512  0.00  0.00     0.048 A 
HETATM   10  C   UNK N   1      35.298  12.555  18.350  0.00  0.00     0.159 A 
HETATM   11  O   UNK N   1      35.138  13.119  17.151  0.00  0.00    -0.321 OA
ENDROOT
BRANCH   1  12
HETATM   12  O   UNK N   1      34.581  12.829  12.420  0.00  0.00    -0.318 OA
BRANCH  12  13
HETATM   13  C   UNK N   1      35.172  14.064  12.150  0.00  0.00     0.298 C 
HETATM   14  O   UNK N   1      36.573  14.005  11.930  0.00  0.00    -0.348 OA
HETATM   15  C   UNK N   1      36.840  13.309  10.729  0.00  0.00     0.179 C 
HETATM   16  C   UNK N   1      36.321  14.090   9.520  0.00  0.00     0.180 C 
HETATM   17  C   UNK N   1      34.808  14.235   9.672  0.00  0.00     0.183 C 
HETATM   18  C   UNK N   1      34.478  14.850  11.030  0.00  0.00     0.205 C 
BRANCH  15  19
HETATM   19  C   UNK N   1      38.331  13.016  10.652  0.00  0.00     0.198 C 
BRANCH  19  20
HETATM   20  O   UNK N   1      39.009  14.109  10.111  0.00  0.00    -0.398 OA
HETATM   21  H   UNK N   1      39.657  14.805  10.303  0.00  0.00     0.209 HD
ENDBRANCH  19  20
ENDBRANCH  15  19
BRANCH  16  22
HETATM   22  O   UNK N   1      36.599  13.397   8.339  0.00  0.00    -0.390 OA
HETATM   23  H   UNK N   1      37.102  13.559   7.525  0.00  0.00     0.210 HD
ENDBRANCH  16  22
BRANCH  17  24
HETATM   24  O   UNK N   1      34.306  15.041   8.649  0.00  0.00    -0.390 OA
HETATM   25  H   UNK N   1      33.570  14.730   8.100  0.00  0.00     0.210 HD
ENDBRANCH  17  24
BRANCH  18  26
HETATM   26  O   UNK N   1      33.098  14.893  11.235  0.00  0.00    -0.388 OA
HETATM   27  H   UNK N   1      32.435  14.852  10.528  0.00  0.00     0.210 HD
ENDBRANCH  18  26
ENDBRANCH  12  13
ENDBRANCH   1  12
BRANCH   9  28
HETATM   28  C   UNK N   1      35.481  10.553  19.864  0.00  0.00    -0.020 A 
HETATM   29  C   UNK N   1      36.778  10.324  20.359  0.00  0.00     0.015 A 
HETATM   30  C   UNK N   1      36.979   9.760  21.617  0.00  0.00     0.037 A 
HETATM   31  C   UNK N   1      35.883   9.406  22.402  0.00  0.00     0.065 A 
HETATM   32  C   UNK N   1      34.586   9.629  21.932  0.00  0.00     0.037 A 
HETATM   33  C   UNK N   1      34.385  10.205  20.672  0.00  0.00     0.015 A 
BRANCH  31  34
HETATM   34  O   UNK N   1      36.078   8.851  23.608  0.00  0.00    -0.361 OA
HETATM   35  H   UNK N   1      35.344   8.637  24.151  0.00  0.00     0.217 HD
ENDBRANCH  31  34
ENDBRANCH   9  28
TORSDOF 9
ENDMDL
