MODEL 1
REMARK VINA RESULT:      -5.0      0.000      0.000
REMARK  11 active torsions:
REMARK  status: ('A' for Active; 'I' for Inactive)
REMARK    1  A    between atoms: O_2  and  C_3 
REMARK    2  A    between atoms: C_3  and  C_4 
REMARK    3  A    between atoms: C_4  and  C_5 
REMARK    4  A    between atoms: C_5  and  C_6 
REMARK    5  A    between atoms: C_6  and  C_7 
REMARK    6  A    between atoms: C_7  and  C_8 
REMARK    7  A    between atoms: C_8  and  C_9 
REMARK    8  A    between atoms: C_9  and  C_10 
REMARK    9  A    between atoms: C_10  and  C_11 
REMARK   10  A    between atoms: C_11  and  C_12 
REMARK   11  A    between atoms: C_12  and  C_13 
ROOT
HETATM    1  C   UNK N   1      30.196  18.602   9.108  0.00  0.00     0.000 C 
ENDROOT
BRANCH   1   2
HETATM    2  C   UNK N   1      30.764  17.263   8.699  0.00  0.00     0.001 C 
BRANCH   2   3
HETATM    3  C   UNK N   1      31.955  17.539   7.816  0.00  0.00     0.010 C 
BRANCH   3   4
HETATM    4  C   UNK N   1      33.228  17.631   8.632  0.00  0.00     0.110 C 
BRANCH   4   5
HETATM    5  C   UNK N   1      34.323  18.285   7.842  0.00  0.00     0.139 C 
HETATM    6  O   UNK N   1      35.051  19.097   8.385  0.00  0.00    -0.650 OA
BRANCH   5   7
HETATM    7  O   UNK N   1      34.511  17.986   6.540  0.00  0.00    -0.776 OA
HETATM    8  H   UNK N   1      35.333  17.638   6.254  0.00  0.00     0.167 HD
ENDBRANCH   5   7
ENDBRANCH   4   5
ENDBRANCH   3   4
ENDBRANCH   2   3
ENDBRANCH   1   2
BRANCH   1   9
HETATM    9  C   UNK N   1      28.701  18.617   8.913  0.00  0.00     0.000 C 
BRANCH   9  10
HETATM   10  C   UNK N   1      28.357  17.686   7.775  0.00  0.00     0.000 C 
BRANCH  10  11
HETATM   11  C   UNK N   1      28.127  18.509   6.532  0.00  0.00     0.000 C 
BRANCH  11  12
HETATM   12  C   UNK N   1      27.545  19.853   6.904  0.00  0.00     0.000 C 
BRANCH  12  13
HETATM   13  C   UNK N   1      27.701  20.773   5.716  0.00  0.00    -0.000 C 
BRANCH  13  14
HETATM   14  C   UNK N   1      27.744  19.970   4.437  0.00  0.00    -0.005 C 
HETATM   15  C   UNK N   1      26.493  20.261   3.636  0.00  0.00     0.005 C 
ENDBRANCH  13  14
ENDBRANCH  12  13
ENDBRANCH  11  12
ENDBRANCH  10  11
ENDBRANCH   9  10
ENDBRANCH   1   9
TORSDOF 11
ENDMDL
MODEL 2
REMARK VINA RESULT:      -4.7      7.634     10.718
REMARK  11 active torsions:
REMARK  status: ('A' for Active; 'I' for Inactive)
REMARK    1  A    between atoms: O_2  and  C_3 
REMARK    2  A    between atoms: C_3  and  C_4 
REMARK    3  A    between atoms: C_4  and  C_5 
REMARK    4  A    between atoms: C_5  and  C_6 
REMARK    5  A    between atoms: C_6  and  C_7 
REMARK    6  A    between atoms: C_7  and  C_8 
REMARK    7  A    between atoms: C_8  and  C_9 
REMARK    8  A    between atoms: C_9  and  C_10 
REMARK    9  A    between atoms: C_10  and  C_11 
REMARK   10  A    between atoms: C_11  and  C_12 
REMARK   11  A    between atoms: C_12  and  C_13 
ROOT
HETATM    1  C   UNK N   1      36.599  13.056  13.816  0.00  0.00     0.000 C 
ENDROOT
BRANCH   1   2
HETATM    2  C   UNK N   1      35.594  14.085  13.354  0.00  0.00     0.001 C 
BRANCH   2   3
HETATM    3  C   UNK N   1      35.508  13.976  11.852  0.00  0.00     0.010 C 
BRANCH   3   4
HETATM    4  C   UNK N   1      34.817  15.187  11.258  0.00  0.00     0.110 C 
BRANCH   4   5
HETATM    5  C   UNK N   1      35.821  16.213  10.821  0.00  0.00     0.139 C 
HETATM    6  O   UNK N   1      35.441  17.325  10.500  0.00  0.00    -0.650 OA
BRANCH   5   7
HETATM    7  O   UNK N   1      37.137  15.920  10.780  0.00  0.00    -0.776 OA
HETATM    8  H   UNK N   1      37.423  15.032  10.865  0.00  0.00     0.167 HD
ENDBRANCH   5   7
ENDBRANCH   4   5
ENDBRANCH   3   4
ENDBRANCH   2   3
ENDBRANCH   1   2
BRANCH   1   9
HETATM    9  C   UNK N   1      36.780  13.138  15.311  0.00  0.00     0.000 C 
BRANCH   9  10
HETATM   10  C   UNK N   1      35.622  12.430  15.973  0.00  0.00     0.000 C 
BRANCH  10  11
HETATM   11  C   UNK N   1      35.729  10.954  15.679  0.00  0.00     0.000 C 
BRANCH  11  12
HETATM   12  C   UNK N   1      34.352  10.335  15.639  0.00  0.00     0.000 C 
BRANCH  12  13
HETATM   13  C   UNK N   1      33.717  10.696  14.316  0.00  0.00    -0.000 C 
BRANCH  13  14
HETATM   14  C   UNK N   1      34.528  10.124  13.176  0.00  0.00    -0.005 C 
HETATM   15  C   UNK N   1      33.675  10.118  11.926  0.00  0.00     0.005 C 
ENDBRANCH  13  14
ENDBRANCH  12  13
ENDBRANCH  11  12
ENDBRANCH  10  11
ENDBRANCH   9  10
ENDBRANCH   1   9
TORSDOF 11
ENDMDL
MODEL 3
REMARK VINA RESULT:      -4.5     13.834     16.194
REMARK  11 active torsions:
REMARK  status: ('A' for Active; 'I' for Inactive)
REMARK    1  A    between atoms: O_2  and  C_3 
REMARK    2  A    between atoms: C_3  and  C_4 
REMARK    3  A    between atoms: C_4  and  C_5 
REMARK    4  A    between atoms: C_5  and  C_6 
REMARK    5  A    between atoms: C_6  and  C_7 
REMARK    6  A    between atoms: C_7  and  C_8 
REMARK    7  A    between atoms: C_8  and  C_9 
REMARK    8  A    between atoms: C_9  and  C_10 
REMARK    9  A    between atoms: C_10  and  C_11 
REMARK   10  A    between atoms: C_11  and  C_12 
REMARK   11  A    between atoms: C_12  and  C_13 
ROOT
HETATM    1  C   UNK N   1      25.856  26.559  -7.211  0.00  0.00     0.000 C 
ENDROOT
BRANCH   1   2
HETATM    2  C   UNK N   1      27.135  27.351  -7.070  0.00  0.00     0.001 C 
BRANCH   2   3
HETATM    3  C   UNK N   1      26.990  28.211  -5.839  0.00  0.00     0.010 C 
BRANCH   3   4
HETATM    4  C   UNK N   1      25.742  27.843  -5.063  0.00  0.00     0.110 C 
BRANCH   4   5
HETATM    5  C   UNK N   1      25.854  28.284  -3.633  0.00  0.00     0.139 C 
HETATM    6  O   UNK N   1      25.842  27.450  -2.745  0.00  0.00    -0.650 OA
BRANCH   5   7
HETATM    7  O   UNK N   1      25.968  29.591  -3.318  0.00  0.00    -0.776 OA
HETATM    8  H   UNK N   1      25.603  29.914  -2.518  0.00  0.00     0.167 HD
ENDBRANCH   5   7
ENDBRANCH   4   5
ENDBRANCH   3   4
ENDBRANCH   2   3
ENDBRANCH   1   2
BRANCH   1   9
HETATM    9  C   UNK N   1      25.898  25.717  -8.461  0.00  0.00     0.000 C 
BRANCH   9  10
HETATM   10  C   UNK N   1      25.660  24.276  -8.076  0.00  0.00     0.000 C 
BRANCH  10  11
HETATM   11  C   UNK N   1      26.992  23.630  -7.784  0.00  0.00     0.000 C 
BRANCH  11  12
HETATM   12  C   UNK N   1      27.056  23.212  -6.334  0.00  0.00     0.000 C 
BRANCH  12  13
HETATM   13  C   UNK N   1      28.169  23.992  -5.673  0.00  0.00    -0.000 C 
BRANCH  13  14
HETATM   14  C   UNK N   1      27.658  24.672  -4.424  0.00  0.00    -0.005 C 
HETATM   15  C   UNK N   1      26.218  24.263  -4.199  0.00  0.00     0.005 C 
ENDBRANCH  13  14
ENDBRANCH  12  13
ENDBRANCH  11  12
ENDBRANCH  10  11
ENDBRANCH   9  10
ENDBRANCH   1   9
TORSDOF 11
ENDMDL
MODEL 4
REMARK VINA RESULT:      -4.5     11.011     13.570
REMARK  11 active torsions:
REMARK  status: ('A' for Active; 'I' for Inactive)
REMARK    1  A    between atoms: O_2  and  C_3 
REMARK    2  A    between atoms: C_3  and  C_4 
REMARK    3  A    between atoms: C_4  and  C_5 
REMARK    4  A    between atoms: C_5  and  C_6 
REMARK    5  A    between atoms: C_6  and  C_7 
REMARK    6  A    between atoms: C_7  and  C_8 
REMARK    7  A    between atoms: C_8  and  C_9 
REMARK    8  A    between atoms: C_9  and  C_10 
REMARK    9  A    between atoms: C_10  and  C_11 
REMARK   10  A    between atoms: C_11  and  C_12 
REMARK   11  A    between atoms: C_12  and  C_13 
ROOT
HETATM    1  C   UNK N   1      27.357  23.922  -5.236  0.00  0.00     0.000 C 
ENDROOT
BRANCH   1   2
HETATM    2  C   UNK N   1      27.361  24.177  -3.748  0.00  0.00     0.001 C 
BRANCH   2   3
HETATM    3  C   UNK N   1      28.805  24.247  -3.314  0.00  0.00     0.010 C 
BRANCH   3   4
HETATM    4  C   UNK N   1      29.565  23.012  -3.754  0.00  0.00     0.110 C 
BRANCH   4   5
HETATM    5  C   UNK N   1      30.469  22.525  -2.661  0.00  0.00     0.139 C 
HETATM    6  O   UNK N   1      31.267  21.635  -2.895  0.00  0.00    -0.650 OA
BRANCH   5   7
HETATM    7  O   UNK N   1      30.410  23.058  -1.423  0.00  0.00    -0.776 OA
HETATM    8  H   UNK N   1      29.611  23.438  -1.114  0.00  0.00     0.167 HD
ENDBRANCH   5   7
ENDBRANCH   4   5
ENDBRANCH   3   4
ENDBRANCH   2   3
ENDBRANCH   1   2
BRANCH   1   9
HETATM    9  C   UNK N   1      25.953  24.008  -5.778  0.00  0.00     0.000 C 
BRANCH   9  10
HETATM   10  C   UNK N   1      25.340  25.309  -5.314  0.00  0.00     0.000 C 
BRANCH  10  11
HETATM   11  C   UNK N   1      25.568  26.354  -6.378  0.00  0.00     0.000 C 
BRANCH  11  12
HETATM   12  C   UNK N   1      26.024  27.646  -5.742  0.00  0.00     0.000 C 
BRANCH  12  13
HETATM   13  C   UNK N   1      25.497  27.680  -4.326  0.00  0.00    -0.000 C 
BRANCH  13  14
HETATM   14  C   UNK N   1      26.540  28.254  -3.396  0.00  0.00    -0.005 C 
HETATM   15  C   UNK N   1      27.912  27.861  -3.899  0.00  0.00     0.005 C 
ENDBRANCH  13  14
ENDBRANCH  12  13
ENDBRANCH  11  12
ENDBRANCH  10  11
ENDBRANCH   9  10
ENDBRANCH   1   9
TORSDOF 11
ENDMDL
MODEL 5
REMARK VINA RESULT:      -4.5      9.291     11.198
REMARK  11 active torsions:
REMARK  status: ('A' for Active; 'I' for Inactive)
REMARK    1  A    between atoms: O_2  and  C_3 
REMARK    2  A    between atoms: C_3  and  C_4 
REMARK    3  A    between atoms: C_4  and  C_5 
REMARK    4  A    between atoms: C_5  and  C_6 
REMARK    5  A    between atoms: C_6  and  C_7 
REMARK    6  A    between atoms: C_7  and  C_8 
REMARK    7  A    between atoms: C_8  and  C_9 
REMARK    8  A    between atoms: C_9  and  C_10 
REMARK    9  A    between atoms: C_10  and  C_11 
REMARK   10  A    between atoms: C_11  and  C_12 
REMARK   11  A    between atoms: C_12  and  C_13 
ROOT
HETATM    1  C   UNK N   1      20.894  12.819  10.393  0.00  0.00     0.000 C 
ENDROOT
BRANCH   1   2
HETATM    2  C   UNK N   1      21.402  14.094   9.764  0.00  0.00     0.001 C 
BRANCH   2   3
HETATM    3  C   UNK N   1      20.218  14.773   9.121  0.00  0.00     0.010 C 
BRANCH   3   4
HETATM    4  C   UNK N   1      20.615  16.105   8.519  0.00  0.00     0.110 C 
BRANCH   4   5
HETATM    5  C   UNK N   1      19.515  17.113   8.678  0.00  0.00     0.139 C 
HETATM    6  O   UNK N   1      18.359  16.771   8.503  0.00  0.00    -0.650 OA
BRANCH   5   7
HETATM    7  O   UNK N   1      19.789  18.391   9.012  0.00  0.00    -0.776 OA
HETATM    8  H   UNK N   1      20.554  18.811   8.671  0.00  0.00     0.167 HD
ENDBRANCH   5   7
ENDBRANCH   4   5
ENDBRANCH   3   4
ENDBRANCH   2   3
ENDBRANCH   1   2
BRANCH   1   9
HETATM    9  C   UNK N   1      21.948  12.224  11.292  0.00  0.00     0.000 C 
BRANCH   9  10
HETATM   10  C   UNK N   1      23.019  11.601  10.428  0.00  0.00     0.000 C 
BRANCH  10  11
HETATM   11  C   UNK N   1      24.351  12.201  10.803  0.00  0.00     0.000 C 
BRANCH  11  12
HETATM   12  C   UNK N   1      24.869  13.055   9.670  0.00  0.00     0.000 C 
BRANCH  12  13
HETATM   13  C   UNK N   1      24.448  12.411   8.370  0.00  0.00    -0.000 C 
BRANCH  13  14
HETATM   14  C   UNK N   1      24.891  13.259   7.201  0.00  0.00    -0.005 C 
HETATM   15  C   UNK N   1      24.018  14.494   7.134  0.00  0.00     0.005 C 
ENDBRANCH  13  14
ENDBRANCH  12  13
ENDBRANCH  11  12
ENDBRANCH  10  11
ENDBRANCH   9  10
ENDBRANCH   1   9
TORSDOF 11
ENDMDL
MODEL 6
REMARK VINA RESULT:      -4.5     10.873     13.036
REMARK  11 active torsions:
REMARK  status: ('A' for Active; 'I' for Inactive)
REMARK    1  A    between atoms: O_2  and  C_3 
REMARK    2  A    between atoms: C_3  and  C_4 
REMARK    3  A    between atoms: C_4  and  C_5 
REMARK    4  A    between atoms: C_5  and  C_6 
REMARK    5  A    between atoms: C_6  and  C_7 
REMARK    6  A    between atoms: C_7  and  C_8 
REMARK    7  A    between atoms: C_8  and  C_9 
REMARK    8  A    between atoms: C_9  and  C_10 
REMARK    9  A    between atoms: C_10  and  C_11 
REMARK   10  A    between atoms: C_11  and  C_12 
REMARK   11  A    between atoms: C_12  and  C_13 
ROOT
HETATM    1  C   UNK N   1      28.911  25.045  -4.149  0.00  0.00     0.000 C 
ENDROOT
BRANCH   1   2
HETATM    2  C   UNK N   1      29.758  24.045  -4.900  0.00  0.00     0.001 C 
BRANCH   2   3
HETATM    3  C   UNK N   1      29.573  22.710  -4.223  0.00  0.00     0.010 C 
BRANCH   3   4
HETATM    4  C   UNK N   1      30.903  22.011  -4.029  0.00  0.00     0.110 C 
BRANCH   4   5
HETATM    5  C   UNK N   1      31.366  22.130  -2.607  0.00  0.00     0.139 C 
HETATM    6  O   UNK N   1      30.801  22.904  -1.855  0.00  0.00    -0.650 OA
BRANCH   5   7
HETATM    7  O   UNK N   1      32.400  21.393  -2.151  0.00  0.00    -0.776 OA
HETATM    8  H   UNK N   1      32.239  20.632  -1.628  0.00  0.00     0.167 HD
ENDBRANCH   5   7
ENDBRANCH   4   5
ENDBRANCH   3   4
ENDBRANCH   2   3
ENDBRANCH   1   2
BRANCH   1   9
HETATM    9  C   UNK N   1      27.740  24.353  -3.498  0.00  0.00     0.000 C 
BRANCH   9  10
HETATM   10  C   UNK N   1      26.473  25.060  -3.918  0.00  0.00     0.000 C 
BRANCH  10  11
HETATM   11  C   UNK N   1      25.805  24.248  -4.999  0.00  0.00     0.000 C 
BRANCH  11  12
HETATM   12  C   UNK N   1      25.854  24.995  -6.311  0.00  0.00     0.000 C 
BRANCH  12  13
HETATM   13  C   UNK N   1      26.610  24.143  -7.304  0.00  0.00    -0.000 C 
BRANCH  13  14
HETATM   14  C   UNK N   1      26.617  22.700  -6.854  0.00  0.00    -0.005 C 
HETATM   15  C   UNK N   1      27.802  21.999  -7.482  0.00  0.00     0.005 C 
ENDBRANCH  13  14
ENDBRANCH  12  13
ENDBRANCH  11  12
ENDBRANCH  10  11
ENDBRANCH   9  10
ENDBRANCH   1   9
TORSDOF 11
ENDMDL
MODEL 7
REMARK VINA RESULT:      -4.5      6.845      9.909
REMARK  11 active torsions:
REMARK  status: ('A' for Active; 'I' for Inactive)
REMARK    1  A    between atoms: O_2  and  C_3 
REMARK    2  A    between atoms: C_3  and  C_4 
REMARK    3  A    between atoms: C_4  and  C_5 
REMARK    4  A    between atoms: C_5  and  C_6 
REMARK    5  A    between atoms: C_6  and  C_7 
REMARK    6  A    between atoms: C_7  and  C_8 
REMARK    7  A    between atoms: C_8  and  C_9 
REMARK    8  A    between atoms: C_9  and  C_10 
REMARK    9  A    between atoms: C_10  and  C_11 
REMARK   10  A    between atoms: C_11  and  C_12 
REMARK   11  A    between atoms: C_12  and  C_13 
ROOT
HETATM    1  C   UNK N   1      21.994  18.443   4.810  0.00  0.00     0.000 C 
ENDROOT
BRANCH   1   2
HETATM    2  C   UNK N   1      20.758  17.929   4.110  0.00  0.00     0.001 C 
BRANCH   2   3
HETATM    3  C   UNK N   1      20.869  18.333   2.661  0.00  0.00     0.010 C 
BRANCH   3   4
HETATM    4  C   UNK N   1      20.120  19.622   2.397  0.00  0.00     0.110 C 
BRANCH   4   5
HETATM    5  C   UNK N   1      21.038  20.668   1.836  0.00  0.00     0.139 C 
HETATM    6  O   UNK N   1      21.369  20.610   0.665  0.00  0.00    -0.650 OA
BRANCH   5   7
HETATM    7  O   UNK N   1      21.501  21.671   2.610  0.00  0.00    -0.776 OA
HETATM    8  H   UNK N   1      21.986  22.374   2.226  0.00  0.00     0.167 HD
ENDBRANCH   5   7
ENDBRANCH   4   5
ENDBRANCH   3   4
ENDBRANCH   2   3
ENDBRANCH   1   2
BRANCH   1   9
HETATM    9  C   UNK N   1      23.220  18.168   3.976  0.00  0.00     0.000 C 
BRANCH   9  10
HETATM   10  C   UNK N   1      24.289  19.166   4.352  0.00  0.00     0.000 C 
BRANCH  10  11
HETATM   11  C   UNK N   1      24.574  20.040   3.156  0.00  0.00     0.000 C 
BRANCH  11  12
HETATM   12  C   UNK N   1      26.026  20.458   3.156  0.00  0.00     0.000 C 
BRANCH  12  13
HETATM   13  C   UNK N   1      26.521  20.420   4.583  0.00  0.00    -0.000 C 
BRANCH  13  14
HETATM   14  C   UNK N   1      27.941  19.906   4.628  0.00  0.00    -0.005 C 
HETATM   15  C   UNK N   1      27.942  18.441   4.247  0.00  0.00     0.005 C 
ENDBRANCH  13  14
ENDBRANCH  12  13
ENDBRANCH  11  12
ENDBRANCH  10  11
ENDBRANCH   9  10
ENDBRANCH   1   9
TORSDOF 11
ENDMDL
MODEL 8
REMARK VINA RESULT:      -4.4      2.244      3.629
REMARK  11 active torsions:
REMARK  status: ('A' for Active; 'I' for Inactive)
REMARK    1  A    between atoms: O_2  and  C_3 
REMARK    2  A    between atoms: C_3  and  C_4 
REMARK    3  A    between atoms: C_4  and  C_5 
REMARK    4  A    between atoms: C_5  and  C_6 
REMARK    5  A    between atoms: C_6  and  C_7 
REMARK    6  A    between atoms: C_7  and  C_8 
REMARK    7  A    between atoms: C_8  and  C_9 
REMARK    8  A    between atoms: C_9  and  C_10 
REMARK    9  A    between atoms: C_10  and  C_11 
REMARK   10  A    between atoms: C_11  and  C_12 
REMARK   11  A    between atoms: C_12  and  C_13 
ROOT
HETATM    1  C   UNK N   1      31.405  16.388   7.424  0.00  0.00     0.000 C 
ENDROOT
BRANCH   1   2
HETATM    2  C   UNK N   1      32.381  17.416   6.903  0.00  0.00     0.001 C 
BRANCH   2   3
HETATM    3  C   UNK N   1      32.892  18.186   8.096  0.00  0.00     0.010 C 
BRANCH   3   4
HETATM    4  C   UNK N   1      34.395  18.049   8.228  0.00  0.00     0.110 C 
BRANCH   4   5
HETATM    5  C   UNK N   1      34.748  16.947   9.184  0.00  0.00     0.139 C 
HETATM    6  O   UNK N   1      35.096  15.864   8.748  0.00  0.00    -0.650 OA
BRANCH   5   7
HETATM    7  O   UNK N   1      34.686  17.140  10.517  0.00  0.00    -0.776 OA
HETATM    8  H   UNK N   1      34.117  17.796  10.870  0.00  0.00     0.167 HD
ENDBRANCH   5   7
ENDBRANCH   4   5
ENDBRANCH   3   4
ENDBRANCH   2   3
ENDBRANCH   1   2
BRANCH   1   9
HETATM    9  C   UNK N   1      30.312  16.145   6.414  0.00  0.00     0.000 C 
BRANCH   9  10
HETATM   10  C   UNK N   1      29.706  17.476   6.035  0.00  0.00     0.000 C 
BRANCH  10  11
HETATM   11  C   UNK N   1      28.281  17.513   6.530  0.00  0.00     0.000 C 
BRANCH  11  12
HETATM   12  C   UNK N   1      28.194  18.340   7.791  0.00  0.00     0.000 C 
BRANCH  12  13
HETATM   13  C   UNK N   1      27.983  17.398   8.953  0.00  0.00    -0.000 C 
BRANCH  13  14
HETATM   14  C   UNK N   1      29.168  17.452   9.889  0.00  0.00    -0.005 C 
HETATM   15  C   UNK N   1      29.804  18.822   9.793  0.00  0.00     0.005 C 
ENDBRANCH  13  14
ENDBRANCH  12  13
ENDBRANCH  11  12
ENDBRANCH  10  11
ENDBRANCH   9  10
ENDBRANCH   1   9
TORSDOF 11
ENDMDL
MODEL 9
REMARK VINA RESULT:      -4.4      2.428      4.141
REMARK  11 active torsions:
REMARK  status: ('A' for Active; 'I' for Inactive)
REMARK    1  A    between atoms: O_2  and  C_3 
REMARK    2  A    between atoms: C_3  and  C_4 
REMARK    3  A    between atoms: C_4  and  C_5 
REMARK    4  A    between atoms: C_5  and  C_6 
REMARK    5  A    between atoms: C_6  and  C_7 
REMARK    6  A    between atoms: C_7  and  C_8 
REMARK    7  A    between atoms: C_8  and  C_9 
REMARK    8  A    between atoms: C_9  and  C_10 
REMARK    9  A    between atoms: C_10  and  C_11 
REMARK   10  A    between atoms: C_11  and  C_12 
REMARK   11  A    between atoms: C_12  and  C_13 
ROOT
HETATM    1  C   UNK N   1      32.569  17.523   4.845  0.00  0.00     0.000 C 
ENDROOT
BRANCH   1   2
HETATM    2  C   UNK N   1      33.647  16.477   5.006  0.00  0.00     0.001 C 
BRANCH   2   3
HETATM    3  C   UNK N   1      34.332  16.746   6.322  0.00  0.00     0.010 C 
BRANCH   3   4
HETATM    4  C   UNK N   1      33.625  17.844   7.090  0.00  0.00     0.110 C 
BRANCH   4   5
HETATM    5  C   UNK N   1      34.352  18.158   8.364  0.00  0.00     0.139 C 
HETATM    6  O   UNK N   1      35.196  19.036   8.372  0.00  0.00    -0.650 OA
BRANCH   5   7
HETATM    7  O   UNK N   1      34.083  17.481   9.500  0.00  0.00    -0.776 OA
HETATM    8  H   UNK N   1      34.310  17.851  10.330  0.00  0.00     0.167 HD
ENDBRANCH   5   7
ENDBRANCH   4   5
ENDBRANCH   3   4
ENDBRANCH   2   3
ENDBRANCH   1   2
BRANCH   1   9
HETATM    9  C   UNK N   1      31.486  17.021   3.923  0.00  0.00     0.000 C 
BRANCH   9  10
HETATM   10  C   UNK N   1      30.145  17.352   4.534  0.00  0.00     0.000 C 
BRANCH  10  11
HETATM   11  C   UNK N   1      29.832  16.324   5.593  0.00  0.00     0.000 C 
BRANCH  11  12
HETATM   12  C   UNK N   1      29.052  16.963   6.717  0.00  0.00     0.000 C 
BRANCH  12  13
HETATM   13  C   UNK N   1      30.005  17.213   7.863  0.00  0.00    -0.000 C 
BRANCH  13  14
HETATM   14  C   UNK N   1      29.233  17.466   9.137  0.00  0.00    -0.005 C 
HETATM   15  C   UNK N   1      29.744  18.742   9.772  0.00  0.00     0.005 C 
ENDBRANCH  13  14
ENDBRANCH  12  13
ENDBRANCH  11  12
ENDBRANCH  10  11
ENDBRANCH   9  10
ENDBRANCH   1   9
TORSDOF 11
ENDMDL
