REMARK  14 active torsions:
REMARK  status: ('A' for Active; 'I' for Inactive)
REMARK    1  A    between atoms: C_3  and  C_1 
REMARK       I    between atoms: N_6  and  C_1 
REMARK    2  A    between atoms: C_2  and  C_4 
REMARK    3  A    between atoms: O_8  and  C_2 
REMARK    4  A    between atoms: C_5  and  C_3 
REMARK    5  A    between atoms: C_4  and  C_5 
REMARK    6  A    between atoms: C_4  and  C_20 
REMARK    7  A    between atoms: C_16  and  N_6 
REMARK    8  A    between atoms: C_10  and  C_7 
REMARK    9  A    between atoms: O_13  and  C_7 
REMARK   10  A    between atoms: C_9  and  O_8 
REMARK   11  A    between atoms: O_23  and  C_20 
REMARK   12  A    between atoms: C_26  and  O_23 
REMARK   13  A    between atoms: O_24  and  C_25 
REMARK   14  A    between atoms: C_25  and  C_26 
ROOT
HETATM    1  C   UNK N   1      10.879  -9.457   0.701  0.00  0.00     0.036 C 
ENDROOT
BRANCH   1   2
HETATM    2  C   UNK N   1      10.370  -9.015  -0.672  0.00  0.00     0.111 C 
BRANCH   2   3
HETATM    3  C   UNK N   1       9.444  -7.863  -0.509  0.00  0.00     0.270 C 
HETATM    4  O   UNK N   1       9.730  -6.781  -1.001  0.00  0.00    -0.264 OA
BRANCH   3   5
HETATM    5  O   UNK N   1       8.270  -8.062   0.147  0.00  0.00    -0.279 OA
BRANCH   5   6
HETATM    6  C   UNK N   1       7.165  -7.281   0.121  0.00  0.00     0.079 A 
HETATM    7  C   UNK N   1       7.114  -6.056  -0.584  0.00  0.00     0.038 A 
HETATM    8  C   UNK N   1       5.917  -5.328  -0.647  0.00  0.00     0.010 A 
HETATM    9  C   UNK N   1       4.787  -5.843  -0.011  0.00  0.00    -0.052 A 
HETATM   10  C   UNK N   1       4.837  -7.018   0.677  0.00  0.00    -0.049 A 
HETATM   11  C   UNK N   1       3.446  -5.236  -0.000  0.00  0.00     0.039 A 
HETATM   12  C   UNK N   1       6.013  -7.755   0.763  0.00  0.00     0.045 A 
HETATM   13  C   UNK N   1       3.542  -7.397   1.263  0.00  0.00     0.039 A 
HETATM   14  C   UNK N   1       2.614  -6.252   0.810  0.00  0.00     0.009 A 
ENDBRANCH   5   6
ENDBRANCH   3   5
ENDBRANCH   2   3
BRANCH   2  15
HETATM   15  C   UNK N   1       9.632 -10.119  -1.453  0.00  0.00     0.182 C 
BRANCH  15  16
HETATM   16  O   UNK N   1       9.530 -11.338  -0.762  0.00  0.00    -0.388 OA
BRANCH  16  17
HETATM   17  C   UNK N   1       8.394 -11.242   0.055  0.00  0.00     0.193 C 
BRANCH  17  18
HETATM   18  C   UNK N   1       7.187 -11.891  -0.603  0.00  0.00     0.193 C 
BRANCH  18  19
HETATM   19  O   UNK N   1       6.547 -10.972  -1.436  0.00  0.00    -0.394 OA
HETATM   20  C   UNK N   1       5.343 -10.685  -0.790  0.00  0.00     0.201 C 
ENDBRANCH  18  19
ENDBRANCH  17  18
ENDBRANCH  16  17
ENDBRANCH  15  16
ENDBRANCH   2  15
ENDBRANCH   1   2
BRANCH   1  21
HETATM   21  C   UNK N   1      12.392  -9.693   0.708  0.00  0.00     0.042 C 
HETATM   22  C   UNK N   1      12.826 -10.132   2.091  0.00  0.00     0.019 C 
HETATM   23  C   UNK N   1      12.538 -11.623   2.151  0.00  0.00     0.001 C 
HETATM   24  C   UNK N   1      12.508 -12.111   0.710  0.00  0.00     0.001 C 
HETATM   25  C   UNK N   1      12.755 -10.890  -0.159  0.00  0.00     0.019 C 
BRANCH  21  26
HETATM   26  C   UNK N   1      13.109  -8.426   0.307  0.00  0.00     0.226 C 
HETATM   27  N   UNK N   1      13.913  -8.429  -0.793  0.00  0.00    -0.356 N 
HETATM   28  H   UNK N   1      13.938  -9.271  -1.302  0.00  0.00     0.162 HD
HETATM   29  O   UNK N   1      12.941  -7.410   0.965  0.00  0.00    -0.273 OA
BRANCH  27  30
HETATM   30  C   UNK N   1      14.741  -7.350  -1.314  0.00  0.00     0.084 C 
HETATM   31  C   UNK N   1      14.836  -6.083  -0.444  0.00  0.00     0.026 C 
HETATM   32  C   UNK N   1      15.617  -6.335   0.853  0.00  0.00     0.017 C 
HETATM   33  C   UNK N   1      16.988  -6.982   0.600  0.00  0.00     0.084 C 
HETATM   34  C   UNK N   1      16.836  -8.233  -0.266  0.00  0.00     0.017 C 
HETATM   35  C   UNK N   1      16.140  -7.893  -1.584  0.00  0.00     0.026 C 
BRANCH  33  36
HETATM   36  C   UNK N   1      18.008  -6.045   0.007  0.00  0.00     0.143 C 
HETATM   37  O   UNK N   1      17.710  -4.900  -0.296  0.00  0.00    -0.650 OA
BRANCH  36  38
HETATM   38  O   UNK N   1      19.268  -6.478  -0.189  0.00  0.00    -0.776 OA
HETATM   39  H   UNK N   1      19.445  -7.388  -0.326  0.00  0.00     0.167 HD
ENDBRANCH  36  38
ENDBRANCH  33  36
ENDBRANCH  27  30
ENDBRANCH  21  26
ENDBRANCH   1  21
TORSDOF 14
